MODEL 1
REMARK VINA RESULT:      -9.7      0.000      0.000
REMARK  Name = *****
REMARK                            x       y       z     vdW  Elec       q    Type
REMARK                         _______ _______ _______ _____ _____    ______ ____
ROOT
ATOM      1  C   LIG    1       29.553 -18.681   5.663  0.00  0.00    +0.047 C 
ATOM      2  C   LIG    1       29.020 -19.731   6.593  0.00  0.00    -0.007 A 
ATOM      3  C   LIG    1       29.820 -20.401   7.524  0.00  0.00    +0.144 A 
ATOM      4  N   LIG    1       29.284 -21.411   8.244  0.00  0.00    -0.134 NA
ATOM      5  N   LIG    1       27.959 -21.786   8.110  0.00  0.00    -0.147 NA
ATOM      6  C   LIG    1       27.157 -21.157   7.231  0.00  0.00    +0.094 A 
ATOM      7  C   LIG    1       27.680 -20.133   6.452  0.00  0.00    +0.037 A 
ENDROOT
BRANCH   6   8
ATOM      8  C   LIG    1       25.757 -21.619   7.154  0.00  0.00    +0.002 A 
ATOM      9  C   LIG    1       24.682 -20.725   7.307  0.00  0.00    +0.010 A 
ATOM     10  C   LIG    1       23.353 -21.159   7.232  0.00  0.00    +0.001 A 
ATOM     11  C   LIG    1       23.069 -22.503   6.997  0.00  0.00    +0.000 A 
ATOM     12  C   LIG    1       24.111 -23.408   6.838  0.00  0.00    +0.001 A 
ATOM     13  C   LIG    1       25.437 -22.971   6.914  0.00  0.00    +0.010 A 
ENDBRANCH   6   8
BRANCH   3  14
ATOM     14  N   LIG    1       31.183 -20.068   7.668  0.00  0.00    -0.326 N 
ATOM     15  H   LIG    1       31.521 -19.571   6.847  0.00  0.00    +0.148 HD
BRANCH  14  16
ATOM     16  C   LIG    1       31.470 -19.312   8.894  0.00  0.00    +0.118 C 
BRANCH  16  17
ATOM     17  C   LIG    1       32.210 -17.987   8.590  0.00  0.00    +0.103 C 
BRANCH  17  18
ATOM     18  N   LIG    1       31.553 -16.739   9.041  0.00  0.00    -0.296 NA
ATOM     19  C   LIG    1       30.482 -16.941  10.042  0.00  0.00    +0.112 C 
ATOM     20  C   LIG    1       30.978 -17.280  11.458  0.00  0.00    +0.175 C 
ATOM     21  O   LIG    1       31.893 -16.288  11.939  0.00  0.00    -0.377 OA
ATOM     22  C   LIG    1       33.009 -16.165  11.051  0.00  0.00    +0.175 C 
ATOM     23  C   LIG    1       32.553 -15.805   9.623  0.00  0.00    +0.112 C 
ENDBRANCH  17  18
ENDBRANCH  16  17
ENDBRANCH  14  16
ENDBRANCH   3  14
TORSDOF 5
ENDMDL
MODEL 2
REMARK VINA RESULT:      -8.9      2.891      8.013
REMARK  Name = *****
REMARK                            x       y       z     vdW  Elec       q    Type
REMARK                         _______ _______ _______ _____ _____    ______ ____
ROOT
ATOM      1  C   LIG    1       29.029 -18.714   5.717  0.00  0.00    +0.047 C 
ATOM      2  C   LIG    1       29.643 -19.159   7.011  0.00  0.00    -0.007 A 
ATOM      3  C   LIG    1       29.545 -20.469   7.490  0.00  0.00    +0.144 A 
ATOM      4  N   LIG    1       30.030 -20.757   8.718  0.00  0.00    -0.134 NA
ATOM      5  N   LIG    1       30.647 -19.803   9.507  0.00  0.00    -0.147 NA
ATOM      6  C   LIG    1       30.768 -18.533   9.075  0.00  0.00    +0.094 A 
ATOM      7  C   LIG    1       30.255 -18.193   7.829  0.00  0.00    +0.037 A 
ENDROOT
BRANCH   6   8
ATOM      8  C   LIG    1       31.440 -17.580   9.978  0.00  0.00    +0.002 A 
ATOM      9  C   LIG    1       31.176 -17.570  11.359  0.00  0.00    +0.010 A 
ATOM     10  C   LIG    1       31.813 -16.669  12.220  0.00  0.00    +0.001 A 
ATOM     11  C   LIG    1       32.738 -15.757  11.717  0.00  0.00    +0.000 A 
ATOM     12  C   LIG    1       33.022 -15.746  10.357  0.00  0.00    +0.001 A 
ATOM     13  C   LIG    1       32.383 -16.647   9.500  0.00  0.00    +0.010 A 
ENDBRANCH   6   8
BRANCH   3  14
ATOM     14  N   LIG    1       28.897 -21.463   6.729  0.00  0.00    -0.326 N 
ATOM     15  H   LIG    1       29.494 -22.281   6.624  0.00  0.00    +0.148 HD
BRANCH  14  16
ATOM     16  C   LIG    1       27.581 -21.839   7.262  0.00  0.00    +0.118 C 
BRANCH  16  17
ATOM     17  C   LIG    1       26.432 -21.135   6.502  0.00  0.00    +0.103 C 
BRANCH  17  18
ATOM     18  N   LIG    1       25.304 -21.989   6.062  0.00  0.00    -0.296 NA
ATOM     19  C   LIG    1       24.201 -22.095   7.042  0.00  0.00    +0.112 C 
ATOM     20  C   LIG    1       23.311 -20.846   7.150  0.00  0.00    +0.175 C 
ATOM     21  O   LIG    1       22.775 -20.478   5.874  0.00  0.00    -0.377 OA
ATOM     22  C   LIG    1       23.831 -20.241   4.936  0.00  0.00    +0.175 C 
ATOM     23  C   LIG    1       24.735 -21.481   4.786  0.00  0.00    +0.112 C 
ENDBRANCH  17  18
ENDBRANCH  16  17
ENDBRANCH  14  16
ENDBRANCH   3  14
TORSDOF 5
ENDMDL
MODEL 3
REMARK VINA RESULT:      -8.4      3.458      8.218
REMARK  Name = *****
REMARK                            x       y       z     vdW  Elec       q    Type
REMARK                         _______ _______ _______ _____ _____    ______ ____
ROOT
ATOM      1  C   LIG    1       28.050 -21.403   7.966  0.00  0.00    +0.047 C 
ATOM      2  C   LIG    1       28.770 -20.132   7.620  0.00  0.00    -0.007 A 
ATOM      3  C   LIG    1       28.847 -19.631   6.317  0.00  0.00    +0.144 A 
ATOM      4  N   LIG    1       29.609 -18.541   6.078  0.00  0.00    -0.134 NA
ATOM      5  N   LIG    1       30.294 -17.887   7.086  0.00  0.00    -0.147 NA
ATOM      6  C   LIG    1       30.235 -18.336   8.354  0.00  0.00    +0.094 A 
ATOM      7  C   LIG    1       29.484 -19.470   8.634  0.00  0.00    +0.037 A 
ENDROOT
BRANCH   6   8
ATOM      8  C   LIG    1       30.994 -17.577   9.368  0.00  0.00    +0.002 A 
ATOM      9  C   LIG    1       32.191 -16.915   9.042  0.00  0.00    +0.010 A 
ATOM     10  C   LIG    1       32.912 -16.193   9.999  0.00  0.00    +0.001 A 
ATOM     11  C   LIG    1       32.448 -16.114  11.311  0.00  0.00    +0.000 A 
ATOM     12  C   LIG    1       31.266 -16.755  11.661  0.00  0.00    +0.001 A 
ATOM     13  C   LIG    1       30.548 -17.476  10.702  0.00  0.00    +0.010 A 
ENDBRANCH   6   8
BRANCH   3  14
ATOM     14  N   LIG    1       28.188 -20.287   5.257  0.00  0.00    -0.326 N 
ATOM     15  H   LIG    1       28.097 -21.282   5.451  0.00  0.00    +0.148 HD
BRANCH  14  16
ATOM     16  C   LIG    1       26.885 -19.695   4.927  0.00  0.00    +0.118 C 
BRANCH  16  17
ATOM     17  C   LIG    1       25.718 -20.491   5.558  0.00  0.00    +0.103 C 
BRANCH  17  18
ATOM     18  N   LIG    1       24.686 -21.007   4.629  0.00  0.00    -0.296 NA
ATOM     19  C   LIG    1       23.355 -21.205   5.244  0.00  0.00    +0.112 C 
ATOM     20  C   LIG    1       22.571 -19.910   5.516  0.00  0.00    +0.175 C 
ATOM     21  O   LIG    1       22.428 -19.130   4.323  0.00  0.00    -0.377 OA
ATOM     22  C   LIG    1       23.712 -18.813   3.775  0.00  0.00    +0.175 C 
ATOM     23  C   LIG    1       24.522 -20.089   3.471  0.00  0.00    +0.112 C 
ENDBRANCH  17  18
ENDBRANCH  16  17
ENDBRANCH  14  16
ENDBRANCH   3  14
TORSDOF 5
ENDMDL
MODEL 4
REMARK VINA RESULT:      -8.3      4.058      8.373
REMARK  Name = *****
REMARK                            x       y       z     vdW  Elec       q    Type
REMARK                         _______ _______ _______ _____ _____    ______ ____
ROOT
ATOM      1  C   LIG    1       24.296 -20.403   5.239  0.00  0.00    +0.047 C 
ATOM      2  C   LIG    1       25.146 -20.808   6.408  0.00  0.00    -0.007 A 
ATOM      3  C   LIG    1       24.636 -21.477   7.524  0.00  0.00    +0.144 A 
ATOM      4  N   LIG    1       25.449 -21.704   8.581  0.00  0.00    -0.134 NA
ATOM      5  N   LIG    1       26.778 -21.319   8.582  0.00  0.00    -0.147 NA
ATOM      6  C   LIG    1       27.305 -20.681   7.520  0.00  0.00    +0.094 A 
ATOM      7  C   LIG    1       26.493 -20.405   6.427  0.00  0.00    +0.037 A 
ENDROOT
BRANCH   6   8
ATOM      8  C   LIG    1       28.730 -20.309   7.603  0.00  0.00    +0.002 A 
ATOM      9  C   LIG    1       29.640 -21.062   8.366  0.00  0.00    +0.010 A 
ATOM     10  C   LIG    1       30.993 -20.714   8.446  0.00  0.00    +0.001 A 
ATOM     11  C   LIG    1       31.470 -19.600   7.758  0.00  0.00    +0.000 A 
ATOM     12  C   LIG    1       30.594 -18.839   6.994  0.00  0.00    +0.001 A 
ATOM     13  C   LIG    1       29.244 -19.189   6.916  0.00  0.00    +0.010 A 
ENDBRANCH   6   8
BRANCH   3  14
ATOM     14  N   LIG    1       23.280 -21.859   7.574  0.00  0.00    -0.326 N 
ATOM     15  H   LIG    1       22.674 -21.043   7.503  0.00  0.00    +0.148 HD
BRANCH  14  16
ATOM     16  C   LIG    1       22.922 -22.868   6.569  0.00  0.00    +0.118 C 
BRANCH  16  17
ATOM     17  C   LIG    1       23.715 -24.182   6.769  0.00  0.00    +0.103 C 
BRANCH  17  18
ATOM     18  N   LIG    1       25.001 -24.300   6.044  0.00  0.00    -0.296 NA
ATOM     19  C   LIG    1       26.080 -24.955   6.817  0.00  0.00    +0.112 C 
ATOM     20  C   LIG    1       25.935 -26.479   6.961  0.00  0.00    +0.175 C 
ATOM     21  O   LIG    1       25.819 -27.113   5.682  0.00  0.00    -0.377 OA
ATOM     22  C   LIG    1       24.700 -26.587   4.962  0.00  0.00    +0.175 C 
ATOM     23  C   LIG    1       24.818 -25.060   4.780  0.00  0.00    +0.112 C 
ENDBRANCH  17  18
ENDBRANCH  16  17
ENDBRANCH  14  16
ENDBRANCH   3  14
TORSDOF 5
ENDMDL
MODEL 5
REMARK VINA RESULT:      -8.3      4.332      8.919
REMARK  Name = *****
REMARK                            x       y       z     vdW  Elec       q    Type
REMARK                         _______ _______ _______ _____ _____    ______ ____
ROOT
ATOM      1  C   LIG    1       24.308 -20.322   4.537  0.00  0.00    +0.047 C 
ATOM      2  C   LIG    1       25.263 -21.018   5.461  0.00  0.00    -0.007 A 
ATOM      3  C   LIG    1       24.947 -22.204   6.131  0.00  0.00    +0.144 A 
ATOM      4  N   LIG    1       25.823 -22.703   7.030  0.00  0.00    -0.134 NA
ATOM      5  N   LIG    1       27.038 -22.094   7.289  0.00  0.00    -0.147 NA
ATOM      6  C   LIG    1       27.380 -20.956   6.656  0.00  0.00    +0.094 A 
ATOM      7  C   LIG    1       26.492 -20.398   5.745  0.00  0.00    +0.037 A 
ENDROOT
BRANCH   6   8
ATOM      8  C   LIG    1       28.694 -20.374   6.990  0.00  0.00    +0.002 A 
ATOM      9  C   LIG    1       29.545 -20.980   7.932  0.00  0.00    +0.010 A 
ATOM     10  C   LIG    1       30.793 -20.432   8.250  0.00  0.00    +0.001 A 
ATOM     11  C   LIG    1       31.222 -19.262   7.627  0.00  0.00    +0.000 A 
ATOM     12  C   LIG    1       30.404 -18.644   6.689  0.00  0.00    +0.001 A 
ATOM     13  C   LIG    1       29.158 -19.193   6.374  0.00  0.00    +0.010 A 
ENDBRANCH   6   8
BRANCH   3  14
ATOM     14  N   LIG    1       23.706 -22.839   5.917  0.00  0.00    -0.326 N 
ATOM     15  H   LIG    1       23.552 -23.001   4.923  0.00  0.00    +0.148 HD
BRANCH  14  16
ATOM     16  C   LIG    1       23.551 -24.083   6.681  0.00  0.00    +0.118 C 
BRANCH  16  17
ATOM     17  C   LIG    1       24.051 -25.312   5.885  0.00  0.00    +0.103 C 
BRANCH  17  18
ATOM     18  N   LIG    1       24.940 -26.254   6.603  0.00  0.00    -0.296 NA
ATOM     19  C   LIG    1       24.423 -27.638   6.686  0.00  0.00    +0.112 C 
ATOM     20  C   LIG    1       24.510 -28.438   5.376  0.00  0.00    +0.175 C 
ATOM     21  O   LIG    1       25.850 -28.464   4.870  0.00  0.00    -0.377 OA
ATOM     22  C   LIG    1       26.330 -27.133   4.657  0.00  0.00    +0.175 C 
ATOM     23  C   LIG    1       26.277 -26.303   5.956  0.00  0.00    +0.112 C 
ENDBRANCH  17  18
ENDBRANCH  16  17
ENDBRANCH  14  16
ENDBRANCH   3  14
TORSDOF 5
ENDMDL
MODEL 6
REMARK VINA RESULT:      -8.3      3.170      8.131
REMARK  Name = *****
REMARK                            x       y       z     vdW  Elec       q    Type
REMARK                         _______ _______ _______ _____ _____    ______ ____
ROOT
ATOM      1  C   LIG    1       27.588 -21.461   7.963  0.00  0.00    +0.047 C 
ATOM      2  C   LIG    1       28.351 -20.235   7.554  0.00  0.00    -0.007 A 
ATOM      3  C   LIG    1       28.413 -19.783   6.232  0.00  0.00    +0.144 A 
ATOM      4  N   LIG    1       29.214 -18.736   5.934  0.00  0.00    -0.134 NA
ATOM      5  N   LIG    1       29.954 -18.078   6.900  0.00  0.00    -0.147 NA
ATOM      6  C   LIG    1       29.911 -18.480   8.184  0.00  0.00    +0.094 A 
ATOM      7  C   LIG    1       29.122 -19.570   8.524  0.00  0.00    +0.037 A 
ENDROOT
BRANCH   6   8
ATOM      8  C   LIG    1       30.730 -17.721   9.149  0.00  0.00    +0.002 A 
ATOM      9  C   LIG    1       30.262 -17.444  10.447  0.00  0.00    +0.010 A 
ATOM     10  C   LIG    1       31.036 -16.727  11.366  0.00  0.00    +0.001 A 
ATOM     11  C   LIG    1       32.303 -16.271  11.008  0.00  0.00    +0.000 A 
ATOM     12  C   LIG    1       32.793 -16.533   9.734  0.00  0.00    +0.001 A 
ATOM     13  C   LIG    1       32.017 -17.250   8.818  0.00  0.00    +0.010 A 
ENDBRANCH   6   8
BRANCH   3  14
ATOM     14  N   LIG    1       27.697 -20.445   5.214  0.00  0.00    -0.326 N 
ATOM     15  H   LIG    1       27.581 -21.431   5.439  0.00  0.00    +0.148 HD
BRANCH  14  16
ATOM     16  C   LIG    1       26.403 -19.819   4.911  0.00  0.00    +0.118 C 
BRANCH  16  17
ATOM     17  C   LIG    1       25.273 -20.376   5.810  0.00  0.00    +0.103 C 
BRANCH  17  18
ATOM     18  N   LIG    1       24.297 -21.285   5.166  0.00  0.00    -0.296 NA
ATOM     19  C   LIG    1       24.772 -22.678   5.011  0.00  0.00    +0.112 C 
ATOM     20  C   LIG    1       24.795 -23.501   6.311  0.00  0.00    +0.175 C 
ATOM     21  O   LIG    1       23.509 -23.507   6.943  0.00  0.00    -0.377 OA
ATOM     22  C   LIG    1       23.082 -22.170   7.224  0.00  0.00    +0.175 C 
ATOM     23  C   LIG    1       23.028 -21.318   5.940  0.00  0.00    +0.112 C 
ENDBRANCH  17  18
ENDBRANCH  16  17
ENDBRANCH  14  16
ENDBRANCH   3  14
TORSDOF 5
ENDMDL
MODEL 7
REMARK VINA RESULT:      -7.9      3.427      6.074
REMARK  Name = *****
REMARK                            x       y       z     vdW  Elec       q    Type
REMARK                         _______ _______ _______ _____ _____    ______ ____
ROOT
ATOM      1  C   LIG    1       22.565 -22.621   6.611  0.00  0.00    +0.047 C 
ATOM      2  C   LIG    1       23.826 -23.429   6.706  0.00  0.00    -0.007 A 
ATOM      3  C   LIG    1       25.089 -22.852   6.870  0.00  0.00    +0.144 A 
ATOM      4  N   LIG    1       26.183 -23.646   6.832  0.00  0.00    -0.134 NA
ATOM      5  N   LIG    1       26.091 -25.016   6.664  0.00  0.00    -0.147 NA
ATOM      6  C   LIG    1       24.891 -25.606   6.512  0.00  0.00    +0.094 A 
ATOM      7  C   LIG    1       23.746 -24.820   6.517  0.00  0.00    +0.037 A 
ENDROOT
BRANCH   6   8
ATOM      8  C   LIG    1       24.883 -27.072   6.340  0.00  0.00    +0.002 A 
ATOM      9  C   LIG    1       25.185 -27.936   7.409  0.00  0.00    +0.010 A 
ATOM     10  C   LIG    1       25.178 -29.326   7.251  0.00  0.00    +0.001 A 
ATOM     11  C   LIG    1       24.862 -29.887   6.015  0.00  0.00    +0.000 A 
ATOM     12  C   LIG    1       24.556 -29.059   4.943  0.00  0.00    +0.001 A 
ATOM     13  C   LIG    1       24.565 -27.670   5.104  0.00  0.00    +0.010 A 
ENDBRANCH   6   8
BRANCH   3  14
ATOM     14  N   LIG    1       25.227 -21.457   7.014  0.00  0.00    -0.326 N 
ATOM     15  H   LIG    1       24.321 -20.997   6.945  0.00  0.00    +0.148 HD
BRANCH  14  16
ATOM     16  C   LIG    1       25.922 -21.065   8.247  0.00  0.00    +0.118 C 
BRANCH  16  17
ATOM     17  C   LIG    1       27.199 -20.243   7.949  0.00  0.00    +0.103 C 
BRANCH  17  18
ATOM     18  N   LIG    1       28.179 -20.850   7.019  0.00  0.00    -0.296 NA
ATOM     19  C   LIG    1       28.540 -19.991   5.869  0.00  0.00    +0.112 C 
ATOM     20  C   LIG    1       29.476 -18.818   6.209  0.00  0.00    +0.175 C 
ATOM     21  O   LIG    1       30.671 -19.277   6.850  0.00  0.00    -0.377 OA
ATOM     22  C   LIG    1       30.353 -20.004   8.042  0.00  0.00    +0.175 C 
ATOM     23  C   LIG    1       29.431 -21.201   7.738  0.00  0.00    +0.112 C 
ENDBRANCH  17  18
ENDBRANCH  16  17
ENDBRANCH  14  16
ENDBRANCH   3  14
TORSDOF 5
ENDMDL
MODEL 8
REMARK VINA RESULT:      -7.9      2.067      2.490
REMARK  Name = *****
REMARK                            x       y       z     vdW  Elec       q    Type
REMARK                         _______ _______ _______ _____ _____    ______ ____
ROOT
ATOM      1  C   LIG    1       28.385 -21.794   8.602  0.00  0.00    +0.047 C 
ATOM      2  C   LIG    1       28.094 -21.052   7.330  0.00  0.00    -0.007 A 
ATOM      3  C   LIG    1       29.078 -20.380   6.600  0.00  0.00    +0.144 A 
ATOM      4  N   LIG    1       28.711 -19.643   5.527  0.00  0.00    -0.134 NA
ATOM      5  N   LIG    1       27.394 -19.556   5.112  0.00  0.00    -0.147 NA
ATOM      6  C   LIG    1       26.421 -20.198   5.786  0.00  0.00    +0.094 A 
ATOM      7  C   LIG    1       26.757 -20.941   6.910  0.00  0.00    +0.037 A 
ENDROOT
BRANCH   6   8
ATOM      8  C   LIG    1       25.045 -20.053   5.274  0.00  0.00    +0.002 A 
ATOM      9  C   LIG    1       24.769 -19.292   4.124  0.00  0.00    +0.010 A 
ATOM     10  C   LIG    1       23.465 -19.154   3.633  0.00  0.00    +0.001 A 
ATOM     11  C   LIG    1       22.404 -19.780   4.283  0.00  0.00    +0.000 A 
ATOM     12  C   LIG    1       22.648 -20.542   5.420  0.00  0.00    +0.001 A 
ATOM     13  C   LIG    1       23.951 -20.677   5.907  0.00  0.00    +0.010 A 
ENDBRANCH   6   8
BRANCH   3  14
ATOM     14  N   LIG    1       30.427 -20.419   7.007  0.00  0.00    -0.326 N 
ATOM     15  H   LIG    1       30.939 -21.129   6.488  0.00  0.00    +0.148 HD
BRANCH  14  16
ATOM     16  C   LIG    1       31.100 -19.117   6.918  0.00  0.00    +0.118 C 
BRANCH  16  17
ATOM     17  C   LIG    1       31.600 -18.634   8.301  0.00  0.00    +0.103 C 
BRANCH  17  18
ATOM     18  N   LIG    1       31.255 -17.246   8.686  0.00  0.00    -0.296 NA
ATOM     19  C   LIG    1       30.075 -17.134   9.571  0.00  0.00    +0.112 C 
ATOM     20  C   LIG    1       30.319 -17.557  11.029  0.00  0.00    +0.175 C 
ATOM     21  O   LIG    1       31.412 -16.831  11.604  0.00  0.00    -0.377 OA
ATOM     22  C   LIG    1       32.604 -17.027  10.836  0.00  0.00    +0.175 C 
ATOM     23  C   LIG    1       32.403 -16.595   9.370  0.00  0.00    +0.112 C 
ENDBRANCH  17  18
ENDBRANCH  16  17
ENDBRANCH  14  16
ENDBRANCH   3  14
TORSDOF 5
ENDMDL
MODEL 9
REMARK VINA RESULT:      -7.8      2.715      4.602
REMARK  Name = *****
REMARK                            x       y       z     vdW  Elec       q    Type
REMARK                         _______ _______ _______ _____ _____    ______ ____
ROOT
ATOM      1  C   LIG    1       24.489 -20.962   4.833  0.00  0.00    +0.047 C 
ATOM      2  C   LIG    1       25.186 -21.938   5.736  0.00  0.00    -0.007 A 
ATOM      3  C   LIG    1       26.216 -21.568   6.605  0.00  0.00    +0.144 A 
ATOM      4  N   LIG    1       26.865 -22.529   7.300  0.00  0.00    -0.134 NA
ATOM      5  N   LIG    1       26.524 -23.866   7.199  0.00  0.00    -0.147 NA
ATOM      6  C   LIG    1       25.531 -24.257   6.378  0.00  0.00    +0.094 A 
ATOM      7  C   LIG    1       24.860 -23.301   5.627  0.00  0.00    +0.037 A 
ENDROOT
BRANCH   6   8
ATOM      8  C   LIG    1       25.231 -25.701   6.333  0.00  0.00    +0.002 A 
ATOM      9  C   LIG    1       24.307 -26.228   5.412  0.00  0.00    +0.010 A 
ATOM     10  C   LIG    1       24.021 -27.598   5.364  0.00  0.00    +0.001 A 
ATOM     11  C   LIG    1       24.660 -28.476   6.238  0.00  0.00    +0.000 A 
ATOM     12  C   LIG    1       25.580 -27.984   7.155  0.00  0.00    +0.001 A 
ATOM     13  C   LIG    1       25.862 -26.615   7.201  0.00  0.00    +0.010 A 
ENDBRANCH   6   8
BRANCH   3  14
ATOM     14  N   LIG    1       26.614 -20.220   6.714  0.00  0.00    -0.326 N 
ATOM     15  H   LIG    1       26.841 -19.989   7.679  0.00  0.00    +0.148 HD
BRANCH  14  16
ATOM     16  C   LIG    1       27.720 -19.865   5.815  0.00  0.00    +0.118 C 
BRANCH  16  17
ATOM     17  C   LIG    1       29.094 -20.007   6.514  0.00  0.00    +0.103 C 
BRANCH  17  18
ATOM     18  N   LIG    1       29.102 -19.909   7.991  0.00  0.00    -0.296 NA
ATOM     19  C   LIG    1       29.699 -21.077   8.676  0.00  0.00    +0.112 C 
ATOM     20  C   LIG    1       31.233 -21.157   8.597  0.00  0.00    +0.175 C 
ATOM     21  O   LIG    1       31.841 -19.959   9.092  0.00  0.00    -0.377 OA
ATOM     22  C   LIG    1       31.377 -18.821   8.356  0.00  0.00    +0.175 C 
ATOM     23  C   LIG    1       29.842 -18.696   8.428  0.00  0.00    +0.112 C 
ENDBRANCH  17  18
ENDBRANCH  16  17
ENDBRANCH  14  16
ENDBRANCH   3  14
TORSDOF 5
ENDMDL
