MODEL 1
REMARK VINA RESULT:      -8.3      0.000      0.000
REMARK  Name = *****
REMARK                            x       y       z     vdW  Elec       q    Type
REMARK                         _______ _______ _______ _____ _____    ______ ____
ROOT
ATOM      1  C   LIG    1       23.169 -30.737  12.892  0.00  0.00    +0.011 C 
ATOM      2  C   LIG    1       22.924 -29.834  11.930  0.00  0.00    -0.036 C 
ATOM      3  C   LIG    1       23.357 -30.020  10.464  0.00  0.00    +0.213 C 
ATOM      4  C   LIG    1       24.532 -30.928   9.973  0.00  0.00    +0.126 C 
ATOM      5  C   LIG    1       26.020 -30.928  10.529  0.00  0.00    +0.185 C 
ATOM      6  C   LIG    1       26.867 -31.266   9.250  0.00  0.00    +0.064 C 
ATOM      7  C   LIG    1       25.887 -31.867   8.253  0.00  0.00    +0.031 C 
ATOM      8  C   LIG    1       26.520 -32.034   6.883  0.00  0.00    +0.011 C 
ATOM      9  C   LIG    1       26.567 -29.592  11.130  0.00  0.00    +0.203 C 
ATOM     10  O   LIG    1       27.220 -28.787  10.456  0.00  0.00    -0.288 OA
ATOM     11  C   LIG    1       26.199 -29.192  12.520  0.00  0.00    -0.008 C 
ATOM     12  C   LIG    1       26.409 -30.115  13.676  0.00  0.00    +0.047 C 
ATOM     13  C   LIG    1       25.670 -27.955  12.611  0.00  0.00    -0.016 C 
ATOM     14  C   LIG    1       24.839 -27.480  13.720  0.00  0.00    +0.022 C 
ATOM     15  C   LIG    1       24.400 -26.083  14.080  0.00  0.00    -0.025 C 
ATOM     16  C   LIG    1       23.943 -25.845  15.498  0.00  0.00    +0.012 C 
ATOM     17  C   LIG    1       25.152 -24.915  13.483  0.00  0.00    +0.012 C 
ATOM     18  C   LIG    1       23.539 -26.928  13.158  0.00  0.00    +0.003 C 
ATOM     19  C   LIG    1       22.318 -27.742  13.442  0.00  0.00    +0.009 C 
ATOM     20  C   LIG    1       24.682 -30.927   8.414  0.00  0.00    +0.191 C 
ATOM     21  C   LIG    1       21.984 -28.656  12.229  0.00  0.00    +0.034 C 
ENDROOT
BRANCH   3  22
ATOM     22  O   LIG    1       22.123 -30.449   9.769  0.00  0.00    -0.457 OA
BRANCH  22  23
ATOM     23  C   LIG    1       21.483 -31.593  10.179  0.00  0.00    +0.304 C 
ATOM     24  O   LIG    1       21.936 -32.734  10.139  0.00  0.00    -0.251 OA
ATOM     25  C   LIG    1       20.087 -31.306  10.621  0.00  0.00    +0.136 C 
ENDBRANCH  22  23
ENDBRANCH   3  22
BRANCH   5  26
ATOM     26  O   LIG    1       26.037 -32.075  11.422  0.00  0.00    -0.450 OA
BRANCH  26  27
ATOM     27  C   LIG    1       25.267 -33.168  11.189  0.00  0.00    +0.305 C 
ATOM     28  O   LIG    1       25.207 -33.789  10.140  0.00  0.00    -0.251 OA
ATOM     29  C   LIG    1       24.513 -33.527  12.434  0.00  0.00    +0.136 C 
ENDBRANCH  26  27
ENDBRANCH   5  26
BRANCH  20  30
ATOM     30  O   LIG    1       24.934 -29.602   7.894  0.00  0.00    -0.457 OA
BRANCH  30  31
ATOM     31  C   LIG    1       24.347 -29.346   6.688  0.00  0.00    +0.340 C 
ATOM     32  O   LIG    1       23.581 -30.113   6.113  0.00  0.00    -0.245 OA
BRANCH  31  33
ATOM     33  C   LIG    1       24.667 -28.012   6.115  0.00  0.00    +0.059 A 
ATOM     34  C   LIG    1       25.541 -27.976   5.011  0.00  0.00    +0.015 A 
ATOM     35  C   LIG    1       25.839 -26.775   4.366  0.00  0.00    +0.001 A 
ATOM     36  C   LIG    1       25.276 -25.589   4.826  0.00  0.00    +0.000 A 
ATOM     37  C   LIG    1       24.436 -25.605   5.946  0.00  0.00    +0.001 A 
ATOM     38  C   LIG    1       24.134 -26.811   6.594  0.00  0.00    +0.015 A 
ENDBRANCH  31  33
ENDBRANCH  30  31
ENDBRANCH  20  30
TORSDOF 7
ENDMDL
MODEL 2
REMARK VINA RESULT:      -6.0      1.953      5.183
REMARK  Name = *****
REMARK                            x       y       z     vdW  Elec       q    Type
REMARK                         _______ _______ _______ _____ _____    ______ ____
ROOT
ATOM      1  C   LIG    1       22.947 -33.473  12.802  0.00  0.00    +0.011 C 
ATOM      2  C   LIG    1       23.123 -32.996  11.560  0.00  0.00    -0.036 C 
ATOM      3  C   LIG    1       24.175 -31.930  11.204  0.00  0.00    +0.213 C 
ATOM      4  C   LIG    1       24.791 -30.893  12.200  0.00  0.00    +0.126 C 
ATOM      5  C   LIG    1       23.986 -29.933  13.178  0.00  0.00    +0.185 C 
ATOM      6  C   LIG    1       24.890 -28.649  13.221  0.00  0.00    +0.064 C 
ATOM      7  C   LIG    1       26.257 -29.089  12.719  0.00  0.00    +0.031 C 
ATOM      8  C   LIG    1       27.174 -27.900  12.490  0.00  0.00    +0.011 C 
ATOM      9  C   LIG    1       22.549 -29.497  12.742  0.00  0.00    +0.203 C 
ATOM     10  O   LIG    1       22.338 -28.439  12.139  0.00  0.00    -0.288 OA
ATOM     11  C   LIG    1       21.396 -30.425  12.935  0.00  0.00    -0.008 C 
ATOM     12  C   LIG    1       21.103 -31.033  14.268  0.00  0.00    +0.047 C 
ATOM     13  C   LIG    1       20.682 -30.650  11.814  0.00  0.00    -0.016 C 
ATOM     14  C   LIG    1       19.808 -31.805  11.597  0.00  0.00    +0.022 C 
ATOM     15  C   LIG    1       18.773 -32.057  10.529  0.00  0.00    -0.025 C 
ATOM     16  C   LIG    1       17.728 -33.108  10.813  0.00  0.00    +0.012 C 
ATOM     17  C   LIG    1       18.247 -30.878   9.743  0.00  0.00    +0.012 C 
ATOM     18  C   LIG    1       20.211 -32.488  10.299  0.00  0.00    +0.003 C 
ATOM     19  C   LIG    1       20.863 -33.825  10.451  0.00  0.00    +0.009 C 
ATOM     20  C   LIG    1       25.867 -29.976  11.526  0.00  0.00    +0.191 C 
ATOM     21  C   LIG    1       22.410 -33.682  10.385  0.00  0.00    +0.034 C 
ENDROOT
BRANCH   3  22
ATOM     22  O   LIG    1       25.286 -32.699  10.598  0.00  0.00    -0.457 OA
BRANCH  22  23
ATOM     23  C   LIG    1       25.531 -32.580   9.252  0.00  0.00    +0.304 C 
ATOM     24  O   LIG    1       24.689 -32.562   8.358  0.00  0.00    -0.251 OA
ATOM     25  C   LIG    1       26.995 -32.557   8.966  0.00  0.00    +0.136 C 
ENDBRANCH  22  23
ENDBRANCH   3  22
BRANCH   5  26
ATOM     26  O   LIG    1       24.078 -30.616  14.458  0.00  0.00    -0.450 OA
BRANCH  26  27
ATOM     27  C   LIG    1       25.276 -30.953  14.999  0.00  0.00    +0.305 C 
ATOM     28  O   LIG    1       26.084 -30.177  15.483  0.00  0.00    -0.251 OA
ATOM     29  C   LIG    1       25.451 -32.441  14.947  0.00  0.00    +0.136 C 
ENDBRANCH  26  27
ENDBRANCH   5  26
BRANCH  20  30
ATOM     30  O   LIG    1       25.321 -29.220  10.422  0.00  0.00    -0.457 OA
BRANCH  30  31
ATOM     31  C   LIG    1       26.185 -29.036   9.380  0.00  0.00    +0.340 C 
ATOM     32  O   LIG    1       27.397 -29.217   9.444  0.00  0.00    -0.245 OA
BRANCH  31  33
ATOM     33  C   LIG    1       25.536 -28.634   8.104  0.00  0.00    +0.059 A 
ATOM     34  C   LIG    1       25.947 -27.416   7.528  0.00  0.00    +0.015 A 
ATOM     35  C   LIG    1       25.444 -26.997   6.295  0.00  0.00    +0.001 A 
ATOM     36  C   LIG    1       24.513 -27.785   5.627  0.00  0.00    +0.000 A 
ATOM     37  C   LIG    1       24.068 -28.979   6.207  0.00  0.00    +0.001 A 
ATOM     38  C   LIG    1       24.573 -29.404   7.444  0.00  0.00    +0.015 A 
ENDBRANCH  31  33
ENDBRANCH  30  31
ENDBRANCH  20  30
TORSDOF 7
ENDMDL
MODEL 3
REMARK VINA RESULT:      -5.8      2.318      6.948
REMARK  Name = *****
REMARK                            x       y       z     vdW  Elec       q    Type
REMARK                         _______ _______ _______ _____ _____    ______ ____
ROOT
ATOM      1  C   LIG    1       25.343 -32.451  11.674  0.00  0.00    +0.011 C 
ATOM      2  C   LIG    1       25.452 -31.114  11.674  0.00  0.00    -0.036 C 
ATOM      3  C   LIG    1       24.643 -30.199  12.612  0.00  0.00    +0.213 C 
ATOM      4  C   LIG    1       23.276 -30.562  13.279  0.00  0.00    +0.126 C 
ATOM      5  C   LIG    1       21.988 -31.131  12.542  0.00  0.00    +0.185 C 
ATOM      6  C   LIG    1       20.811 -30.499  13.367  0.00  0.00    +0.064 C 
ATOM      7  C   LIG    1       21.423 -30.057  14.688  0.00  0.00    +0.031 C 
ATOM      8  C   LIG    1       20.449 -29.222  15.500  0.00  0.00    +0.011 C 
ATOM      9  C   LIG    1       21.787 -30.745  11.040  0.00  0.00    +0.203 C 
ATOM     10  O   LIG    1       21.094 -29.780  10.697  0.00  0.00    -0.288 OA
ATOM     11  C   LIG    1       22.541 -31.468   9.974  0.00  0.00    -0.008 C 
ATOM     12  C   LIG    1       22.512 -32.959   9.877  0.00  0.00    +0.047 C 
ATOM     13  C   LIG    1       23.230 -30.658   9.146  0.00  0.00    -0.016 C 
ATOM     14  C   LIG    1       24.367 -31.075   8.322  0.00  0.00    +0.022 C 
ATOM     15  C   LIG    1       25.058 -30.366   7.184  0.00  0.00    -0.025 C 
ATOM     16  C   LIG    1       25.884 -31.209   6.244  0.00  0.00    +0.012 C 
ATOM     17  C   LIG    1       24.337 -29.228   6.500  0.00  0.00    +0.012 C 
ATOM     18  C   LIG    1       25.543 -30.155   8.608  0.00  0.00    +0.003 C 
ATOM     19  C   LIG    1       26.682 -30.778   9.350  0.00  0.00    +0.009 C 
ATOM     20  C   LIG    1       22.740 -29.424  14.212  0.00  0.00    +0.191 C 
ATOM     21  C   LIG    1       26.580 -30.453  10.867  0.00  0.00    +0.034 C 
ENDROOT
BRANCH   3  22
ATOM     22  O   LIG    1       25.597 -29.840  13.685  0.00  0.00    -0.457 OA
BRANCH  22  23
ATOM     23  C   LIG    1       26.073 -30.823  14.518  0.00  0.00    +0.304 C 
ATOM     24  O   LIG    1       25.401 -31.658  15.118  0.00  0.00    -0.251 OA
ATOM     25  C   LIG    1       27.551 -30.716  14.695  0.00  0.00    +0.136 C 
ENDBRANCH  22  23
ENDBRANCH   3  22
BRANCH   5  26
ATOM     26  O   LIG    1       22.050 -32.555  12.825  0.00  0.00    -0.450 OA
BRANCH  26  27
ATOM     27  C   LIG    1       20.931 -33.278  13.079  0.00  0.00    +0.305 C 
ATOM     28  O   LIG    1       20.020 -33.484  12.294  0.00  0.00    -0.251 OA
ATOM     29  C   LIG    1       20.990 -33.823  14.474  0.00  0.00    +0.136 C 
ENDBRANCH  26  27
ENDBRANCH   5  26
BRANCH  20  30
ATOM     30  O   LIG    1       22.537 -28.186  13.495  0.00  0.00    -0.457 OA
BRANCH  30  31
ATOM     31  C   LIG    1       22.940 -27.069  14.170  0.00  0.00    +0.340 C 
ATOM     32  O   LIG    1       22.189 -26.330  14.799  0.00  0.00    -0.245 OA
BRANCH  31  33
ATOM     33  C   LIG    1       24.406 -26.821  14.134  0.00  0.00    +0.059 A 
ATOM     34  C   LIG    1       25.090 -26.820  15.365  0.00  0.00    +0.015 A 
ATOM     35  C   LIG    1       26.477 -26.668  15.419  0.00  0.00    +0.001 A 
ATOM     36  C   LIG    1       27.197 -26.502  14.240  0.00  0.00    +0.000 A 
ATOM     37  C   LIG    1       26.525 -26.462  13.013  0.00  0.00    +0.001 A 
ATOM     38  C   LIG    1       25.132 -26.617  12.956  0.00  0.00    +0.015 A 
ENDBRANCH  31  33
ENDBRANCH  30  31
ENDBRANCH  20  30
TORSDOF 7
ENDMDL
MODEL 4
REMARK VINA RESULT:      -5.5      2.940      5.263
REMARK  Name = *****
REMARK                            x       y       z     vdW  Elec       q    Type
REMARK                         _______ _______ _______ _____ _____    ______ ____
ROOT
ATOM      1  C   LIG    1       26.933 -31.143  13.726  0.00  0.00    +0.011 C 
ATOM      2  C   LIG    1       25.719 -30.635  13.988  0.00  0.00    -0.036 C 
ATOM      3  C   LIG    1       24.438 -31.086  13.262  0.00  0.00    +0.213 C 
ATOM      4  C   LIG    1       24.382 -31.738  11.841  0.00  0.00    +0.126 C 
ATOM      5  C   LIG    1       25.070 -31.184  10.520  0.00  0.00    +0.185 C 
ATOM      6  C   LIG    1       24.058 -31.612   9.398  0.00  0.00    +0.064 C 
ATOM      7  C   LIG    1       23.194 -32.703  10.015  0.00  0.00    +0.031 C 
ATOM      8  C   LIG    1       22.020 -33.055   9.118  0.00  0.00    +0.011 C 
ATOM      9  C   LIG    1       25.285 -29.639  10.412  0.00  0.00    +0.203 C 
ATOM     10  O   LIG    1       24.471 -28.900   9.846  0.00  0.00    -0.288 OA
ATOM     11  C   LIG    1       26.435 -28.993  11.111  0.00  0.00    -0.008 C 
ATOM     12  C   LIG    1       27.835 -29.477  10.913  0.00  0.00    +0.047 C 
ATOM     13  C   LIG    1       26.082 -27.971  11.915  0.00  0.00    -0.016 C 
ATOM     14  C   LIG    1       26.893 -27.458  13.022  0.00  0.00    +0.022 C 
ATOM     15  C   LIG    1       26.754 -26.189  13.826  0.00  0.00    -0.025 C 
ATOM     16  C   LIG    1       27.971 -25.710  14.578  0.00  0.00    +0.012 C 
ATOM     17  C   LIG    1       25.912 -25.067  13.262  0.00  0.00    +0.012 C 
ATOM     18  C   LIG    1       26.049 -27.453  14.286  0.00  0.00    +0.003 C 
ATOM     19  C   LIG    1       26.436 -28.460  15.322  0.00  0.00    +0.009 C 
ATOM     20  C   LIG    1       22.925 -32.118  11.410  0.00  0.00    +0.191 C 
ATOM     21  C   LIG    1       25.535 -29.722  15.210  0.00  0.00    +0.034 C 
ENDROOT
BRANCH   3  22
ATOM     22  O   LIG    1       23.779 -32.005  14.215  0.00  0.00    -0.457 OA
BRANCH  22  23
ATOM     23  C   LIG    1       22.705 -31.561  14.947  0.00  0.00    +0.304 C 
ATOM     24  O   LIG    1       22.496 -30.404  15.303  0.00  0.00    -0.251 OA
ATOM     25  C   LIG    1       21.820 -32.691  15.354  0.00  0.00    +0.136 C 
ENDBRANCH  22  23
ENDBRANCH   3  22
BRANCH   5  26
ATOM     26  O   LIG    1       26.269 -31.998  10.408  0.00  0.00    -0.450 OA
BRANCH  26  27
ATOM     27  C   LIG    1       26.782 -32.344   9.201  0.00  0.00    +0.305 C 
ATOM     28  O   LIG    1       27.046 -31.576   8.291  0.00  0.00    -0.251 OA
ATOM     29  C   LIG    1       27.014 -33.825   9.159  0.00  0.00    +0.136 C 
ENDBRANCH  26  27
ENDBRANCH   5  26
BRANCH  20  30
ATOM     30  O   LIG    1       22.052 -30.966  11.375  0.00  0.00    -0.457 OA
BRANCH  30  31
ATOM     31  C   LIG    1       20.896 -31.110  12.088  0.00  0.00    +0.340 C 
ATOM     32  O   LIG    1       20.287 -32.167  12.215  0.00  0.00    -0.245 OA
BRANCH  31  33
ATOM     33  C   LIG    1       20.430 -29.871  12.765  0.00  0.00    +0.059 A 
ATOM     34  C   LIG    1       19.337 -29.989  13.645  0.00  0.00    +0.015 A 
ATOM     35  C   LIG    1       18.880 -28.892  14.378  0.00  0.00    +0.001 A 
ATOM     36  C   LIG    1       19.504 -27.658  14.230  0.00  0.00    +0.000 A 
ATOM     37  C   LIG    1       20.567 -27.517  13.330  0.00  0.00    +0.001 A 
ATOM     38  C   LIG    1       21.029 -28.618  12.594  0.00  0.00    +0.015 A 
ENDBRANCH  31  33
ENDBRANCH  30  31
ENDBRANCH  20  30
TORSDOF 7
ENDMDL
MODEL 5
REMARK VINA RESULT:      -5.4      2.417      7.018
REMARK  Name = *****
REMARK                            x       y       z     vdW  Elec       q    Type
REMARK                         _______ _______ _______ _____ _____    ______ ____
ROOT
ATOM      1  C   LIG    1       26.652 -30.446  10.792  0.00  0.00    +0.011 C 
ATOM      2  C   LIG    1       25.924 -29.319  10.813  0.00  0.00    -0.036 C 
ATOM      3  C   LIG    1       24.751 -29.088  11.783  0.00  0.00    +0.213 C 
ATOM      4  C   LIG    1       23.906 -30.210  12.471  0.00  0.00    +0.126 C 
ATOM      5  C   LIG    1       23.211 -31.444  11.749  0.00  0.00    +0.185 C 
ATOM      6  C   LIG    1       21.915 -31.662  12.609  0.00  0.00    +0.064 C 
ATOM      7  C   LIG    1       22.167 -30.941  13.926  0.00  0.00    +0.031 C 
ATOM      8  C   LIG    1       20.907 -30.874  14.771  0.00  0.00    +0.011 C 
ATOM      9  C   LIG    1       22.776 -31.257  10.259  0.00  0.00    +0.203 C 
ATOM     10  O   LIG    1       21.631 -30.914   9.947  0.00  0.00    -0.288 OA
ATOM     11  C   LIG    1       23.786 -31.369   9.166  0.00  0.00    -0.008 C 
ATOM     12  C   LIG    1       24.668 -32.569   9.043  0.00  0.00    +0.047 C 
ATOM     13  C   LIG    1       23.818 -30.305   8.339  0.00  0.00    -0.016 C 
ATOM     14  C   LIG    1       24.951 -29.942   7.485  0.00  0.00    +0.022 C 
ATOM     15  C   LIG    1       25.037 -28.956   6.347  0.00  0.00    -0.025 C 
ATOM     16  C   LIG    1       26.180 -29.120   5.375  0.00  0.00    +0.012 C 
ATOM     17  C   LIG    1       23.754 -28.491   5.697  0.00  0.00    +0.012 C 
ATOM     18  C   LIG    1       25.331 -28.496   7.764  0.00  0.00    +0.003 C 
ATOM     19  C   LIG    1       26.633 -28.298   8.472  0.00  0.00    +0.009 C 
ATOM     20  C   LIG    1       22.812 -29.637  13.434  0.00  0.00    +0.191 C 
ATOM     21  C   LIG    1       26.394 -28.106   9.997  0.00  0.00    +0.034 C 
ENDROOT
BRANCH   3  22
ATOM     22  O   LIG    1       25.317 -28.225  12.844  0.00  0.00    -0.457 OA
BRANCH  22  23
ATOM     23  C   LIG    1       26.327 -28.710  13.638  0.00  0.00    +0.304 C 
ATOM     24  O   LIG    1       26.396 -29.837  14.121  0.00  0.00    -0.251 OA
ATOM     25  C   LIG    1       27.338 -27.654  13.937  0.00  0.00    +0.136 C 
ENDBRANCH  22  23
ENDBRANCH   3  22
BRANCH   5  26
ATOM     26  O   LIG    1       24.135 -32.537  12.005  0.00  0.00    -0.450 OA
BRANCH  26  27
ATOM     27  C   LIG    1       24.140 -33.201  13.189  0.00  0.00    +0.305 C 
ATOM     28  O   LIG    1       23.204 -33.825  13.660  0.00  0.00    -0.251 OA
ATOM     29  C   LIG    1       25.491 -33.083  13.826  0.00  0.00    +0.136 C 
ENDBRANCH  26  27
ENDBRANCH   5  26
BRANCH  20  30
ATOM     30  O   LIG    1       21.879 -28.776  12.744  0.00  0.00    -0.457 OA
BRANCH  30  31
ATOM     31  C   LIG    1       21.746 -27.531  13.291  0.00  0.00    +0.340 C 
ATOM     32  O   LIG    1       22.625 -26.675  13.288  0.00  0.00    -0.245 OA
BRANCH  31  33
ATOM     33  C   LIG    1       20.405 -27.251  13.869  0.00  0.00    +0.059 A 
ATOM     34  C   LIG    1       19.643 -26.232  13.266  0.00  0.00    +0.015 A 
ATOM     35  C   LIG    1       18.345 -25.951  13.696  0.00  0.00    +0.001 A 
ATOM     36  C   LIG    1       17.797 -26.679  14.747  0.00  0.00    +0.000 A 
ATOM     37  C   LIG    1       18.557 -27.669  15.381  0.00  0.00    +0.001 A 
ATOM     38  C   LIG    1       19.860 -27.954  14.948  0.00  0.00    +0.015 A 
ENDBRANCH  31  33
ENDBRANCH  30  31
ENDBRANCH  20  30
TORSDOF 7
ENDMDL
