MODEL 1
REMARK VINA RESULT:      -3.2      0.000      0.000
REMARK  Name = *****
REMARK                            x       y       z     vdW  Elec       q    Type
REMARK                         _______ _______ _______ _____ _____    ______ ____
ROOT
ATOM      1  C   LIG    1       24.766 -20.806   6.902  0.00  0.00    +0.138 C 
ATOM      2  N   LIG    1       24.846 -20.171   5.594  0.00  0.00    -0.272 N 
ATOM      3  C   LIG    1       26.088 -20.219   4.951  0.00  0.00    +0.241 C 
ATOM      4  O   LIG    1       27.088 -20.712   5.484  0.00  0.00    -0.273 OA
ATOM      5  C   LIG    1       26.147 -19.730   3.510  0.00  0.00    +0.238 C 
ATOM      6  N   LIG    1       25.989 -18.279   3.486  0.00  0.00    -0.273 NA
ATOM      7  C   LIG    1       24.828 -17.793   3.768  0.00  0.00    +0.075 C 
ATOM      8  C   LIG    1       23.622 -18.625   4.056  0.00  0.00    +0.023 A 
ATOM      9  C   LIG    1       22.425 -18.259   3.415  0.00  0.00    +0.032 A 
ATOM     10  C   LIG    1       21.239 -18.913   3.722  0.00  0.00    +0.042 A 
ATOM     11 CL   LIG    1       19.777 -18.450   2.947  0.00  0.00    -0.084 Cl
ATOM     12  C   LIG    1       21.229 -19.932   4.665  0.00  0.00    +0.022 A 
ATOM     13  C   LIG    1       22.422 -20.316   5.285  0.00  0.00    +0.025 A 
ATOM     14  C   LIG    1       23.647 -19.694   4.975  0.00  0.00    +0.045 A 
ENDROOT
BRANCH   7  15
ATOM     15  C   LIG    1       24.698 -16.300   3.798  0.00  0.00    +0.001 A 
ATOM     16  C   LIG    1       23.560 -15.677   4.328  0.00  0.00    +0.010 A 
ATOM     17  C   LIG    1       23.471 -14.283   4.343  0.00  0.00    +0.001 A 
ATOM     18  C   LIG    1       24.517 -13.510   3.843  0.00  0.00    +0.000 A 
ATOM     19  C   LIG    1       25.660 -14.125   3.334  0.00  0.00    +0.001 A 
ATOM     20  C   LIG    1       25.754 -15.517   3.316  0.00  0.00    +0.010 A 
ENDBRANCH   7  15
TORSDOF 1
ENDMDL
MODEL 2
REMARK VINA RESULT:      -2.3      2.965      5.221
REMARK  Name = *****
REMARK                            x       y       z     vdW  Elec       q    Type
REMARK                         _______ _______ _______ _____ _____    ______ ____
ROOT
ATOM      1  C   LIG    1       21.992 -18.179   4.968  0.00  0.00    +0.138 C 
ATOM      2  N   LIG    1       23.214 -18.628   4.315  0.00  0.00    -0.272 N 
ATOM      3  C   LIG    1       23.228 -19.950   3.855  0.00  0.00    +0.241 C 
ATOM      4  O   LIG    1       22.285 -20.725   4.050  0.00  0.00    -0.273 OA
ATOM      5  C   LIG    1       24.416 -20.381   3.006  0.00  0.00    +0.238 C 
ATOM      6  N   LIG    1       25.604 -20.472   3.849  0.00  0.00    -0.273 NA
ATOM      7  C   LIG    1       26.117 -19.373   4.290  0.00  0.00    +0.075 C 
ATOM      8  C   LIG    1       25.608 -18.015   3.939  0.00  0.00    +0.023 A 
ATOM      9  C   LIG    1       26.564 -17.051   3.569  0.00  0.00    +0.032 A 
ATOM     10  C   LIG    1       26.178 -15.735   3.343  0.00  0.00    +0.042 A 
ATOM     11 CL   LIG    1       27.353 -14.559   2.907  0.00  0.00    -0.084 Cl
ATOM     12  C   LIG    1       24.847 -15.366   3.479  0.00  0.00    +0.022 A 
ATOM     13  C   LIG    1       23.891 -16.328   3.821  0.00  0.00    +0.025 A 
ATOM     14  C   LIG    1       24.243 -17.675   4.029  0.00  0.00    +0.045 A 
ENDROOT
BRANCH   7  15
ATOM     15  C   LIG    1       27.301 -19.488   5.203  0.00  0.00    +0.001 A 
ATOM     16  C   LIG    1       28.388 -18.609   5.101  0.00  0.00    +0.010 A 
ATOM     17  C   LIG    1       29.475 -18.741   5.969  0.00  0.00    +0.001 A 
ATOM     18  C   LIG    1       29.475 -19.738   6.944  0.00  0.00    +0.000 A 
ATOM     19  C   LIG    1       28.387 -20.600   7.062  0.00  0.00    +0.001 A 
ATOM     20  C   LIG    1       27.298 -20.473   6.198  0.00  0.00    +0.010 A 
ENDBRANCH   7  15
TORSDOF 1
ENDMDL
