MODEL 1
REMARK VINA RESULT:       5.9      0.000      0.000
REMARK  Name = *****
REMARK                            x       y       z     vdW  Elec       q    Type
REMARK                         _______ _______ _______ _____ _____    ______ ____
ROOT
ATOM      1  C   LIG    1       29.132 -21.225   6.458  0.00  0.00    +0.105 C 
ATOM      2  N   LIG    1       28.010 -20.509   7.062  0.00  0.00    -0.305 NA
ATOM      3  C   LIG    1       27.971 -19.098   6.653  0.00  0.00    +0.088 C 
ATOM      4  C   LIG    1       27.567 -18.863   5.187  0.00  0.00    +0.047 C 
ATOM      5  C   LIG    1       26.252 -19.542   4.823  0.00  0.00    -0.059 C 
ATOM      6  C   LIG    1       25.218 -18.921   4.182  0.00  0.00    -0.010 C 
ATOM      7  C   LIG    1       23.952 -19.685   3.969  0.00  0.00    -0.014 A 
ATOM      8  C   LIG    1       22.779 -19.305   4.650  0.00  0.00    -0.039 A 
ATOM      9  C   LIG    1       21.605 -20.056   4.475  0.00  0.00    +0.004 A 
ATOM     10  C   LIG    1       21.594 -21.166   3.630  0.00  0.00    +0.000 A 
ATOM     11  C   LIG    1       22.745 -21.525   2.933  0.00  0.00    +0.001 A 
ATOM     12  C   LIG    1       22.773 -18.089   5.549  0.00  0.00    +0.041 C 
ATOM     13  C   LIG    1       22.939 -16.782   4.769  0.00  0.00    +0.048 C 
ATOM     14  C   LIG    1       24.273 -16.605   4.082  0.00  0.00    -0.002 A 
ATOM     15  S   LIG    1       24.684 -15.030   3.529  0.00  0.00    -0.101 S 
ATOM     16  C   LIG    1       26.140 -15.576   2.833  0.00  0.00    +0.046 A 
ATOM     17  C   LIG    1       26.311 -16.930   2.998  0.00  0.00    +0.016 A 
ATOM     18  C   LIG    1       23.915 -20.780   3.089  0.00  0.00    +0.009 A 
ATOM     19  C   LIG    1       25.268 -17.523   3.783  0.00  0.00    -0.007 A 
ATOM     20  C   LIG    1       26.241 -20.992   5.306  0.00  0.00    +0.047 C 
ATOM     21  C   LIG    1       26.719 -21.145   6.761  0.00  0.00    +0.088 C 
ENDROOT
TORSDOF 0
ENDMDL
MODEL 2
REMARK VINA RESULT:       6.7      2.552      5.346
REMARK  Name = *****
REMARK                            x       y       z     vdW  Elec       q    Type
REMARK                         _______ _______ _______ _____ _____    ______ ____
ROOT
ATOM      1  C   LIG    1       26.413 -14.145   2.609  0.00  0.00    +0.105 C 
ATOM      2  N   LIG    1       25.889 -14.669   3.869  0.00  0.00    -0.305 NA
ATOM      3  C   LIG    1       24.727 -15.545   3.662  0.00  0.00    +0.088 C 
ATOM      4  C   LIG    1       25.052 -16.905   3.020  0.00  0.00    +0.047 C 
ATOM      5  C   LIG    1       26.141 -17.663   3.768  0.00  0.00    -0.059 C 
ATOM      6  C   LIG    1       26.044 -18.972   4.149  0.00  0.00    -0.010 C 
ATOM      7  C   LIG    1       27.154 -19.561   4.957  0.00  0.00    -0.014 A 
ATOM      8  C   LIG    1       26.929 -19.927   6.299  0.00  0.00    -0.039 A 
ATOM      9  C   LIG    1       27.991 -20.441   7.062  0.00  0.00    +0.004 A 
ATOM     10  C   LIG    1       29.258 -20.595   6.498  0.00  0.00    +0.000 A 
ATOM     11  C   LIG    1       29.474 -20.262   5.163  0.00  0.00    +0.001 A 
ATOM     12  C   LIG    1       25.554 -19.788   6.913  0.00  0.00    +0.041 C 
ATOM     13  C   LIG    1       24.539 -20.760   6.307  0.00  0.00    +0.048 C 
ATOM     14  C   LIG    1       24.211 -20.527   4.851  0.00  0.00    -0.002 A 
ATOM     15  S   LIG    1       22.818 -21.304   4.211  0.00  0.00    -0.101 S 
ATOM     16  C   LIG    1       23.121 -20.715   2.642  0.00  0.00    +0.046 A 
ATOM     17  C   LIG    1       24.266 -19.955   2.591  0.00  0.00    +0.016 A 
ATOM     18  C   LIG    1       28.424 -19.761   4.391  0.00  0.00    +0.009 A 
ATOM     19  C   LIG    1       24.867 -19.782   3.882  0.00  0.00    -0.007 A 
ATOM     20  C   LIG    1       27.332 -16.751   4.061  0.00  0.00    +0.047 C 
ATOM     21  C   LIG    1       26.914 -15.387   4.641  0.00  0.00    +0.088 C 
ENDROOT
TORSDOF 0
ENDMDL
