MODEL 1
REMARK VINA RESULT:      -5.0      0.000      0.000
REMARK  Name = *****
REMARK                            x       y       z     vdW  Elec       q    Type
REMARK                         _______ _______ _______ _____ _____    ______ ____
ROOT
ATOM      1  C   LIG    1       23.833 -20.918   4.462  0.00  0.00    +0.318 C 
ATOM      2 CL   LIG    1       24.325 -19.375   3.663  0.00  0.00    -0.081 Cl
ENDROOT
BRANCH   1   3
ATOM      3  C   LIG    1       22.586 -20.722   5.356  0.00  0.00    +0.430 C 
ATOM      4  F   LIG    1       22.370 -19.402   5.583  0.00  0.00    -0.167 F 
ATOM      5  F   LIG    1       22.710 -21.304   6.574  0.00  0.00    -0.167 F 
ATOM      6  F   LIG    1       21.462 -21.229   4.798  0.00  0.00    -0.167 F 
ENDBRANCH   1   3
BRANCH   1   7
ATOM      7  O   LIG    1       25.004 -21.392   5.134  0.00  0.00    -0.294 OA
BRANCH   7   9
ATOM      8  F   LIG    1       25.412 -20.312   7.061  0.00  0.00    -0.178 F 
ATOM      9  C   LIG    1       25.719 -20.347   5.755  0.00  0.00    +0.484 C 
ATOM     10  F   LIG    1       27.040 -20.611   5.649  0.00  0.00    -0.178 F 
ENDBRANCH   7   9
ENDBRANCH   1   7
TORSDOF 3
ENDMDL
MODEL 2
REMARK VINA RESULT:      -5.0      0.104      1.212
REMARK  Name = *****
REMARK                            x       y       z     vdW  Elec       q    Type
REMARK                         _______ _______ _______ _____ _____    ______ ____
ROOT
ATOM      1  C   LIG    1       23.838 -20.953   4.500  0.00  0.00    +0.318 C 
ATOM      2 CL   LIG    1       24.368 -19.402   3.745  0.00  0.00    -0.081 Cl
ENDROOT
BRANCH   1   3
ATOM      3  C   LIG    1       22.585 -20.755   5.387  0.00  0.00    +0.430 C 
ATOM      4  F   LIG    1       22.725 -21.426   6.558  0.00  0.00    -0.167 F 
ATOM      5  F   LIG    1       21.450 -21.221   4.812  0.00  0.00    -0.167 F 
ATOM      6  F   LIG    1       22.361 -19.454   5.685  0.00  0.00    -0.167 F 
ENDBRANCH   1   3
BRANCH   1   7
ATOM      7  O   LIG    1       24.993 -21.466   5.173  0.00  0.00    -0.294 OA
BRANCH   7   9
ATOM      8  F   LIG    1       25.394 -20.320   7.062  0.00  0.00    -0.178 F 
ATOM      9  C   LIG    1       25.754 -20.443   5.775  0.00  0.00    +0.484 C 
ATOM     10  F   LIG    1       27.056 -20.804   5.744  0.00  0.00    -0.178 F 
ENDBRANCH   7   9
ENDBRANCH   1   7
TORSDOF 3
ENDMDL
MODEL 3
REMARK VINA RESULT:      -4.9      1.764      2.109
REMARK  Name = *****
REMARK                            x       y       z     vdW  Elec       q    Type
REMARK                         _______ _______ _______ _____ _____    ______ ____
ROOT
ATOM      1  C   LIG    1       23.796 -20.417   5.856  0.00  0.00    +0.318 C 
ATOM      2 CL   LIG    1       23.103 -21.572   7.058  0.00  0.00    -0.081 Cl
ENDROOT
BRANCH   1   3
ATOM      3  C   LIG    1       22.700 -19.836   4.930  0.00  0.00    +0.430 C 
ATOM      4  F   LIG    1       23.196 -19.627   3.684  0.00  0.00    -0.167 F 
ATOM      5  F   LIG    1       22.224 -18.641   5.357  0.00  0.00    -0.167 F 
ATOM      6  F   LIG    1       21.631 -20.657   4.811  0.00  0.00    -0.167 F 
ENDBRANCH   1   3
BRANCH   1   7
ATOM      7  O   LIG    1       24.842 -21.135   5.194  0.00  0.00    -0.294 OA
BRANCH   7   9
ATOM      8  F   LIG    1       26.076 -19.383   4.523  0.00  0.00    -0.178 F 
ATOM      9  C   LIG    1       26.085 -20.478   5.299  0.00  0.00    +0.484 C 
ATOM     10  F   LIG    1       26.249 -20.074   6.579  0.00  0.00    -0.178 F 
ENDBRANCH   7   9
ENDBRANCH   1   7
TORSDOF 3
ENDMDL
MODEL 4
REMARK VINA RESULT:      -4.7      6.776      7.840
REMARK  Name = *****
REMARK                            x       y       z     vdW  Elec       q    Type
REMARK                         _______ _______ _______ _____ _____    ______ ____
ROOT
ATOM      1  C   LIG    1       25.859 -14.064   4.174  0.00  0.00    +0.318 C 
ATOM      2 CL   LIG    1       26.730 -13.401   5.609  0.00  0.00    -0.081 Cl
ENDROOT
BRANCH   1   3
ATOM      3  C   LIG    1       26.727 -15.089   3.405  0.00  0.00    +0.430 C 
ATOM      4  F   LIG    1       27.097 -14.584   2.201  0.00  0.00    -0.167 F 
ATOM      5  F   LIG    1       26.076 -16.249   3.151  0.00  0.00    -0.167 F 
ATOM      6  F   LIG    1       27.856 -15.418   4.075  0.00  0.00    -0.167 F 
ENDBRANCH   1   3
BRANCH   1   7
ATOM      7  O   LIG    1       25.441 -12.922   3.418  0.00  0.00    -0.294 OA
BRANCH   7   9
ATOM      8  F   LIG    1       23.519 -14.063   3.635  0.00  0.00    -0.178 F 
ATOM      9  C   LIG    1       24.046 -12.903   3.214  0.00  0.00    +0.484 C 
ATOM     10  F   LIG    1       23.517 -11.913   3.967  0.00  0.00    -0.178 F 
ENDBRANCH   7   9
ENDBRANCH   1   7
TORSDOF 3
ENDMDL
MODEL 5
REMARK VINA RESULT:      -4.7      6.791      7.856
REMARK  Name = *****
REMARK                            x       y       z     vdW  Elec       q    Type
REMARK                         _______ _______ _______ _____ _____    ______ ____
ROOT
ATOM      1  C   LIG    1       25.879 -14.052   4.215  0.00  0.00    +0.318 C 
ATOM      2 CL   LIG    1       26.784 -13.423   5.645  0.00  0.00    -0.081 Cl
ENDROOT
BRANCH   1   3
ATOM      3  C   LIG    1       26.729 -15.057   3.402  0.00  0.00    +0.430 C 
ATOM      4  F   LIG    1       27.862 -15.373   4.079  0.00  0.00    -0.167 F 
ATOM      5  F   LIG    1       27.125 -14.567   2.202  0.00  0.00    -0.167 F 
ATOM      6  F   LIG    1       26.069 -16.211   3.149  0.00  0.00    -0.167 F 
ENDBRANCH   1   3
BRANCH   1   7
ATOM      7  O   LIG    1       25.443 -12.893   3.497  0.00  0.00    -0.294 OA
BRANCH   7   9
ATOM      8  F   LIG    1       23.533 -14.050   3.737  0.00  0.00    -0.178 F 
ATOM      9  C   LIG    1       24.063 -12.934   3.213  0.00  0.00    +0.484 C 
ATOM     10  F   LIG    1       23.471 -11.876   3.811  0.00  0.00    -0.178 F 
ENDBRANCH   7   9
ENDBRANCH   1   7
TORSDOF 3
ENDMDL
MODEL 6
REMARK VINA RESULT:      -4.7      1.938      2.570
REMARK  Name = *****
REMARK                            x       y       z     vdW  Elec       q    Type
REMARK                         _______ _______ _______ _____ _____    ______ ____
ROOT
ATOM      1  C   LIG    1       24.411 -20.446   5.457  0.00  0.00    +0.318 C 
ATOM      2 CL   LIG    1       25.409 -21.572   6.454  0.00  0.00    -0.081 Cl
ENDROOT
BRANCH   1   3
ATOM      3  C   LIG    1       22.916 -20.507   5.854  0.00  0.00    +0.430 C 
ATOM      4  F   LIG    1       22.773 -21.108   7.062  0.00  0.00    -0.167 F 
ATOM      5  F   LIG    1       22.165 -21.220   4.980  0.00  0.00    -0.167 F 
ATOM      6  F   LIG    1       22.351 -19.281   5.938  0.00  0.00    -0.167 F 
ENDBRANCH   1   3
BRANCH   1   7
ATOM      7  O   LIG    1       24.700 -20.781   4.096  0.00  0.00    -0.294 OA
BRANCH   7   9
ATOM      8  F   LIG    1       23.652 -18.967   3.288  0.00  0.00    -0.178 F 
ATOM      9  C   LIG    1       24.815 -19.637   3.281  0.00  0.00    +0.484 C 
ATOM     10  F   LIG    1       25.759 -18.827   3.809  0.00  0.00    -0.178 F 
ENDBRANCH   7   9
ENDBRANCH   1   7
TORSDOF 3
ENDMDL
MODEL 7
REMARK VINA RESULT:      -4.7      6.848      7.349
REMARK  Name = *****
REMARK                            x       y       z     vdW  Elec       q    Type
REMARK                         _______ _______ _______ _____ _____    ______ ____
ROOT
ATOM      1  C   LIG    1       25.547 -14.137   3.896  0.00  0.00    +0.318 C 
ATOM      2 CL   LIG    1       26.109 -13.822   2.210  0.00  0.00    -0.081 Cl
ENDROOT
BRANCH   1   3
ATOM      3  C   LIG    1       24.056 -13.763   4.077  0.00  0.00    +0.430 C 
ATOM      4  F   LIG    1       23.455 -13.621   2.869  0.00  0.00    -0.167 F 
ATOM      5  F   LIG    1       23.880 -12.590   4.733  0.00  0.00    -0.167 F 
ATOM      6  F   LIG    1       23.366 -14.699   4.769  0.00  0.00    -0.167 F 
ENDBRANCH   1   3
BRANCH   1   7
ATOM      7  O   LIG    1       26.464 -13.438   4.744  0.00  0.00    -0.294 OA
BRANCH   7   9
ATOM      8  F   LIG    1       28.528 -12.574   4.932  0.00  0.00    -0.178 F 
ATOM      9  C   LIG    1       27.765 -13.403   4.203  0.00  0.00    +0.484 C 
ATOM     10  F   LIG    1       28.299 -14.641   4.293  0.00  0.00    -0.178 F 
ENDBRANCH   7   9
ENDBRANCH   1   7
TORSDOF 3
ENDMDL
MODEL 8
REMARK VINA RESULT:      -4.6      7.158      7.615
REMARK  Name = *****
REMARK                            x       y       z     vdW  Elec       q    Type
REMARK                         _______ _______ _______ _____ _____    ______ ____
ROOT
ATOM      1  C   LIG    1       25.173 -13.262   2.886  0.00  0.00    +0.318 C 
ATOM      2 CL   LIG    1       24.538 -11.955   1.815  0.00  0.00    -0.081 Cl
ENDROOT
BRANCH   1   3
ATOM      3  C   LIG    1       24.618 -13.138   4.325  0.00  0.00    +0.430 C 
ATOM      4  F   LIG    1       23.694 -12.145   4.390  0.00  0.00    -0.167 F 
ATOM      5  F   LIG    1       25.572 -12.833   5.237  0.00  0.00    -0.167 F 
ATOM      6  F   LIG    1       24.024 -14.276   4.753  0.00  0.00    -0.167 F 
ENDBRANCH   1   3
BRANCH   1   7
ATOM      7  O   LIG    1       26.598 -13.195   2.769  0.00  0.00    -0.294 OA
BRANCH   7   9
ATOM      8  F   LIG    1       27.799 -14.477   4.168  0.00  0.00    -0.178 F 
ATOM      9  C   LIG    1       27.206 -14.452   2.965  0.00  0.00    +0.484 C 
ATOM     10  F   LIG    1       26.242 -15.399   2.961  0.00  0.00    -0.178 F 
ENDBRANCH   7   9
ENDBRANCH   1   7
TORSDOF 3
ENDMDL
MODEL 9
REMARK VINA RESULT:      -4.6      2.096      2.668
REMARK  Name = *****
REMARK                            x       y       z     vdW  Elec       q    Type
REMARK                         _______ _______ _______ _____ _____    ______ ____
ROOT
ATOM      1  C   LIG    1       24.252 -20.089   5.129  0.00  0.00    +0.318 C 
ATOM      2 CL   LIG    1       22.692 -20.757   5.746  0.00  0.00    -0.081 Cl
ENDROOT
BRANCH   1   3
ATOM      3  C   LIG    1       24.092 -19.485   3.713  0.00  0.00    +0.430 C 
ATOM      4  F   LIG    1       22.869 -18.914   3.579  0.00  0.00    -0.167 F 
ATOM      5  F   LIG    1       24.192 -20.411   2.729  0.00  0.00    -0.167 F 
ATOM      6  F   LIG    1       25.018 -18.536   3.446  0.00  0.00    -0.167 F 
ENDBRANCH   1   3
BRANCH   1   7
ATOM      7  O   LIG    1       25.197 -21.158   5.239  0.00  0.00    -0.294 OA
BRANCH   7   9
ATOM      8  F   LIG    1       27.059 -19.905   5.179  0.00  0.00    -0.178 F 
ATOM      9  C   LIG    1       26.361 -20.768   5.932  0.00  0.00    +0.484 C 
ATOM     10  F   LIG    1       25.991 -20.124   7.062  0.00  0.00    -0.178 F 
ENDBRANCH   7   9
ENDBRANCH   1   7
TORSDOF 3
ENDMDL
