MODEL 1
REMARK VINA RESULT:       3.4      0.000      0.000
REMARK  Name = *****
REMARK                            x       y       z     vdW  Elec       q    Type
REMARK                         _______ _______ _______ _____ _____    ______ ____
ROOT
ATOM      1  C   LIG    1       23.787 -19.441   4.875  0.00  0.00    -0.017 A 
ATOM      2  C   LIG    1       25.179 -19.266   4.781  0.00  0.00    +0.120 A 
ATOM      3  C   LIG    1       25.722 -18.041   4.345  0.00  0.00    +0.034 A 
ATOM      4  C   LIG    1       24.916 -16.934   4.013  0.00  0.00    -0.036 A 
ATOM      5  C   LIG    1       25.546 -15.597   3.549  0.00  0.00    -0.003 C 
ATOM      6  C   LIG    1       26.112 -15.875   2.127  0.00  0.00    +0.016 C 
ATOM      7  C   LIG    1       24.505 -14.399   3.449  0.00  0.00    +0.016 C 
ATOM      8  C   LIG    1       23.177 -14.683   4.176  0.00  0.00    +0.010 C 
ATOM      9  C   LIG    1       22.590 -16.004   3.716  0.00  0.00    +0.036 C 
ATOM     10  C   LIG    1       25.062 -12.970   3.821  0.00  0.00    +0.068 C 
ATOM     11  C   LIG    1       24.879 -12.618   5.322  0.00  0.00    +0.023 C 
ATOM     12  C   LIG    1       26.558 -12.854   3.479  0.00  0.00    +0.018 C 
ATOM     13  C   LIG    1       27.423 -13.894   4.175  0.00  0.00    +0.002 C 
ATOM     14  C   LIG    1       26.717 -15.212   4.492  0.00  0.00    +0.012 C 
ATOM     15  C   LIG    1       23.528 -17.112   4.090  0.00  0.00    -0.043 A 
ATOM     16  C   LIG    1       22.986 -18.345   4.502  0.00  0.00    +0.009 A 
ENDROOT
BRANCH   1  18
ATOM     17  C   LIG    1       21.681 -20.864   4.803  0.00  0.00    +0.012 C 
ATOM     18  C   LIG    1       23.101 -20.711   5.364  0.00  0.00    +0.015 C 
ATOM     19  C   LIG    1       23.070 -20.756   6.897  0.00  0.00    +0.012 C 
ENDBRANCH   1  18
BRANCH   2  20
ATOM     20  S   LIG    1       26.347 -20.547   5.202  0.00  0.00    +0.110 S 
ATOM     21  O   LIG    1       26.296 -21.572   4.180  0.00  0.00    -0.142 OA
ATOM     22  O   LIG    1       26.171 -20.873   6.601  0.00  0.00    -0.142 OA
BRANCH  20  23
ATOM     23  O   LIG    1       27.800 -19.874   5.013  0.00  0.00    -0.250 OA
ATOM     24  H   LIG    1       28.286 -19.995   5.858  0.00  0.00    +0.245 HD
ENDBRANCH  20  23
ENDBRANCH   2  20
BRANCH  10  25
ATOM     25  C   LIG    1       24.301 -11.893   3.016  0.00  0.00    +0.311 C 
ATOM     26  O   LIG    1       24.668 -11.447   1.937  0.00  0.00    -0.250 OA
BRANCH  25  27
ATOM     27  O   LIG    1       23.161 -11.447   3.591  0.00  0.00    -0.480 OA
ATOM     28  H   LIG    1       22.829 -11.971   4.340  0.00  0.00    +0.295 HD
ENDBRANCH  25  27
ENDBRANCH  10  25
TORSDOF 5
ENDMDL
MODEL 2
REMARK VINA RESULT:       3.8      2.572      6.922
REMARK  Name = *****
REMARK                            x       y       z     vdW  Elec       q    Type
REMARK                         _______ _______ _______ _____ _____    ______ ____
ROOT
ATOM      1  C   LIG    1       24.443 -13.678   3.945  0.00  0.00    -0.017 A 
ATOM      2  C   LIG    1       25.559 -14.366   3.438  0.00  0.00    +0.120 A 
ATOM      3  C   LIG    1       25.634 -15.772   3.515  0.00  0.00    +0.034 A 
ATOM      4  C   LIG    1       24.601 -16.553   4.068  0.00  0.00    -0.036 A 
ATOM      5  C   LIG    1       24.709 -18.097   4.126  0.00  0.00    -0.003 C 
ATOM      6  C   LIG    1       25.793 -18.398   5.199  0.00  0.00    +0.016 C 
ATOM      7  C   LIG    1       23.359 -18.819   4.560  0.00  0.00    +0.016 C 
ATOM      8  C   LIG    1       22.124 -17.902   4.475  0.00  0.00    +0.010 C 
ATOM      9  C   LIG    1       22.365 -16.612   5.235  0.00  0.00    +0.036 C 
ATOM     10  C   LIG    1       23.078 -20.216   3.884  0.00  0.00    +0.068 C 
ATOM     11  C   LIG    1       22.254 -20.102   2.573  0.00  0.00    +0.023 C 
ATOM     12  C   LIG    1       24.392 -20.950   3.562  0.00  0.00    +0.018 C 
ATOM     13  C   LIG    1       25.320 -20.162   2.649  0.00  0.00    +0.002 C 
ATOM     14  C   LIG    1       25.191 -18.643   2.754  0.00  0.00    +0.012 C 
ATOM     15  C   LIG    1       23.495 -15.868   4.589  0.00  0.00    -0.043 A 
ATOM     16  C   LIG    1       23.432 -14.462   4.533  0.00  0.00    +0.009 A 
ENDROOT
BRANCH   1  18
ATOM     17  C   LIG    1       23.505 -11.621   5.108  0.00  0.00    +0.012 C 
ATOM     18  C   LIG    1       24.251 -12.168   3.883  0.00  0.00    +0.015 C 
ATOM     19  C   LIG    1       23.517 -11.766   2.597  0.00  0.00    +0.012 C 
ENDBRANCH   1  18
BRANCH   2  20
ATOM     20  S   LIG    1       26.939 -13.540   2.667  0.00  0.00    +0.110 S 
ATOM     21  O   LIG    1       26.485 -12.264   2.154  0.00  0.00    -0.142 OA
ATOM     22  O   LIG    1       27.613 -14.494   1.812  0.00  0.00    -0.142 OA
BRANCH  20  23
ATOM     23  O   LIG    1       27.930 -13.148   3.877  0.00  0.00    -0.250 OA
ATOM     24  H   LIG    1       28.846 -13.203   3.529  0.00  0.00    +0.245 HD
ENDBRANCH  20  23
ENDBRANCH   2  20
BRANCH  10  25
ATOM     25  C   LIG    1       22.259 -21.101   4.849  0.00  0.00    +0.311 C 
ATOM     26  O   LIG    1       22.656 -21.488   5.940  0.00  0.00    -0.250 OA
BRANCH  25  27
ATOM     27  O   LIG    1       21.028 -21.445   4.406  0.00  0.00    -0.480 OA
ATOM     28  H   LIG    1       20.367 -20.731   4.387  0.00  0.00    +0.295 HD
ENDBRANCH  25  27
ENDBRANCH  10  25
TORSDOF 5
ENDMDL
MODEL 3
REMARK VINA RESULT:       4.4      1.369      1.759
REMARK  Name = *****
REMARK                            x       y       z     vdW  Elec       q    Type
REMARK                         _______ _______ _______ _____ _____    ______ ____
ROOT
ATOM      1  C   LIG    1       25.714 -19.418   4.615  0.00  0.00    -0.017 A 
ATOM      2  C   LIG    1       26.979 -18.845   4.829  0.00  0.00    +0.120 A 
ATOM      3  C   LIG    1       27.217 -17.490   4.525  0.00  0.00    +0.034 A 
ATOM      4  C   LIG    1       26.209 -16.641   4.028  0.00  0.00    -0.036 A 
ATOM      5  C   LIG    1       26.499 -15.151   3.716  0.00  0.00    -0.003 C 
ATOM      6  C   LIG    1       27.405 -15.160   2.452  0.00  0.00    +0.016 C 
ATOM      7  C   LIG    1       25.196 -14.298   3.393  0.00  0.00    +0.016 C 
ATOM      8  C   LIG    1       23.889 -14.999   3.812  0.00  0.00    +0.010 C 
ATOM      9  C   LIG    1       23.827 -16.398   3.231  0.00  0.00    +0.036 C 
ATOM     10  C   LIG    1       25.218 -12.798   3.881  0.00  0.00    +0.068 C 
ATOM     11  C   LIG    1       24.630 -12.614   5.307  0.00  0.00    +0.023 C 
ATOM     12  C   LIG    1       26.650 -12.235   3.876  0.00  0.00    +0.018 C 
ATOM     13  C   LIG    1       27.618 -13.027   4.743  0.00  0.00    +0.002 C 
ATOM     14  C   LIG    1       27.281 -14.510   4.894  0.00  0.00    +0.012 C 
ATOM     15  C   LIG    1       24.951 -17.214   3.798  0.00  0.00    -0.043 A 
ATOM     16  C   LIG    1       24.722 -18.575   4.079  0.00  0.00    +0.009 A 
ENDROOT
BRANCH   1  18
ATOM     17  C   LIG    1       24.344 -21.450   3.936  0.00  0.00    +0.012 C 
ATOM     18  C   LIG    1       25.346 -20.861   4.939  0.00  0.00    +0.015 C 
ATOM     19  C   LIG    1       24.791 -20.973   6.365  0.00  0.00    +0.012 C 
ENDBRANCH   1  18
BRANCH   2  20
ATOM     20  S   LIG    1       28.358 -19.762   5.492  0.00  0.00    +0.110 S 
ATOM     21  O   LIG    1       29.475 -18.856   5.666  0.00  0.00    -0.142 OA
ATOM     22  O   LIG    1       28.495 -20.983   4.727  0.00  0.00    -0.142 OA
BRANCH  20  23
ATOM     23  O   LIG    1       27.927 -20.149   6.997  0.00  0.00    -0.250 OA
ATOM     24  H   LIG    1       26.970 -20.368   6.976  0.00  0.00    +0.245 HD
ENDBRANCH  20  23
ENDBRANCH   2  20
BRANCH  10  25
ATOM     25  C   LIG    1       24.359 -11.933   2.933  0.00  0.00    +0.311 C 
ATOM     26  O   LIG    1       24.704 -11.583   1.812  0.00  0.00    -0.250 OA
BRANCH  25  27
ATOM     27  O   LIG    1       23.155 -11.564   3.425  0.00  0.00    -0.480 OA
ATOM     28  H   LIG    1       22.632 -10.963   2.867  0.00  0.00    +0.295 HD
ENDBRANCH  25  27
ENDBRANCH  10  25
TORSDOF 5
ENDMDL
MODEL 4
REMARK VINA RESULT:       6.4      3.104      4.079
REMARK  Name = *****
REMARK                            x       y       z     vdW  Elec       q    Type
REMARK                         _______ _______ _______ _____ _____    ______ ____
ROOT
ATOM      1  C   LIG    1       23.398 -19.200   3.812  0.00  0.00    -0.017 A 
ATOM      2  C   LIG    1       22.465 -18.149   3.827  0.00  0.00    +0.120 A 
ATOM      3  C   LIG    1       22.889 -16.812   3.963  0.00  0.00    +0.034 A 
ATOM      4  C   LIG    1       24.249 -16.458   4.057  0.00  0.00    -0.036 A 
ATOM      5  C   LIG    1       24.683 -14.976   4.192  0.00  0.00    -0.003 C 
ATOM      6  C   LIG    1       24.256 -14.547   5.625  0.00  0.00    +0.016 C 
ATOM      7  C   LIG    1       26.251 -14.752   4.048  0.00  0.00    +0.016 C 
ATOM      8  C   LIG    1       26.986 -15.961   3.438  0.00  0.00    +0.010 C 
ATOM      9  C   LIG    1       26.647 -17.228   4.198  0.00  0.00    +0.036 C 
ATOM     10  C   LIG    1       26.691 -13.407   3.350  0.00  0.00    +0.068 C 
ATOM     11  C   LIG    1       26.864 -13.548   1.813  0.00  0.00    +0.023 C 
ATOM     12  C   LIG    1       25.673 -12.285   3.617  0.00  0.00    +0.018 C 
ATOM     13  C   LIG    1       24.263 -12.620   3.150  0.00  0.00    +0.002 C 
ATOM     14  C   LIG    1       23.919 -14.109   3.156  0.00  0.00    +0.012 C 
ATOM     15  C   LIG    1       25.180 -17.505   4.059  0.00  0.00    -0.043 A 
ATOM     16  C   LIG    1       24.754 -18.842   3.949  0.00  0.00    +0.009 A 
ENDROOT
BRANCH   1  18
ATOM     17  C   LIG    1       22.668 -21.345   4.966  0.00  0.00    +0.012 C 
ATOM     18  C   LIG    1       23.048 -20.673   3.639  0.00  0.00    +0.015 C 
ATOM     19  C   LIG    1       24.204 -21.432   2.975  0.00  0.00    +0.012 C 
ENDBRANCH   1  18
BRANCH   2  20
ATOM     20  S   LIG    1       20.707 -18.412   3.675  0.00  0.00    +0.110 S 
ATOM     21  O   LIG    1       20.019 -17.342   4.367  0.00  0.00    -0.142 OA
ATOM     22  O   LIG    1       20.433 -19.800   3.979  0.00  0.00    -0.142 OA
BRANCH  20  23
ATOM     23  O   LIG    1       20.372 -18.154   2.119  0.00  0.00    -0.250 OA
ATOM     24  H   LIG    1       20.513 -19.004   1.648  0.00  0.00    +0.245 HD
ENDBRANCH  20  23
ENDBRANCH   2  20
BRANCH  10  25
ATOM     25  C   LIG    1       28.059 -12.958   3.911  0.00  0.00    +0.311 C 
ATOM     26  O   LIG    1       28.224 -12.464   5.018  0.00  0.00    -0.250 OA
BRANCH  25  27
ATOM     27  O   LIG    1       29.108 -13.143   3.079  0.00  0.00    -0.480 OA
ATOM     28  H   LIG    1       29.985 -13.172   3.500  0.00  0.00    +0.295 HD
ENDBRANCH  25  27
ENDBRANCH  10  25
TORSDOF 5
ENDMDL
