MODEL 1
REMARK VINA RESULT:      -9.7      0.000      0.000
REMARK  Name = *****
REMARK                            x       y       z     vdW  Elec       q    Type
REMARK                         _______ _______ _______ _____ _____    ______ ____
ROOT
ATOM      1  C   LIG    1       25.729 -26.571   5.692  0.00  0.00    +0.007 C 
ENDROOT
BRANCH   1   2
ATOM      2  C   LIG    1       24.452 -27.447   5.573  0.00  0.00    +0.041 C 
BRANCH   2   3
ATOM      3  C   LIG    1       24.777 -28.850   5.270  0.00  0.00    +0.232 C 
BRANCH   3   4
ATOM      4  O   LIG    1       25.127 -29.358   6.848  0.00  0.00    -0.465 OA
BRANCH   4   5
ATOM      5  C   LIG    1       25.579 -29.614   8.345  0.00  0.00    +0.312 C 
ATOM      6  O   LIG    1       25.564 -30.804   8.562  0.00  0.00    -0.251 OA
BRANCH   5   7
ATOM      7  C   LIG    1       26.343 -28.421   9.672  0.00  0.00    +0.171 C 
BRANCH   7   8
ATOM      8  C   LIG    1       26.151 -28.365  11.730  0.00  0.00    +0.145 C 
BRANCH   8   9
ATOM      9  N   LIG    1       26.996 -28.499  13.018  0.00  0.00    +0.247 N 
ATOM     10  C   LIG    1       28.208 -29.338  12.941  0.00  0.00    +0.193 C 
ATOM     11  C   LIG    1       26.051 -29.130  14.186  0.00  0.00    +0.102 C 
ATOM     12  C   LIG    1       24.788 -28.296  14.346  0.00  0.00    +0.008 A 
ATOM     13  C   LIG    1       24.686 -27.030  13.824  0.00  0.00    -0.030 A 
ATOM     14  C   LIG    1       23.410 -26.586  13.375  0.00  0.00    +0.053 A 
ATOM     15  C   LIG    1       22.187 -27.287  13.623  0.00  0.00    +0.162 A 
ATOM     16  C   LIG    1       22.319 -28.338  14.529  0.00  0.00    +0.162 A 
ATOM     17  C   LIG    1       26.021 -26.338  13.766  0.00  0.00    +0.086 C 
ATOM     18  C   LIG    1       23.634 -28.810  14.840  0.00  0.00    +0.059 A 
ATOM     19  C   LIG    1       27.155 -27.001  13.020  0.00  0.00    +0.138 C 
BRANCH  15  20
ATOM     20  O   LIG    1       21.105 -26.775  12.949  0.00  0.00    -0.491 OA
ATOM     21  C   LIG    1       19.731 -26.710  13.385  0.00  0.00    +0.277 C 
ENDBRANCH  15  20
BRANCH  16  22
ATOM     22  O   LIG    1       21.261 -28.988  15.137  0.00  0.00    -0.491 OA
ATOM     23  C   LIG    1       21.231 -30.354  14.686  0.00  0.00    +0.277 C 
ENDBRANCH  16  22
BRANCH  11  24
ATOM     24  C   LIG    1       25.776 -30.784  14.068  0.00  0.00    +0.095 C 
BRANCH  24  25
ATOM     25  C   LIG    1       24.939 -31.476  12.952  0.00  0.00    -0.038 A 
ATOM     26  C   LIG    1       23.959 -30.831  12.129  0.00  0.00    +0.053 A 
ATOM     27  C   LIG    1       23.210 -31.375  11.025  0.00  0.00    +0.162 A 
ATOM     28  C   LIG    1       23.459 -32.691  10.788  0.00  0.00    +0.162 A 
ATOM     29  C   LIG    1       24.316 -33.407  11.683  0.00  0.00    +0.050 A 
ATOM     30  C   LIG    1       25.017 -32.844  12.761  0.00  0.00    +0.007 A 
BRANCH  28  31
ATOM     31  O   LIG    1       22.651 -33.327   9.887  0.00  0.00    -0.491 OA
ATOM     32  C   LIG    1       23.418 -33.449   8.696  0.00  0.00    +0.277 C 
ENDBRANCH  28  31
BRANCH  27  33
ATOM     33  O   LIG    1       22.167 -30.649  10.484  0.00  0.00    -0.491 OA
ATOM     34  C   LIG    1       20.890 -30.180  11.059  0.00  0.00    +0.277 C 
ENDBRANCH  27  33
ENDBRANCH  24  25
ENDBRANCH  11  24
ENDBRANCH   8   9
ENDBRANCH   7   8
ENDBRANCH   5   7
ENDBRANCH   4   5
ENDBRANCH   3   4
ENDBRANCH   2   3
ENDBRANCH   1   2
BRANCH   1  35
ATOM     35  C   LIG    1       25.819 -25.585   6.926  0.00  0.00    +0.041 C 
BRANCH  35  36
ATOM     36  C   LIG    1       25.652 -23.971   7.098  0.00  0.00    +0.232 C 
BRANCH  36  37
ATOM     37  O   LIG    1       24.790 -22.887   7.708  0.00  0.00    -0.465 OA
BRANCH  37  38
ATOM     38  C   LIG    1       25.052 -21.727   8.369  0.00  0.00    +0.312 C 
ATOM     39  O   LIG    1       25.821 -21.596   9.316  0.00  0.00    -0.251 OA
BRANCH  38  40
ATOM     40  C   LIG    1       24.474 -20.473   7.635  0.00  0.00    +0.171 C 
BRANCH  40  41
ATOM     41  C   LIG    1       23.853 -20.429   6.184  0.00  0.00    +0.145 C 
BRANCH  41  43
ATOM     42  C   LIG    1       26.153 -20.144   4.747  0.00  0.00    +0.102 C 
ATOM     43  N   LIG    1       24.603 -20.840   4.846  0.00  0.00    +0.247 N 
ATOM     44  C   LIG    1       24.709 -22.363   4.680  0.00  0.00    +0.193 C 
ATOM     45  C   LIG    1       23.820 -20.621   3.567  0.00  0.00    +0.138 C 
ATOM     46  C   LIG    1       23.450 -19.260   3.449  0.00  0.00    +0.086 C 
ATOM     47  C   LIG    1       24.758 -18.581   3.491  0.00  0.00    -0.030 A 
ATOM     48  C   LIG    1       24.794 -17.366   3.354  0.00  0.00    +0.053 A 
ATOM     49  C   LIG    1       25.786 -15.875   3.531  0.00  0.00    +0.162 A 
ATOM     50  C   LIG    1       26.988 -15.760   3.544  0.00  0.00    +0.162 A 
ATOM     51  C   LIG    1       26.984 -17.489   3.921  0.00  0.00    +0.059 A 
ATOM     52  C   LIG    1       25.964 -18.764   3.991  0.00  0.00    +0.008 A 
BRANCH  50  53
ATOM     53  O   LIG    1       26.977 -14.569   4.783  0.00  0.00    -0.491 OA
ATOM     54  C   LIG    1       27.789 -13.580   5.418  0.00  0.00    +0.277 C 
ENDBRANCH  50  53
BRANCH  49  55
ATOM     55  O   LIG    1       24.729 -14.350   4.006  0.00  0.00    -0.491 OA
ATOM     56  C   LIG    1       23.723 -13.790   3.326  0.00  0.00    +0.277 C 
ENDBRANCH  49  55
BRANCH  42  57
ATOM     57  C   LIG    1       26.981 -20.609   6.095  0.00  0.00    +0.095 C 
BRANCH  57  61
ATOM     58  C   LIG    1       30.987 -19.117   7.395  0.00  0.00    +0.162 A 
ATOM     59  C   LIG    1       30.337 -20.149   8.074  0.00  0.00    +0.162 A 
ATOM     60  C   LIG    1       29.080 -20.666   7.609  0.00  0.00    +0.053 A 
ATOM     61  C   LIG    1       28.418 -20.166   6.485  0.00  0.00    -0.038 A 
ATOM     62  C   LIG    1       29.131 -19.144   5.808  0.00  0.00    +0.007 A 
ATOM     63  C   LIG    1       30.427 -18.713   6.183  0.00  0.00    +0.050 A 
BRANCH  58  65
ATOM     64  C   LIG    1       32.022 -17.504   8.855  0.00  0.00    +0.277 C 
ATOM     65  O   LIG    1       32.130 -18.454   7.776  0.00  0.00    -0.491 OA
ENDBRANCH  58  65
BRANCH  59  66
ATOM     66  O   LIG    1       30.756 -20.721   9.247  0.00  0.00    -0.491 OA
ATOM     67  C   LIG    1       31.374 -22.003   9.203  0.00  0.00    +0.277 C 
ENDBRANCH  59  66
ENDBRANCH  57  61
ENDBRANCH  42  57
ENDBRANCH  41  43
ENDBRANCH  40  41
ENDBRANCH  38  40
ENDBRANCH  37  38
ENDBRANCH  36  37
ENDBRANCH  35  36
ENDBRANCH   1  35
TORSDOF 26
ENDMDL
MODEL 2
REMARK VINA RESULT:      -8.9      1.785      4.320
REMARK  Name = *****
REMARK                            x       y       z     vdW  Elec       q    Type
REMARK                         _______ _______ _______ _____ _____    ______ ____
ROOT
ATOM      1  C   LIG    1       24.385 -25.702   5.807  0.00  0.00    +0.007 C 
ENDROOT
BRANCH   1   2
ATOM      2  C   LIG    1       24.352 -27.246   5.643  0.00  0.00    +0.041 C 
BRANCH   2   3
ATOM      3  C   LIG    1       25.492 -27.893   6.313  0.00  0.00    +0.232 C 
BRANCH   3   4
ATOM      4  O   LIG    1       24.617 -28.977   7.276  0.00  0.00    -0.465 OA
BRANCH   4   5
ATOM      5  C   LIG    1       24.007 -30.133   8.172  0.00  0.00    +0.312 C 
ATOM      6  O   LIG    1       24.213 -31.197   7.633  0.00  0.00    -0.251 OA
BRANCH   5   7
ATOM      7  C   LIG    1       23.283 -30.109   9.972  0.00  0.00    +0.171 C 
BRANCH   7   8
ATOM      8  C   LIG    1       21.655 -31.075  10.804  0.00  0.00    +0.145 C 
BRANCH   8   9
ATOM      9  N   LIG    1       20.915 -32.432  10.762  0.00  0.00    +0.247 N 
ATOM     10  C   LIG    1       19.455 -32.393  10.551  0.00  0.00    +0.193 C 
ATOM     11  C   LIG    1       21.173 -33.200  12.177  0.00  0.00    +0.102 C 
ATOM     12  C   LIG    1       22.666 -33.306  12.450  0.00  0.00    +0.008 A 
ATOM     13  C   LIG    1       23.599 -33.100  11.464  0.00  0.00    -0.030 A 
ATOM     14  C   LIG    1       24.852 -32.530  11.829  0.00  0.00    +0.053 A 
ATOM     15  C   LIG    1       25.286 -32.352  13.181  0.00  0.00    +0.162 A 
ATOM     16  C   LIG    1       24.467 -32.981  14.118  0.00  0.00    +0.162 A 
ATOM     17  C   LIG    1       23.073 -33.479  10.106  0.00  0.00    +0.086 C 
ATOM     18  C   LIG    1       23.169 -33.421  13.705  0.00  0.00    +0.059 A 
ATOM     19  C   LIG    1       21.800 -32.832   9.611  0.00  0.00    +0.138 C 
BRANCH  15  20
ATOM     20  O   LIG    1       26.444 -31.624  13.303  0.00  0.00    -0.491 OA
ATOM     21  C   LIG    1       26.639 -30.363  13.977  0.00  0.00    +0.277 C 
ENDBRANCH  15  20
BRANCH  16  22
ATOM     22  O   LIG    1       24.807 -33.189  15.442  0.00  0.00    -0.491 OA
ATOM     23  C   LIG    1       26.098 -33.823  15.499  0.00  0.00    +0.277 C 
ENDBRANCH  16  22
BRANCH  11  24
ATOM     24  C   LIG    1       20.271 -32.628  13.474  0.00  0.00    +0.095 C 
BRANCH  24  25
ATOM     25  C   LIG    1       20.114 -31.128  13.865  0.00  0.00    -0.038 A 
ATOM     26  C   LIG    1       21.163 -30.283  14.353  0.00  0.00    +0.053 A 
ATOM     27  C   LIG    1       21.121 -28.874  14.651  0.00  0.00    +0.162 A 
ATOM     28  C   LIG    1       19.895 -28.313  14.478  0.00  0.00    +0.162 A 
ATOM     29  C   LIG    1       18.788 -29.155  14.139  0.00  0.00    +0.050 A 
ATOM     30  C   LIG    1       18.866 -30.531  13.871  0.00  0.00    +0.007 A 
BRANCH  28  31
ATOM     31  O   LIG    1       19.726 -27.031  14.922  0.00  0.00    -0.491 OA
ATOM     32  C   LIG    1       18.746 -26.450  14.070  0.00  0.00    +0.277 C 
ENDBRANCH  28  31
BRANCH  27  33
ATOM     33  O   LIG    1       22.187 -28.282  15.300  0.00  0.00    -0.491 OA
ATOM     34  C   LIG    1       23.626 -28.613  15.337  0.00  0.00    +0.277 C 
ENDBRANCH  27  33
ENDBRANCH  24  25
ENDBRANCH  11  24
ENDBRANCH   8   9
ENDBRANCH   7   8
ENDBRANCH   5   7
ENDBRANCH   4   5
ENDBRANCH   3   4
ENDBRANCH   2   3
ENDBRANCH   1   2
BRANCH   1  35
ATOM     35  C   LIG    1       25.597 -25.084   6.614  0.00  0.00    +0.041 C 
BRANCH  35  36
ATOM     36  C   LIG    1       25.854 -23.647   7.342  0.00  0.00    +0.232 C 
BRANCH  36  37
ATOM     37  O   LIG    1       25.377 -22.732   8.448  0.00  0.00    -0.465 OA
BRANCH  37  38
ATOM     38  C   LIG    1       24.987 -21.430   8.500  0.00  0.00    +0.312 C 
ATOM     39  O   LIG    1       25.582 -20.522   9.072  0.00  0.00    -0.251 OA
BRANCH  38  40
ATOM     40  C   LIG    1       23.813 -21.113   7.515  0.00  0.00    +0.171 C 
BRANCH  40  41
ATOM     41  C   LIG    1       23.908 -20.309   6.160  0.00  0.00    +0.145 C 
BRANCH  41  43
ATOM     42  C   LIG    1       26.265 -20.027   4.819  0.00  0.00    +0.102 C 
ATOM     43  N   LIG    1       24.729 -20.756   4.877  0.00  0.00    +0.247 N 
ATOM     44  C   LIG    1       24.878 -22.282   4.780  0.00  0.00    +0.193 C 
ATOM     45  C   LIG    1       24.002 -20.610   3.554  0.00  0.00    +0.138 C 
ATOM     46  C   LIG    1       23.607 -19.264   3.362  0.00  0.00    +0.086 C 
ATOM     47  C   LIG    1       24.895 -18.552   3.435  0.00  0.00    -0.030 A 
ATOM     48  C   LIG    1       24.910 -17.344   3.248  0.00  0.00    +0.053 A 
ATOM     49  C   LIG    1       25.859 -15.822   3.407  0.00  0.00    +0.162 A 
ATOM     50  C   LIG    1       27.055 -15.677   3.471  0.00  0.00    +0.162 A 
ATOM     51  C   LIG    1       27.073 -17.389   3.921  0.00  0.00    +0.059 A 
ATOM     52  C   LIG    1       26.081 -18.684   3.998  0.00  0.00    +0.008 A 
BRANCH  50  53
ATOM     53  O   LIG    1       26.959 -14.436   4.656  0.00  0.00    -0.491 OA
ATOM     54  C   LIG    1       27.706 -13.784   5.683  0.00  0.00    +0.277 C 
ENDBRANCH  50  53
BRANCH  49  55
ATOM     55  O   LIG    1       24.745 -14.306   3.768  0.00  0.00    -0.491 OA
ATOM     56  C   LIG    1       23.492 -14.285   4.233  0.00  0.00    +0.277 C 
ENDBRANCH  49  55
BRANCH  42  57
ATOM     57  C   LIG    1       27.039 -20.414   6.223  0.00  0.00    +0.095 C 
BRANCH  57  61
ATOM     58  C   LIG    1       31.082 -19.033   7.535  0.00  0.00    +0.162 A 
ATOM     59  C   LIG    1       30.429 -20.091   8.172  0.00  0.00    +0.162 A 
ATOM     60  C   LIG    1       29.159 -20.570   7.700  0.00  0.00    +0.053 A 
ATOM     61  C   LIG    1       28.487 -20.008   6.612  0.00  0.00    -0.038 A 
ATOM     62  C   LIG    1       29.202 -18.961   5.976  0.00  0.00    +0.007 A 
ATOM     63  C   LIG    1       30.508 -18.564   6.353  0.00  0.00    +0.050 A 
BRANCH  58  65
ATOM     64  C   LIG    1       32.133 -17.410   8.972  0.00  0.00    +0.277 C 
ATOM     65  O   LIG    1       32.237 -18.403   7.931  0.00  0.00    -0.491 OA
ENDBRANCH  58  65
BRANCH  59  66
ATOM     66  O   LIG    1       30.858 -20.725   9.308  0.00  0.00    -0.491 OA
ATOM     67  C   LIG    1       31.394 -22.040   9.199  0.00  0.00    +0.277 C 
ENDBRANCH  59  66
ENDBRANCH  57  61
ENDBRANCH  42  57
ENDBRANCH  41  43
ENDBRANCH  40  41
ENDBRANCH  38  40
ENDBRANCH  37  38
ENDBRANCH  36  37
ENDBRANCH  35  36
ENDBRANCH   1  35
TORSDOF 26
ENDMDL
MODEL 3
REMARK VINA RESULT:      -8.8      1.790      4.222
REMARK  Name = *****
REMARK                            x       y       z     vdW  Elec       q    Type
REMARK                         _______ _______ _______ _____ _____    ______ ____
ROOT
ATOM      1  C   LIG    1       24.664 -26.696   5.783  0.00  0.00    +0.007 C 
ENDROOT
BRANCH   1   2
ATOM      2  C   LIG    1       24.393 -28.144   6.272  0.00  0.00    +0.041 C 
BRANCH   2   3
ATOM      3  C   LIG    1       25.355 -28.564   7.304  0.00  0.00    +0.232 C 
BRANCH   3   4
ATOM      4  O   LIG    1       24.262 -29.317   8.355  0.00  0.00    -0.465 OA
BRANCH   4   5
ATOM      5  C   LIG    1       23.391 -30.224   9.320  0.00  0.00    +0.312 C 
ATOM      6  O   LIG    1       23.192 -31.290   8.783  0.00  0.00    -0.251 OA
BRANCH   5   7
ATOM      7  C   LIG    1       22.877 -29.989  11.177  0.00  0.00    +0.171 C 
BRANCH   7   8
ATOM      8  C   LIG    1       21.026 -29.718  12.058  0.00  0.00    +0.145 C 
BRANCH   8   9
ATOM      9  N   LIG    1       20.269 -30.008  13.375  0.00  0.00    +0.247 N 
ATOM     10  C   LIG    1       19.685 -28.851  14.081  0.00  0.00    +0.193 C 
ATOM     11  C   LIG    1       21.301 -30.730  14.410  0.00  0.00    +0.102 C 
ATOM     12  C   LIG    1       21.924 -31.956  13.759  0.00  0.00    +0.008 A 
ATOM     13  C   LIG    1       21.395 -32.521  12.624  0.00  0.00    -0.030 A 
ATOM     14  C   LIG    1       22.284 -33.135  11.697  0.00  0.00    +0.053 A 
ATOM     15  C   LIG    1       23.667 -33.390  11.966  0.00  0.00    +0.162 A 
ATOM     16  C   LIG    1       24.026 -33.181  13.296  0.00  0.00    +0.162 A 
ATOM     17  C   LIG    1       19.905 -32.322  12.541  0.00  0.00    +0.086 C 
ATOM     18  C   LIG    1       23.129 -32.449  14.138  0.00  0.00    +0.059 A 
ATOM     19  C   LIG    1       19.353 -30.917  12.598  0.00  0.00    +0.138 C 
BRANCH  15  20
ATOM     20  O   LIG    1       24.376 -33.823  10.872  0.00  0.00    -0.491 OA
ATOM     21  C   LIG    1       25.579 -33.261  10.308  0.00  0.00    +0.277 C 
ENDBRANCH  15  20
BRANCH  16  22
ATOM     22  O   LIG    1       25.211 -33.607  13.866  0.00  0.00    -0.491 OA
ATOM     23  C   LIG    1       25.042 -33.685  15.293  0.00  0.00    +0.277 C 
ENDBRANCH  16  22
BRANCH  11  24
ATOM     24  C   LIG    1       22.407 -29.703  15.148  0.00  0.00    +0.095 C 
BRANCH  24  25
ATOM     25  C   LIG    1       23.511 -28.891  14.407  0.00  0.00    -0.038 A 
ATOM     26  C   LIG    1       24.854 -29.334  14.178  0.00  0.00    +0.053 A 
ATOM     27  C   LIG    1       25.902 -28.686  13.431  0.00  0.00    +0.162 A 
ATOM     28  C   LIG    1       25.547 -27.474  12.926  0.00  0.00    +0.162 A 
ATOM     29  C   LIG    1       24.266 -26.931  13.261  0.00  0.00    +0.050 A 
ATOM     30  C   LIG    1       23.275 -27.587  14.008  0.00  0.00    +0.007 A 
BRANCH  28  31
ATOM     31  O   LIG    1       26.539 -26.713  12.373  0.00  0.00    -0.491 OA
ATOM     32  C   LIG    1       26.709 -25.602  13.245  0.00  0.00    +0.277 C 
ENDBRANCH  28  31
BRANCH  27  33
ATOM     33  O   LIG    1       27.189 -29.181  13.493  0.00  0.00    -0.491 OA
ATOM     34  C   LIG    1       28.221 -29.379  12.453  0.00  0.00    +0.277 C 
ENDBRANCH  27  33
ENDBRANCH  24  25
ENDBRANCH  11  24
ENDBRANCH   8   9
ENDBRANCH   7   8
ENDBRANCH   5   7
ENDBRANCH   4   5
ENDBRANCH   3   4
ENDBRANCH   2   3
ENDBRANCH   1   2
BRANCH   1  35
ATOM     35  C   LIG    1       25.575 -25.780   6.697  0.00  0.00    +0.041 C 
BRANCH  35  36
ATOM     36  C   LIG    1       25.636 -24.175   6.983  0.00  0.00    +0.232 C 
BRANCH  36  37
ATOM     37  O   LIG    1       24.818 -22.973   7.402  0.00  0.00    -0.465 OA
BRANCH  37  38
ATOM     38  C   LIG    1       25.054 -21.897   8.201  0.00  0.00    +0.312 C 
ATOM     39  O   LIG    1       25.823 -21.864   9.156  0.00  0.00    -0.251 OA
BRANCH  38  40
ATOM     40  C   LIG    1       24.442 -20.577   7.627  0.00  0.00    +0.171 C 
BRANCH  40  41
ATOM     41  C   LIG    1       23.950 -20.328   6.148  0.00  0.00    +0.145 C 
BRANCH  41  43
ATOM     42  C   LIG    1       26.279 -20.055   4.757  0.00  0.00    +0.102 C 
ATOM     43  N   LIG    1       24.729 -20.753   4.832  0.00  0.00    +0.247 N 
ATOM     44  C   LIG    1       24.841 -22.278   4.686  0.00  0.00    +0.193 C 
ATOM     45  C   LIG    1       23.973 -20.552   3.533  0.00  0.00    +0.138 C 
ATOM     46  C   LIG    1       23.603 -19.193   3.390  0.00  0.00    +0.086 C 
ATOM     47  C   LIG    1       24.908 -18.511   3.452  0.00  0.00    -0.030 A 
ATOM     48  C   LIG    1       24.945 -17.297   3.301  0.00  0.00    +0.053 A 
ATOM     49  C   LIG    1       25.930 -15.802   3.481  0.00  0.00    +0.162 A 
ATOM     50  C   LIG    1       27.131 -15.684   3.518  0.00  0.00    +0.162 A 
ATOM     51  C   LIG    1       27.123 -17.409   3.917  0.00  0.00    +0.059 A 
ATOM     52  C   LIG    1       26.104 -18.684   3.980  0.00  0.00    +0.008 A 
BRANCH  50  53
ATOM     53  O   LIG    1       27.091 -14.478   4.742  0.00  0.00    -0.491 OA
ATOM     54  C   LIG    1       27.928 -13.679   5.579  0.00  0.00    +0.277 C 
ENDBRANCH  50  53
BRANCH  49  55
ATOM     55  O   LIG    1       24.860 -14.274   3.915  0.00  0.00    -0.491 OA
ATOM     56  C   LIG    1       23.539 -14.212   4.117  0.00  0.00    +0.277 C 
ENDBRANCH  49  55
BRANCH  42  57
ATOM     57  C   LIG    1       27.079 -20.501   6.128  0.00  0.00    +0.095 C 
BRANCH  57  61
ATOM     58  C   LIG    1       31.002 -18.932   7.581  0.00  0.00    +0.162 A 
ATOM     59  C   LIG    1       30.425 -20.079   8.131  0.00  0.00    +0.162 A 
ATOM     60  C   LIG    1       29.197 -20.612   7.612  0.00  0.00    +0.053 A 
ATOM     61  C   LIG    1       28.491 -20.021   6.562  0.00  0.00    -0.038 A 
ATOM     62  C   LIG    1       29.130 -18.880   6.013  0.00  0.00    +0.007 A 
ATOM     63  C   LIG    1       30.402 -18.418   6.432  0.00  0.00    +0.050 A 
BRANCH  58  65
ATOM     64  C   LIG    1       31.883 -17.111   8.890  0.00  0.00    +0.277 C 
ATOM     65  O   LIG    1       32.107 -18.251   8.036  0.00  0.00    -0.491 OA
ENDBRANCH  58  65
BRANCH  59  66
ATOM     66  O   LIG    1       30.894 -20.764   9.222  0.00  0.00    -0.491 OA
ATOM     67  C   LIG    1       30.798 -22.184   9.233  0.00  0.00    +0.277 C 
ENDBRANCH  59  66
ENDBRANCH  57  61
ENDBRANCH  42  57
ENDBRANCH  41  43
ENDBRANCH  40  41
ENDBRANCH  38  40
ENDBRANCH  37  38
ENDBRANCH  36  37
ENDBRANCH  35  36
ENDBRANCH   1  35
TORSDOF 26
ENDMDL
