MODEL 1
REMARK VINA RESULT:      -9.7      0.000      0.000
REMARK  Name = *****
REMARK                            x       y       z     vdW  Elec       q    Type
REMARK                         _______ _______ _______ _____ _____    ______ ____
ROOT
ATOM      1  C   LIG    1       25.407 -21.709   6.793  0.00  0.00    +0.256 C 
ATOM      2  N   LIG    1       26.807 -21.413   6.571  0.00  0.00    -0.180 N 
ATOM      3  C   LIG    1       26.968 -20.350   5.732  0.00  0.00    +0.318 C 
ATOM      4  N   LIG    1       28.101 -19.714   5.729  0.00  0.00    -0.079 NA
ATOM      5  C   LIG    1       28.880 -20.493   6.764  0.00  0.00    +0.334 C 
ATOM      6  C   LIG    1       25.721 -20.054   5.062  0.00  0.00    +0.075 A 
ATOM      7  C   LIG    1       25.420 -19.151   4.067  0.00  0.00    +0.016 A 
ATOM      8  C   LIG    1       24.084 -19.080   3.667  0.00  0.00    +0.001 A 
ATOM      9  C   LIG    1       23.104 -19.892   4.274  0.00  0.00    +0.001 A 
ATOM     10  C   LIG    1       23.436 -20.791   5.296  0.00  0.00    +0.012 A 
ATOM     11  C   LIG    1       27.860 -21.373   7.539  0.00  0.00    +0.279 C 
ATOM     12  C   LIG    1       24.763 -20.872   5.689  0.00  0.00    +0.045 A 
ENDROOT
BRANCH   1  13
ATOM     13  C   LIG    1       25.122 -23.199   6.688  0.00  0.00    +0.031 A 
ATOM     14  C   LIG    1       23.804 -23.678   6.562  0.00  0.00    +0.012 A 
ATOM     15  C   LIG    1       23.542 -25.045   6.438  0.00  0.00    +0.020 A 
ATOM     16  C   LIG    1       24.595 -25.955   6.434  0.00  0.00    +0.041 A 
ATOM     17 CL   LIG    1       24.271 -27.637   6.280  0.00  0.00    -0.084 Cl
ATOM     18  C   LIG    1       25.909 -25.510   6.549  0.00  0.00    +0.020 A 
ATOM     19  C   LIG    1       26.170 -24.142   6.671  0.00  0.00    +0.012 A 
ENDBRANCH   1  13
BRANCH   1  20
ATOM     20  O   LIG    1       25.017 -21.186   8.051  0.00  0.00    -0.346 OA
ATOM     21  H   LIG    1       25.701 -20.535   8.273  0.00  0.00    +0.215 HD
ENDBRANCH   1  20
TORSDOF 2
ENDMDL
MODEL 2
REMARK VINA RESULT:      -8.7      2.973      5.498
REMARK  Name = *****
REMARK                            x       y       z     vdW  Elec       q    Type
REMARK                         _______ _______ _______ _____ _____    ______ ____
ROOT
ATOM      1  C   LIG    1       25.617 -20.979   6.485  0.00  0.00    +0.256 C 
ATOM      2  N   LIG    1       25.135 -20.640   5.162  0.00  0.00    -0.180 N 
ATOM      3  C   LIG    1       24.585 -21.720   4.537  0.00  0.00    +0.318 C 
ATOM      4  N   LIG    1       23.775 -21.527   3.539  0.00  0.00    -0.079 NA
ATOM      5  C   LIG    1       23.768 -20.017   3.452  0.00  0.00    +0.334 C 
ATOM      6  C   LIG    1       24.944 -22.933   5.236  0.00  0.00    +0.075 A 
ATOM      7  C   LIG    1       24.712 -24.257   4.932  0.00  0.00    +0.016 A 
ATOM      8  C   LIG    1       25.157 -25.201   5.859  0.00  0.00    +0.001 A 
ATOM      9  C   LIG    1       25.798 -24.799   7.049  0.00  0.00    +0.001 A 
ATOM     10  C   LIG    1       26.005 -23.446   7.341  0.00  0.00    +0.012 A 
ATOM     11  C   LIG    1       24.398 -19.479   4.767  0.00  0.00    +0.279 C 
ATOM     12  C   LIG    1       25.575 -22.505   6.418  0.00  0.00    +0.045 A 
ENDROOT
BRANCH   1  13
ATOM     13  C   LIG    1       27.003 -20.408   6.744  0.00  0.00    +0.031 A 
ATOM     14  C   LIG    1       27.522 -20.328   8.050  0.00  0.00    +0.012 A 
ATOM     15  C   LIG    1       28.806 -19.829   8.288  0.00  0.00    +0.020 A 
ATOM     16  C   LIG    1       29.593 -19.405   7.220  0.00  0.00    +0.041 A 
ATOM     17 CL   LIG    1       31.172 -18.792   7.514  0.00  0.00    -0.084 Cl
ATOM     18  C   LIG    1       29.109 -19.479   5.917  0.00  0.00    +0.020 A 
ATOM     19  C   LIG    1       27.825 -19.980   5.681  0.00  0.00    +0.012 A 
ENDBRANCH   1  13
BRANCH   1  20
ATOM     20  O   LIG    1       24.677 -20.535   7.448  0.00  0.00    -0.346 OA
ATOM     21  H   LIG    1       24.356 -19.685   7.109  0.00  0.00    +0.215 HD
ENDBRANCH   1  20
TORSDOF 2
ENDMDL
MODEL 3
REMARK VINA RESULT:      -8.3      2.866      5.472
REMARK  Name = *****
REMARK                            x       y       z     vdW  Elec       q    Type
REMARK                         _______ _______ _______ _____ _____    ______ ____
ROOT
ATOM      1  C   LIG    1       25.385 -21.834   7.318  0.00  0.00    +0.256 C 
ATOM      2  N   LIG    1       24.384 -21.277   6.433  0.00  0.00    -0.180 N 
ATOM      3  C   LIG    1       23.602 -22.250   5.883  0.00  0.00    +0.318 C 
ATOM      4  N   LIG    1       22.444 -21.927   5.391  0.00  0.00    -0.079 NA
ATOM      5  C   LIG    1       22.421 -20.437   5.644  0.00  0.00    +0.334 C 
ATOM      6  C   LIG    1       24.212 -23.546   6.083  0.00  0.00    +0.075 A 
ATOM      7  C   LIG    1       23.853 -24.796   5.627  0.00  0.00    +0.016 A 
ATOM      8  C   LIG    1       24.642 -25.867   6.048  0.00  0.00    +0.001 A 
ATOM      9  C   LIG    1       25.739 -25.662   6.910  0.00  0.00    +0.001 A 
ATOM     10  C   LIG    1       26.071 -24.383   7.372  0.00  0.00    +0.012 A 
ATOM     11  C   LIG    1       23.564 -20.124   6.649  0.00  0.00    +0.279 C 
ATOM     12  C   LIG    1       25.297 -23.314   6.947  0.00  0.00    +0.045 A 
ENDROOT
BRANCH   1  13
ATOM     13  C   LIG    1       26.754 -21.216   7.082  0.00  0.00    +0.031 A 
ATOM     14  C   LIG    1       26.982 -20.353   5.993  0.00  0.00    +0.012 A 
ATOM     15  C   LIG    1       28.233 -19.764   5.789  0.00  0.00    +0.020 A 
ATOM     16  C   LIG    1       29.275 -20.025   6.675  0.00  0.00    +0.041 A 
ATOM     17 CL   LIG    1       30.813 -19.298   6.423  0.00  0.00    -0.084 Cl
ATOM     18  C   LIG    1       29.077 -20.868   7.764  0.00  0.00    +0.020 A 
ATOM     19  C   LIG    1       27.825 -21.456   7.967  0.00  0.00    +0.012 A 
ENDBRANCH   1  13
BRANCH   1  20
ATOM     20  O   LIG    1       24.958 -21.672   8.660  0.00  0.00    -0.346 OA
ATOM     21  H   LIG    1       25.626 -22.134   9.190  0.00  0.00    +0.215 HD
ENDBRANCH   1  20
TORSDOF 2
ENDMDL
MODEL 4
REMARK VINA RESULT:      -7.9      3.030      4.904
REMARK  Name = *****
REMARK                            x       y       z     vdW  Elec       q    Type
REMARK                         _______ _______ _______ _____ _____    ______ ____
ROOT
ATOM      1  C   LIG    1       25.129 -21.184   5.358  0.00  0.00    +0.256 C 
ATOM      2  N   LIG    1       24.252 -21.983   6.187  0.00  0.00    -0.180 N 
ATOM      3  C   LIG    1       22.942 -21.657   5.991  0.00  0.00    +0.318 C 
ATOM      4  N   LIG    1       22.022 -22.506   6.339  0.00  0.00    -0.079 NA
ATOM      5  C   LIG    1       22.858 -23.638   6.892  0.00  0.00    +0.334 C 
ATOM      6  C   LIG    1       22.845 -20.404   5.276  0.00  0.00    +0.075 A 
ATOM      7  C   LIG    1       21.752 -19.635   4.942  0.00  0.00    +0.016 A 
ATOM      8  C   LIG    1       22.001 -18.483   4.193  0.00  0.00    +0.001 A 
ATOM      9  C   LIG    1       23.312 -18.149   3.796  0.00  0.00    +0.001 A 
ATOM     10  C   LIG    1       24.403 -18.959   4.135  0.00  0.00    +0.012 A 
ATOM     11  C   LIG    1       24.323 -23.389   6.439  0.00  0.00    +0.279 C 
ATOM     12  C   LIG    1       24.162 -20.098   4.888  0.00  0.00    +0.045 A 
ENDROOT
BRANCH   1  13
ATOM     13  C   LIG    1       26.320 -20.654   6.143  0.00  0.00    +0.031 A 
ATOM     14  C   LIG    1       26.335 -20.690   7.550  0.00  0.00    +0.012 A 
ATOM     15  C   LIG    1       27.439 -20.228   8.273  0.00  0.00    +0.020 A 
ATOM     16  C   LIG    1       28.548 -19.727   7.597  0.00  0.00    +0.041 A 
ATOM     17 CL   LIG    1       29.906 -19.160   8.487  0.00  0.00    -0.084 Cl
ATOM     18  C   LIG    1       28.564 -19.686   6.206  0.00  0.00    +0.020 A 
ATOM     19  C   LIG    1       27.460 -20.149   5.485  0.00  0.00    +0.012 A 
ENDBRANCH   1  13
BRANCH   1  20
ATOM     20  O   LIG    1       25.536 -21.951   4.238  0.00  0.00    -0.346 OA
ATOM     21  H   LIG    1       25.765 -22.821   4.603  0.00  0.00    +0.215 HD
ENDBRANCH   1  20
TORSDOF 2
ENDMDL
MODEL 5
REMARK VINA RESULT:      -7.3      6.091      9.684
REMARK  Name = *****
REMARK                            x       y       z     vdW  Elec       q    Type
REMARK                         _______ _______ _______ _____ _____    ______ ____
ROOT
ATOM      1  C   LIG    1       24.474 -30.185   6.663  0.00  0.00    +0.256 C 
ATOM      2  N   LIG    1       25.561 -31.025   6.209  0.00  0.00    -0.180 N 
ATOM      3  C   LIG    1       25.793 -32.056   7.071  0.00  0.00    +0.318 C 
ATOM      4  N   LIG    1       26.441 -33.100   6.649  0.00  0.00    -0.079 NA
ATOM      5  C   LIG    1       26.719 -32.713   5.213  0.00  0.00    +0.334 C 
ATOM      6  C   LIG    1       25.119 -31.812   8.327  0.00  0.00    +0.075 A 
ATOM      7  C   LIG    1       25.139 -32.507   9.516  0.00  0.00    +0.016 A 
ATOM      8  C   LIG    1       24.323 -32.023  10.540  0.00  0.00    +0.001 A 
ATOM      9  C   LIG    1       23.514 -30.885  10.343  0.00  0.00    +0.001 A 
ATOM     10  C   LIG    1       23.500 -30.208   9.117  0.00  0.00    +0.012 A 
ATOM     11  C   LIG    1       25.810 -31.498   4.881  0.00  0.00    +0.279 C 
ATOM     12  C   LIG    1       24.317 -30.678   8.101  0.00  0.00    +0.045 A 
ENDROOT
BRANCH   1  13
ATOM     13  C   LIG    1       24.817 -28.707   6.549  0.00  0.00    +0.031 A 
ATOM     14  C   LIG    1       24.158 -27.879   5.621  0.00  0.00    +0.012 A 
ATOM     15  C   LIG    1       24.454 -26.515   5.533  0.00  0.00    +0.020 A 
ATOM     16  C   LIG    1       25.411 -25.958   6.377  0.00  0.00    +0.041 A 
ATOM     17 CL   LIG    1       25.773 -24.281   6.268  0.00  0.00    -0.084 Cl
ATOM     18  C   LIG    1       26.073 -26.752   7.309  0.00  0.00    +0.020 A 
ATOM     19  C   LIG    1       25.776 -28.115   7.397  0.00  0.00    +0.012 A 
ENDBRANCH   1  13
BRANCH   1  20
ATOM     20  O   LIG    1       23.301 -30.510   5.937  0.00  0.00    -0.346 OA
ATOM     21  H   LIG    1       23.280 -31.480   5.920  0.00  0.00    +0.215 HD
ENDBRANCH   1  20
TORSDOF 2
ENDMDL
MODEL 6
REMARK VINA RESULT:      -7.2      5.920      9.589
REMARK  Name = *****
REMARK                            x       y       z     vdW  Elec       q    Type
REMARK                         _______ _______ _______ _____ _____    ______ ____
ROOT
ATOM      1  C   LIG    1       25.242 -29.917   7.460  0.00  0.00    +0.256 C 
ATOM      2  N   LIG    1       24.086 -30.247   8.266  0.00  0.00    -0.180 N 
ATOM      3  C   LIG    1       23.576 -31.469   7.936  0.00  0.00    +0.318 C 
ATOM      4  N   LIG    1       22.810 -32.084   8.786  0.00  0.00    -0.079 NA
ATOM      5  C   LIG    1       22.777 -31.092   9.926  0.00  0.00    +0.334 C 
ATOM      6  C   LIG    1       24.129 -31.911   6.675  0.00  0.00    +0.075 A 
ATOM      7  C   LIG    1       23.846 -33.014   5.899  0.00  0.00    +0.016 A 
ATOM      8  C   LIG    1       24.606 -33.177   4.740  0.00  0.00    +0.001 A 
ATOM      9  C   LIG    1       25.619 -32.256   4.404  0.00  0.00    +0.001 A 
ATOM     10  C   LIG    1       25.897 -31.152   5.221  0.00  0.00    +0.012 A 
ATOM     11  C   LIG    1       23.918 -30.067   9.676  0.00  0.00    +0.279 C 
ATOM     12  C   LIG    1       25.137 -30.980   6.367  0.00  0.00    +0.045 A 
ENDROOT
BRANCH   1  13
ATOM     13  C   LIG    1       25.178 -28.488   6.942  0.00  0.00    +0.031 A 
ATOM     14  C   LIG    1       26.051 -27.499   7.433  0.00  0.00    +0.012 A 
ATOM     15  C   LIG    1       26.011 -26.191   6.939  0.00  0.00    +0.020 A 
ATOM     16  C   LIG    1       25.100 -25.854   5.942  0.00  0.00    +0.041 A 
ATOM     17 CL   LIG    1       25.053 -24.246   5.335  0.00  0.00    -0.084 Cl
ATOM     18  C   LIG    1       24.230 -26.814   5.432  0.00  0.00    +0.020 A 
ATOM     19  C   LIG    1       24.271 -28.121   5.926  0.00  0.00    +0.012 A 
ENDBRANCH   1  13
BRANCH   1  20
ATOM     20  O   LIG    1       26.417 -30.150   8.216  0.00  0.00    -0.346 OA
ATOM     21  H   LIG    1       26.573 -31.105   8.144  0.00  0.00    +0.215 HD
ENDBRANCH   1  20
TORSDOF 2
ENDMDL
MODEL 7
REMARK VINA RESULT:      -7.0      6.802      9.058
REMARK  Name = *****
REMARK                            x       y       z     vdW  Elec       q    Type
REMARK                         _______ _______ _______ _____ _____    ______ ____
ROOT
ATOM      1  C   LIG    1       25.901 -29.663   9.086  0.00  0.00    +0.256 C 
ATOM      2  N   LIG    1       24.899 -30.697   8.944  0.00  0.00    -0.180 N 
ATOM      3  C   LIG    1       24.253 -30.610   7.745  0.00  0.00    +0.318 C 
ATOM      4  N   LIG    1       23.622 -31.651   7.291  0.00  0.00    -0.079 NA
ATOM      5  C   LIG    1       23.872 -32.653   8.395  0.00  0.00    +0.334 C 
ATOM      6  C   LIG    1       24.526 -29.332   7.128  0.00  0.00    +0.075 A 
ATOM      7  C   LIG    1       24.027 -28.755   5.981  0.00  0.00    +0.016 A 
ATOM      8  C   LIG    1       24.542 -27.505   5.632  0.00  0.00    +0.001 A 
ATOM      9  C   LIG    1       25.534 -26.887   6.420  0.00  0.00    +0.001 A 
ATOM     10  C   LIG    1       26.036 -27.504   7.573  0.00  0.00    +0.012 A 
ATOM     11  C   LIG    1       25.012 -32.083   9.283  0.00  0.00    +0.279 C 
ATOM     12  C   LIG    1       25.520 -28.740   7.929  0.00  0.00    +0.045 A 
ENDROOT
BRANCH   1  13
ATOM     13  C   LIG    1       25.838 -29.000  10.454  0.00  0.00    +0.031 A 
ATOM     14  C   LIG    1       26.854 -28.126  10.884  0.00  0.00    +0.012 A 
ATOM     15  C   LIG    1       26.785 -27.495  12.129  0.00  0.00    +0.020 A 
ATOM     16  C   LIG    1       25.695 -27.727  12.963  0.00  0.00    +0.041 A 
ATOM     17 CL   LIG    1       25.610 -26.949  14.495  0.00  0.00    -0.084 Cl
ATOM     18  C   LIG    1       24.671 -28.580  12.561  0.00  0.00    +0.020 A 
ATOM     19  C   LIG    1       24.741 -29.209  11.315  0.00  0.00    +0.012 A 
ENDBRANCH   1  13
BRANCH   1  20
ATOM     20  O   LIG    1       27.179 -30.217   8.828  0.00  0.00    -0.346 OA
ATOM     21  H   LIG    1       27.094 -31.156   9.057  0.00  0.00    +0.215 HD
ENDBRANCH   1  20
TORSDOF 2
ENDMDL
MODEL 8
REMARK VINA RESULT:      -7.0      2.794      5.326
REMARK  Name = *****
REMARK                            x       y       z     vdW  Elec       q    Type
REMARK                         _______ _______ _______ _____ _____    ______ ____
ROOT
ATOM      1  C   LIG    1       24.732 -21.571   7.021  0.00  0.00    +0.256 C 
ATOM      2  N   LIG    1       24.835 -22.926   6.521  0.00  0.00    -0.180 N 
ATOM      3  C   LIG    1       26.076 -23.449   6.742  0.00  0.00    +0.318 C 
ATOM      4  N   LIG    1       26.230 -24.739   6.720  0.00  0.00    -0.079 NA
ATOM      5  C   LIG    1       24.822 -25.199   6.417  0.00  0.00    +0.334 C 
ATOM      6  C   LIG    1       27.000 -22.397   7.101  0.00  0.00    +0.075 A 
ATOM      7  C   LIG    1       28.361 -22.421   7.315  0.00  0.00    +0.016 A 
ATOM      8  C   LIG    1       28.956 -21.219   7.701  0.00  0.00    +0.001 A 
ATOM      9  C   LIG    1       28.184 -20.052   7.872  0.00  0.00    +0.001 A 
ATOM     10  C   LIG    1       26.799 -20.060   7.664  0.00  0.00    +0.012 A 
ATOM     11  C   LIG    1       23.881 -23.985   6.650  0.00  0.00    +0.279 C 
ATOM     12  C   LIG    1       26.205 -21.249   7.270  0.00  0.00    +0.045 A 
ENDROOT
BRANCH   1  13
ATOM     13  C   LIG    1       24.057 -20.649   6.017  0.00  0.00    +0.031 A 
ATOM     14  C   LIG    1       24.671 -20.341   4.788  0.00  0.00    +0.012 A 
ATOM     15  C   LIG    1       24.041 -19.515   3.853  0.00  0.00    +0.020 A 
ATOM     16  C   LIG    1       22.783 -18.987   4.131  0.00  0.00    +0.041 A 
ATOM     17 CL   LIG    1       22.009 -17.972   2.979  0.00  0.00    -0.084 Cl
ATOM     18  C   LIG    1       22.149 -19.281   5.334  0.00  0.00    +0.020 A 
ATOM     19  C   LIG    1       22.780 -20.108   6.268  0.00  0.00    +0.012 A 
ENDBRANCH   1  13
BRANCH   1  20
ATOM     20  O   LIG    1       24.050 -21.586   8.263  0.00  0.00    -0.346 OA
ATOM     21  H   LIG    1       23.640 -22.465   8.311  0.00  0.00    +0.215 HD
ENDBRANCH   1  20
TORSDOF 2
ENDMDL
MODEL 9
REMARK VINA RESULT:      -7.0      6.829      9.031
REMARK  Name = *****
REMARK                            x       y       z     vdW  Elec       q    Type
REMARK                         _______ _______ _______ _____ _____    ______ ____
ROOT
ATOM      1  C   LIG    1       25.906 -29.630   9.170  0.00  0.00    +0.256 C 
ATOM      2  N   LIG    1       24.903 -30.667   9.050  0.00  0.00    -0.180 N 
ATOM      3  C   LIG    1       24.263 -30.610   7.846  0.00  0.00    +0.318 C 
ATOM      4  N   LIG    1       23.632 -31.661   7.417  0.00  0.00    -0.079 NA
ATOM      5  C   LIG    1       23.876 -32.635   8.547  0.00  0.00    +0.334 C 
ATOM      6  C   LIG    1       24.540 -29.348   7.197  0.00  0.00    +0.075 A 
ATOM      7  C   LIG    1       24.047 -28.800   6.033  0.00  0.00    +0.016 A 
ATOM      8  C   LIG    1       24.565 -27.561   5.654  0.00  0.00    +0.001 A 
ATOM      9  C   LIG    1       25.555 -26.923   6.431  0.00  0.00    +0.001 A 
ATOM     10  C   LIG    1       26.050 -27.511   7.601  0.00  0.00    +0.012 A 
ATOM     11  C   LIG    1       25.013 -32.043   9.425  0.00  0.00    +0.279 C 
ATOM     12  C   LIG    1       25.531 -28.737   7.987  0.00  0.00    +0.045 A 
ENDROOT
BRANCH   1  13
ATOM     13  C   LIG    1       25.838 -28.932  10.519  0.00  0.00    +0.031 A 
ATOM     14  C   LIG    1       24.747 -29.134  11.386  0.00  0.00    +0.012 A 
ATOM     15  C   LIG    1       24.695 -28.514  12.638  0.00  0.00    +0.020 A 
ATOM     16  C   LIG    1       25.737 -27.684  13.044  0.00  0.00    +0.041 A 
ATOM     17 CL   LIG    1       25.673 -26.924  14.585  0.00  0.00    -0.084 Cl
ATOM     18  C   LIG    1       26.832 -27.472  12.211  0.00  0.00    +0.020 A 
ATOM     19  C   LIG    1       26.883 -28.094  10.960  0.00  0.00    +0.012 A 
ENDBRANCH   1  13
BRANCH   1  20
ATOM     20  O   LIG    1       27.185 -30.192   8.932  0.00  0.00    -0.346 OA
ATOM     21  H   LIG    1       27.607 -30.227   9.804  0.00  0.00    +0.215 HD
ENDBRANCH   1  20
TORSDOF 2
ENDMDL
