MODEL 1
REMARK VINA RESULT:      -5.7      0.000      0.000
REMARK  Name = *****
REMARK                            x       y       z     vdW  Elec       q    Type
REMARK                         _______ _______ _______ _____ _____    ______ ____
ROOT
ATOM      1  C   LIG    1       24.618 -28.713   5.419  0.00  0.00    +0.012 C 
ATOM      2  C   LIG    1       25.025 -29.567   6.629  0.00  0.00    +0.013 C 
ATOM      3  C   LIG    1       24.626 -31.032   6.573  0.00  0.00    -0.053 C 
ATOM      4  C   LIG    1       25.282 -31.889   7.662  0.00  0.00    +0.013 C 
ATOM      5  C   LIG    1       26.788 -31.995   7.334  0.00  0.00    +0.020 C 
ATOM      6  C   LIG    1       24.785 -33.336   7.611  0.00  0.00    -0.012 C 
ATOM      7  C   LIG    1       23.918 -33.823   6.715  0.00  0.00    +0.047 C 
ATOM      8  C   LIG    1       23.355 -32.954   5.671  0.00  0.00    +0.179 C 
ATOM      9  O   LIG    1       22.568 -33.393   4.836  0.00  0.00    -0.288 OA
ATOM     10  C   LIG    1       24.897 -31.297   9.075  0.00  0.00    +0.035 C 
ATOM     11  C   LIG    1       24.681 -29.755   9.200  0.00  0.00    +0.000 C 
ATOM     12  C   LIG    1       25.611 -29.020  10.185  0.00  0.00    +0.002 C 
ATOM     13  C   LIG    1       25.572 -29.594  11.639  0.00  0.00    +0.009 C 
ATOM     14  C   LIG    1       24.376 -28.999  12.428  0.00  0.00    +0.015 C 
ATOM     15  C   LIG    1       25.358 -31.141  11.596  0.00  0.00    +0.042 C 
ATOM     16  C   LIG    1       26.910 -29.012  12.203  0.00  0.00    +0.132 C 
ATOM     17  C   LIG    1       27.915 -29.193  11.073  0.00  0.00    +0.043 C 
ATOM     18  C   LIG    1       27.101 -28.951   9.794  0.00  0.00    +0.007 C 
ATOM     19  C   LIG    1       25.661 -31.879  10.289  0.00  0.00    +0.120 C 
ATOM     20  C   LIG    1       23.759 -31.533   5.673  0.00  0.00    +0.051 C 
ATOM     21  C   LIG    1       24.433 -28.964   7.900  0.00  0.00    +0.012 C 
ENDROOT
BRANCH  16  22
ATOM     22  O   LIG    1       26.741 -27.561  12.300  0.00  0.00    -0.380 OA
ATOM     23  H   LIG    1       25.826 -27.369  12.005  0.00  0.00    +0.211 HD
ENDBRANCH  16  22
BRANCH  16  24
ATOM     24  C   LIG    1       27.483 -29.368  13.594  0.00  0.00    +0.190 C 
ATOM     25  O   LIG    1       27.848 -30.534  13.819  0.00  0.00    -0.292 OA
BRANCH  24  26
ATOM     26  C   LIG    1       27.524 -28.366  14.726  0.00  0.00    +0.233 C 
BRANCH  26  27
ATOM     27  O   LIG    1       28.585 -27.441  14.590  0.00  0.00    -0.387 OA
ATOM     28  H   LIG    1       28.443 -26.763  15.279  0.00  0.00    +0.210 HD
ENDBRANCH  26  27
ENDBRANCH  24  26
ENDBRANCH  16  24
BRANCH  19  29
ATOM     29  O   LIG    1       27.063 -31.925  10.105  0.00  0.00    -0.391 OA
ATOM     30  H   LIG    1       27.448 -32.444  10.837  0.00  0.00    +0.210 HD
ENDBRANCH  19  29
TORSDOF 5
ENDMDL
MODEL 2
REMARK VINA RESULT:      -5.5      1.952      7.021
REMARK  Name = *****
REMARK                            x       y       z     vdW  Elec       q    Type
REMARK                         _______ _______ _______ _____ _____    ______ ____
ROOT
ATOM      1  C   LIG    1       21.550 -30.174  12.722  0.00  0.00    +0.012 C 
ATOM      2  C   LIG    1       22.850 -30.270  11.910  0.00  0.00    +0.013 C 
ATOM      3  C   LIG    1       23.921 -29.247  12.248  0.00  0.00    -0.053 C 
ATOM      4  C   LIG    1       25.283 -29.550  11.610  0.00  0.00    +0.013 C 
ATOM      5  C   LIG    1       25.861 -30.802  12.306  0.00  0.00    +0.020 C 
ATOM      6  C   LIG    1       26.302 -28.448  11.915  0.00  0.00    -0.012 C 
ATOM      7  C   LIG    1       26.068 -27.369  12.672  0.00  0.00    +0.047 C 
ATOM      8  C   LIG    1       24.748 -27.158  13.287  0.00  0.00    +0.179 C 
ATOM      9  O   LIG    1       24.526 -26.178  13.993  0.00  0.00    -0.288 OA
ATOM     10  C   LIG    1       25.105 -29.620  10.042  0.00  0.00    +0.035 C 
ATOM     11  C   LIG    1       23.746 -30.141   9.473  0.00  0.00    +0.000 C 
ATOM     12  C   LIG    1       23.825 -31.398   8.583  0.00  0.00    +0.002 C 
ATOM     13  C   LIG    1       24.792 -31.250   7.364  0.00  0.00    +0.009 C 
ATOM     14  C   LIG    1       24.077 -30.541   6.183  0.00  0.00    +0.015 C 
ATOM     15  C   LIG    1       26.011 -30.355   7.755  0.00  0.00    +0.042 C 
ATOM     16  C   LIG    1       25.019 -32.756   7.006  0.00  0.00    +0.132 C 
ATOM     17  C   LIG    1       25.189 -33.449   8.352  0.00  0.00    +0.043 C 
ATOM     18  C   LIG    1       24.225 -32.708   9.289  0.00  0.00    +0.007 C 
ATOM     19  C   LIG    1       26.317 -30.156   9.242  0.00  0.00    +0.120 C 
ATOM     20  C   LIG    1       23.699 -28.161  13.012  0.00  0.00    +0.051 C 
ATOM     21  C   LIG    1       22.533 -30.148  10.423  0.00  0.00    +0.012 C 
ENDROOT
BRANCH  16  22
ATOM     22  O   LIG    1       23.748 -33.274   6.498  0.00  0.00    -0.380 OA
ATOM     23  H   LIG    1       23.972 -33.891   5.770  0.00  0.00    +0.211 HD
ENDBRANCH  16  22
BRANCH  16  24
ATOM     24  C   LIG    1       26.023 -33.243   5.936  0.00  0.00    +0.190 C 
ATOM     25  O   LIG    1       27.240 -33.081   6.128  0.00  0.00    -0.292 OA
BRANCH  24  26
ATOM     26  C   LIG    1       25.569 -33.824   4.615  0.00  0.00    +0.233 C 
BRANCH  26  27
ATOM     27  O   LIG    1       24.892 -32.876   3.813  0.00  0.00    -0.387 OA
ATOM     28  H   LIG    1       25.587 -32.371   3.348  0.00  0.00    +0.210 HD
ENDBRANCH  26  27
ENDBRANCH  24  26
ENDBRANCH  16  24
BRANCH  19  29
ATOM     29  O   LIG    1       26.851 -31.358   9.763  0.00  0.00    -0.391 OA
ATOM     30  H   LIG    1       26.584 -31.429  10.699  0.00  0.00    +0.210 HD
ENDBRANCH  19  29
TORSDOF 5
ENDMDL
MODEL 3
REMARK VINA RESULT:      -5.3      2.390      7.406
REMARK  Name = *****
REMARK                            x       y       z     vdW  Elec       q    Type
REMARK                         _______ _______ _______ _____ _____    ______ ____
ROOT
ATOM      1  C   LIG    1       22.387 -27.263  15.192  0.00  0.00    +0.012 C 
ATOM      2  C   LIG    1       23.553 -27.779  14.336  0.00  0.00    +0.013 C 
ATOM      3  C   LIG    1       24.726 -26.828  14.169  0.00  0.00    -0.053 C 
ATOM      4  C   LIG    1       25.963 -27.482  13.542  0.00  0.00    +0.013 C 
ATOM      5  C   LIG    1       26.547 -28.471  14.576  0.00  0.00    +0.020 C 
ATOM      6  C   LIG    1       27.085 -26.464  13.323  0.00  0.00    -0.012 C 
ATOM      7  C   LIG    1       27.030 -25.171  13.662  0.00  0.00    +0.047 C 
ATOM      8  C   LIG    1       25.826 -24.614  14.297  0.00  0.00    +0.179 C 
ATOM      9  O   LIG    1       25.769 -23.431  14.623  0.00  0.00    -0.288 OA
ATOM     10  C   LIG    1       25.565 -28.073  12.132  0.00  0.00    +0.035 C 
ATOM     11  C   LIG    1       24.110 -28.604  11.934  0.00  0.00    +0.000 C 
ATOM     12  C   LIG    1       23.981 -30.092  11.552  0.00  0.00    +0.002 C 
ATOM     13  C   LIG    1       24.777 -30.485  10.265  0.00  0.00    +0.009 C 
ATOM     14  C   LIG    1       23.954 -30.156   8.992  0.00  0.00    +0.015 C 
ATOM     15  C   LIG    1       26.096 -29.651  10.178  0.00  0.00    +0.042 C 
ATOM     16  C   LIG    1       24.852 -32.037  10.449  0.00  0.00    +0.132 C 
ATOM     17  C   LIG    1       25.160 -32.234  11.928  0.00  0.00    +0.043 C 
ATOM     18  C   LIG    1       24.387 -31.112  12.634  0.00  0.00    +0.007 C 
ATOM     19  C   LIG    1       26.616 -28.985  11.454  0.00  0.00    +0.120 C 
ATOM     20  C   LIG    1       24.684 -25.526  14.512  0.00  0.00    +0.051 C 
ATOM     21  C   LIG    1       23.041 -28.146  12.946  0.00  0.00    +0.012 C 
ENDROOT
BRANCH  16  22
ATOM     22  O   LIG    1       23.491 -32.555  10.298  0.00  0.00    -0.380 OA
ATOM     23  H   LIG    1       23.039 -32.398  11.153  0.00  0.00    +0.211 HD
ENDBRANCH  16  22
BRANCH  16  24
ATOM     24  C   LIG    1       25.663 -32.974   9.525  0.00  0.00    +0.190 C 
ATOM     25  O   LIG    1       26.904 -32.972   9.598  0.00  0.00    -0.292 OA
BRANCH  24  26
ATOM     26  C   LIG    1       25.001 -33.825   8.463  0.00  0.00    +0.233 C 
BRANCH  26  27
ATOM     27  O   LIG    1       24.433 -33.049   7.427  0.00  0.00    -0.387 OA
ATOM     28  H   LIG    1       25.176 -32.780   6.852  0.00  0.00    +0.210 HD
ENDBRANCH  26  27
ENDBRANCH  24  26
ENDBRANCH  16  24
BRANCH  19  29
ATOM     29  O   LIG    1       27.136 -29.982  12.311  0.00  0.00    -0.391 OA
ATOM     30  H   LIG    1       26.717 -29.879  13.187  0.00  0.00    +0.210 HD
ENDBRANCH  19  29
TORSDOF 5
ENDMDL
MODEL 4
REMARK VINA RESULT:      -5.1      2.081      6.933
REMARK  Name = *****
REMARK                            x       y       z     vdW  Elec       q    Type
REMARK                         _______ _______ _______ _____ _____    ______ ____
ROOT
ATOM      1  C   LIG    1       26.787 -27.552  11.677  0.00  0.00    +0.012 C 
ATOM      2  C   LIG    1       26.048 -28.755  11.071  0.00  0.00    +0.013 C 
ATOM      3  C   LIG    1       25.484 -29.757  12.065  0.00  0.00    -0.053 C 
ATOM      4  C   LIG    1       24.534 -30.781  11.432  0.00  0.00    +0.013 C 
ATOM      5  C   LIG    1       23.245 -30.036  11.020  0.00  0.00    +0.020 C 
ATOM      6  C   LIG    1       24.059 -31.813  12.458  0.00  0.00    -0.012 C 
ATOM      7  C   LIG    1       24.386 -31.817  13.756  0.00  0.00    +0.047 C 
ATOM      8  C   LIG    1       25.272 -30.781  14.308  0.00  0.00    +0.179 C 
ATOM      9  O   LIG    1       25.569 -30.769  15.500  0.00  0.00    -0.288 OA
ATOM     10  C   LIG    1       25.309 -31.556  10.294  0.00  0.00    +0.035 C 
ATOM     11  C   LIG    1       26.415 -30.792   9.497  0.00  0.00    +0.000 C 
ATOM     12  C   LIG    1       26.192 -30.675   7.976  0.00  0.00    +0.002 C 
ATOM     13  C   LIG    1       25.996 -32.051   7.259  0.00  0.00    +0.009 C 
ATOM     14  C   LIG    1       27.369 -32.701   6.941  0.00  0.00    +0.015 C 
ATOM     15  C   LIG    1       25.236 -33.039   8.200  0.00  0.00    +0.042 C 
ATOM     16  C   LIG    1       25.325 -31.575   5.928  0.00  0.00    +0.132 C 
ATOM     17  C   LIG    1       24.325 -30.511   6.361  0.00  0.00    +0.043 C 
ATOM     18  C   LIG    1       25.016 -29.787   7.526  0.00  0.00    +0.007 C 
ATOM     19  C   LIG    1       24.449 -32.459   9.377  0.00  0.00    +0.120 C 
ATOM     20  C   LIG    1       25.802 -29.767  13.374  0.00  0.00    +0.051 C 
ATOM     21  C   LIG    1       26.982 -29.504  10.125  0.00  0.00    +0.012 C 
ENDROOT
BRANCH  16  22
ATOM     22  O   LIG    1       26.336 -30.830   5.178  0.00  0.00    -0.380 OA
ATOM     23  H   LIG    1       26.188 -29.882   5.380  0.00  0.00    +0.211 HD
ENDBRANCH  16  22
BRANCH  16  24
ATOM     24  C   LIG    1       24.766 -32.539   4.856  0.00  0.00    +0.190 C 
ATOM     25  O   LIG    1       23.783 -33.247   5.131  0.00  0.00    -0.292 OA
BRANCH  24  26
ATOM     26  C   LIG    1       25.436 -32.721   3.512  0.00  0.00    +0.233 C 
BRANCH  26  27
ATOM     27  O   LIG    1       26.758 -33.209   3.631  0.00  0.00    -0.387 OA
ATOM     28  H   LIG    1       27.290 -32.709   2.981  0.00  0.00    +0.210 HD
ENDBRANCH  26  27
ENDBRANCH  24  26
ENDBRANCH  16  24
BRANCH  19  29
ATOM     29  O   LIG    1       23.290 -31.818   8.879  0.00  0.00    -0.391 OA
ATOM     30  H   LIG    1       22.517 -32.370   9.105  0.00  0.00    +0.210 HD
ENDBRANCH  19  29
TORSDOF 5
ENDMDL
MODEL 5
REMARK VINA RESULT:      -5.0      4.325      6.597
REMARK  Name = *****
REMARK                            x       y       z     vdW  Elec       q    Type
REMARK                         _______ _______ _______ _____ _____    ______ ____
ROOT
ATOM      1  C   LIG    1       20.334 -30.434  11.715  0.00  0.00    +0.012 C 
ATOM      2  C   LIG    1       21.469 -29.828  12.553  0.00  0.00    +0.013 C 
ATOM      3  C   LIG    1       21.075 -28.690  13.479  0.00  0.00    -0.053 C 
ATOM      4  C   LIG    1       22.173 -28.305  14.480  0.00  0.00    +0.013 C 
ATOM      5  C   LIG    1       22.310 -29.461  15.495  0.00  0.00    +0.020 C 
ATOM      6  C   LIG    1       21.756 -27.104  15.333  0.00  0.00    -0.012 C 
ATOM      7  C   LIG    1       20.576 -26.478  15.259  0.00  0.00    +0.047 C 
ATOM      8  C   LIG    1       19.551 -26.923  14.303  0.00  0.00    +0.179 C 
ATOM      9  O   LIG    1       18.459 -26.363  14.236  0.00  0.00    -0.288 OA
ATOM     10  C   LIG    1       23.471 -27.899  13.677  0.00  0.00    +0.035 C 
ATOM     11  C   LIG    1       23.752 -28.607  12.312  0.00  0.00    +0.000 C 
ATOM     12  C   LIG    1       25.073 -29.396  12.221  0.00  0.00    +0.002 C 
ATOM     13  C   LIG    1       26.342 -28.544  12.550  0.00  0.00    +0.009 C 
ATOM     14  C   LIG    1       26.807 -27.751  11.300  0.00  0.00    +0.015 C 
ATOM     15  C   LIG    1       26.005 -27.490  13.653  0.00  0.00    +0.042 C 
ATOM     16  C   LIG    1       27.370 -29.684  12.855  0.00  0.00    +0.132 C 
ATOM     17  C   LIG    1       26.588 -30.694  13.685  0.00  0.00    +0.043 C 
ATOM     18  C   LIG    1       25.172 -30.663  13.092  0.00  0.00    +0.007 C 
ATOM     19  C   LIG    1       24.760 -27.714  14.514  0.00  0.00    +0.120 C 
ATOM     20  C   LIG    1       19.888 -28.057  13.418  0.00  0.00    +0.051 C 
ATOM     21  C   LIG    1       22.572 -29.323  11.627  0.00  0.00    +0.012 C 
ENDROOT
BRANCH  16  22
ATOM     22  O   LIG    1       27.625 -30.382  11.594  0.00  0.00    -0.380 OA
ATOM     23  H   LIG    1       27.699 -29.689  10.904  0.00  0.00    +0.211 HD
ENDBRANCH  16  22
BRANCH  16  24
ATOM     24  C   LIG    1       28.799 -29.432  13.385  0.00  0.00    +0.190 C 
ATOM     25  O   LIG    1       29.773 -29.747  12.680  0.00  0.00    -0.292 OA
BRANCH  24  26
ATOM     26  C   LIG    1       29.057 -28.904  14.780  0.00  0.00    +0.233 C 
BRANCH  26  27
ATOM     27  O   LIG    1       29.329 -27.516  14.789  0.00  0.00    -0.387 OA
ATOM     28  H   LIG    1       28.718 -27.126  15.444  0.00  0.00    +0.210 HD
ENDBRANCH  26  27
ENDBRANCH  24  26
ENDBRANCH  16  24
BRANCH  19  29
ATOM     29  O   LIG    1       25.010 -28.780  15.409  0.00  0.00    -0.391 OA
ATOM     30  H   LIG    1       24.165 -29.028  15.830  0.00  0.00    +0.210 HD
ENDBRANCH  19  29
TORSDOF 5
ENDMDL
MODEL 6
REMARK VINA RESULT:      -5.0      2.210      3.763
REMARK  Name = *****
REMARK                            x       y       z     vdW  Elec       q    Type
REMARK                         _______ _______ _______ _____ _____    ______ ____
ROOT
ATOM      1  C   LIG    1       22.102 -30.486  10.434  0.00  0.00    +0.012 C 
ATOM      2  C   LIG    1       23.561 -30.077  10.685  0.00  0.00    +0.013 C 
ATOM      3  C   LIG    1       24.611 -30.855   9.909  0.00  0.00    -0.053 C 
ATOM      4  C   LIG    1       26.013 -30.238   9.986  0.00  0.00    +0.013 C 
ATOM      5  C   LIG    1       25.991 -28.918   9.184  0.00  0.00    +0.020 C 
ATOM      6  C   LIG    1       27.045 -31.102   9.256  0.00  0.00    -0.012 C 
ATOM      7  C   LIG    1       26.775 -32.234   8.596  0.00  0.00    +0.047 C 
ATOM      8  C   LIG    1       25.400 -32.751   8.528  0.00  0.00    +0.179 C 
ATOM      9  O   LIG    1       25.139 -33.783   7.915  0.00  0.00    -0.288 OA
ATOM     10  C   LIG    1       26.445 -30.148  11.502  0.00  0.00    +0.035 C 
ATOM     11  C   LIG    1       25.336 -29.915  12.578  0.00  0.00    +0.000 C 
ATOM     12  C   LIG    1       25.480 -28.637  13.429  0.00  0.00    +0.002 C 
ATOM     13  C   LIG    1       26.851 -28.524  14.172  0.00  0.00    +0.009 C 
ATOM     14  C   LIG    1       26.820 -29.325  15.500  0.00  0.00    +0.015 C 
ATOM     15  C   LIG    1       27.985 -29.146  13.296  0.00  0.00    +0.042 C 
ATOM     16  C   LIG    1       26.868 -26.992  14.489  0.00  0.00    +0.132 C 
ATOM     17  C   LIG    1       26.350 -26.331  13.218  0.00  0.00    +0.043 C 
ATOM     18  C   LIG    1       25.283 -27.299  12.690  0.00  0.00    +0.007 C 
ATOM     19  C   LIG    1       27.726 -29.330  11.799  0.00  0.00    +0.120 C 
ATOM     20  C   LIG    1       24.349 -31.992   9.237  0.00  0.00    +0.051 C 
ATOM     21  C   LIG    1       23.879 -30.209  12.171  0.00  0.00    +0.012 C 
ENDROOT
BRANCH  16  22
ATOM     22  O   LIG    1       25.814 -26.744  15.474  0.00  0.00    -0.380 OA
ATOM     23  H   LIG    1       26.074 -25.934  15.960  0.00  0.00    +0.211 HD
ENDBRANCH  16  22
BRANCH  16  24
ATOM     24  C   LIG    1       28.077 -26.257  15.111  0.00  0.00    +0.190 C 
ATOM     25  O   LIG    1       29.106 -26.900  15.380  0.00  0.00    -0.292 OA
BRANCH  24  26
ATOM     26  C   LIG    1       28.017 -24.795  15.496  0.00  0.00    +0.233 C 
BRANCH  26  27
ATOM     27  O   LIG    1       28.121 -23.938  14.376  0.00  0.00    -0.387 OA
ATOM     28  H   LIG    1       28.357 -24.509  13.619  0.00  0.00    +0.210 HD
ENDBRANCH  26  27
ENDBRANCH  24  26
ENDBRANCH  16  24
BRANCH  19  29
ATOM     29  O   LIG    1       27.744 -28.062  11.173  0.00  0.00    -0.391 OA
ATOM     30  H   LIG    1       26.853 -27.670  11.254  0.00  0.00    +0.210 HD
ENDBRANCH  19  29
TORSDOF 5
ENDMDL
MODEL 7
REMARK VINA RESULT:      -4.9      3.846      7.091
REMARK  Name = *****
REMARK                            x       y       z     vdW  Elec       q    Type
REMARK                         _______ _______ _______ _____ _____    ______ ____
ROOT
ATOM      1  C   LIG    1       26.629 -28.539   9.635  0.00  0.00    +0.012 C 
ATOM      2  C   LIG    1       26.012 -28.606  11.040  0.00  0.00    +0.013 C 
ATOM      3  C   LIG    1       26.976 -28.912  12.175  0.00  0.00    -0.053 C 
ATOM      4  C   LIG    1       26.370 -28.702  13.568  0.00  0.00    +0.013 C 
ATOM      5  C   LIG    1       26.169 -27.184  13.770  0.00  0.00    +0.020 C 
ATOM      6  C   LIG    1       27.353 -29.100  14.672  0.00  0.00    -0.012 C 
ATOM      7  C   LIG    1       28.601 -29.541  14.471  0.00  0.00    +0.047 C 
ATOM      8  C   LIG    1       29.134 -29.683  13.108  0.00  0.00    +0.179 C 
ATOM      9  O   LIG    1       30.282 -30.075  12.913  0.00  0.00    -0.288 OA
ATOM     10  C   LIG    1       25.090 -29.618  13.708  0.00  0.00    +0.035 C 
ATOM     11  C   LIG    1       24.242 -29.909  12.429  0.00  0.00    +0.000 C 
ATOM     12  C   LIG    1       22.770 -29.450  12.478  0.00  0.00    +0.002 C 
ATOM     13  C   LIG    1       21.967 -30.031  13.687  0.00  0.00    +0.009 C 
ATOM     14  C   LIG    1       21.443 -31.455  13.361  0.00  0.00    +0.015 C 
ATOM     15  C   LIG    1       22.902 -30.168  14.931  0.00  0.00    +0.042 C 
ATOM     16  C   LIG    1       20.765 -29.031  13.726  0.00  0.00    +0.132 C 
ATOM     17  C   LIG    1       21.395 -27.663  13.496  0.00  0.00    +0.043 C 
ATOM     18  C   LIG    1       22.531 -27.928  12.497  0.00  0.00    +0.007 C 
ATOM     19  C   LIG    1       24.204 -29.365  14.952  0.00  0.00    +0.120 C 
ATOM     20  C   LIG    1       28.234 -29.350  11.985  0.00  0.00    +0.051 C 
ATOM     21  C   LIG    1       24.908 -29.659  11.062  0.00  0.00    +0.012 C 
ENDROOT
BRANCH  16  22
ATOM     22  O   LIG    1       19.970 -29.264  12.519  0.00  0.00    -0.380 OA
ATOM     23  H   LIG    1       19.235 -29.856  12.782  0.00  0.00    +0.211 HD
ENDBRANCH  16  22
BRANCH  16  24
ATOM     24  C   LIG    1       19.686 -29.028  14.833  0.00  0.00    +0.190 C 
ATOM     25  O   LIG    1       19.497 -30.059  15.500  0.00  0.00    -0.292 OA
BRANCH  24  26
ATOM     26  C   LIG    1       18.780 -27.838  15.068  0.00  0.00    +0.233 C 
BRANCH  26  27
ATOM     27  O   LIG    1       17.873 -27.632  14.002  0.00  0.00    -0.387 OA
ATOM     28  H   LIG    1       17.325 -26.865  14.258  0.00  0.00    +0.210 HD
ENDBRANCH  26  27
ENDBRANCH  24  26
ENDBRANCH  16  24
BRANCH  19  29
ATOM     29  O   LIG    1       23.895 -28.000  15.157  0.00  0.00    -0.391 OA
ATOM     30  H   LIG    1       24.142 -27.767  16.072  0.00  0.00    +0.210 HD
ENDBRANCH  19  29
TORSDOF 5
ENDMDL
MODEL 8
REMARK VINA RESULT:      -4.7      2.450      3.025
REMARK  Name = *****
REMARK                            x       y       z     vdW  Elec       q    Type
REMARK                         _______ _______ _______ _____ _____    ______ ____
ROOT
ATOM      1  C   LIG    1       25.599 -28.511   5.496  0.00  0.00    +0.012 C 
ATOM      2  C   LIG    1       25.429 -29.618   6.547  0.00  0.00    +0.013 C 
ATOM      3  C   LIG    1       25.473 -31.044   6.022  0.00  0.00    -0.053 C 
ATOM      4  C   LIG    1       25.571 -32.102   7.128  0.00  0.00    +0.013 C 
ATOM      5  C   LIG    1       26.975 -31.992   7.763  0.00  0.00    +0.020 C 
ATOM      6  C   LIG    1       25.530 -33.520   6.552  0.00  0.00    -0.012 C 
ATOM      7  C   LIG    1       25.458 -33.822   5.250  0.00  0.00    +0.047 C 
ATOM      8  C   LIG    1       25.407 -32.756   4.237  0.00  0.00    +0.179 C 
ATOM      9  O   LIG    1       25.353 -33.022   3.038  0.00  0.00    -0.288 OA
ATOM     10  C   LIG    1       24.333 -31.940   8.096  0.00  0.00    +0.035 C 
ATOM     11  C   LIG    1       23.745 -30.509   8.315  0.00  0.00    +0.000 C 
ATOM     12  C   LIG    1       23.761 -29.988   9.766  0.00  0.00    +0.002 C 
ATOM     13  C   LIG    1       23.036 -30.928  10.784  0.00  0.00    +0.009 C 
ATOM     14  C   LIG    1       21.507 -30.665  10.777  0.00  0.00    +0.015 C 
ATOM     15  C   LIG    1       23.238 -32.421  10.368  0.00  0.00    +0.042 C 
ATOM     16  C   LIG    1       23.648 -30.408  12.126  0.00  0.00    +0.132 C 
ATOM     17  C   LIG    1       25.125 -30.199  11.820  0.00  0.00    +0.043 C 
ATOM     18  C   LIG    1       25.148 -29.695  10.370  0.00  0.00    +0.007 C 
ATOM     19  C   LIG    1       24.383 -32.758   9.410  0.00  0.00    +0.120 C 
ATOM     20  C   LIG    1       25.407 -31.359   4.714  0.00  0.00    +0.051 C 
ATOM     21  C   LIG    1       24.106 -29.426   7.280  0.00  0.00    +0.012 C 
ENDROOT
BRANCH  16  22
ATOM     22  O   LIG    1       23.133 -29.053  12.337  0.00  0.00    -0.380 OA
ATOM     23  H   LIG    1       22.218 -29.048  11.988  0.00  0.00    +0.211 HD
ENDBRANCH  16  22
BRANCH  16  24
ATOM     24  C   LIG    1       23.396 -31.071  13.499  0.00  0.00    +0.190 C 
ATOM     25  O   LIG    1       23.793 -32.232  13.694  0.00  0.00    -0.292 OA
BRANCH  24  26
ATOM     26  C   LIG    1       22.594 -30.389  14.586  0.00  0.00    +0.233 C 
BRANCH  26  27
ATOM     27  O   LIG    1       21.221 -30.288  14.260  0.00  0.00    -0.387 OA
ATOM     28  H   LIG    1       21.043 -29.335  14.135  0.00  0.00    +0.210 HD
ENDBRANCH  26  27
ENDBRANCH  24  26
ENDBRANCH  16  24
BRANCH  19  29
ATOM     29  O   LIG    1       25.610 -32.637  10.104  0.00  0.00    -0.391 OA
ATOM     30  H   LIG    1       26.315 -32.477   9.448  0.00  0.00    +0.210 HD
ENDBRANCH  19  29
TORSDOF 5
ENDMDL
MODEL 9
REMARK VINA RESULT:      -4.7      3.827      5.529
REMARK  Name = *****
REMARK                            x       y       z     vdW  Elec       q    Type
REMARK                         _______ _______ _______ _____ _____    ______ ____
ROOT
ATOM      1  C   LIG    1       27.657 -29.653  11.557  0.00  0.00    +0.012 C 
ATOM      2  C   LIG    1       26.162 -30.007  11.581  0.00  0.00    +0.013 C 
ATOM      3  C   LIG    1       25.614 -30.658  10.323  0.00  0.00    -0.053 C 
ATOM      4  C   LIG    1       24.202 -31.233  10.495  0.00  0.00    +0.013 C 
ATOM      5  C   LIG    1       24.303 -32.461  11.426  0.00  0.00    +0.020 C 
ATOM      6  C   LIG    1       23.666 -31.804   9.179  0.00  0.00    -0.012 C 
ATOM      7  C   LIG    1       24.340 -31.843   8.024  0.00  0.00    +0.047 C 
ATOM      8  C   LIG    1       25.708 -31.309   7.937  0.00  0.00    +0.179 C 
ATOM      9  O   LIG    1       26.340 -31.351   6.885  0.00  0.00    -0.288 OA
ATOM     10  C   LIG    1       23.232 -30.070  10.946  0.00  0.00    +0.035 C 
ATOM     11  C   LIG    1       23.814 -28.920  11.830  0.00  0.00    +0.000 C 
ATOM     12  C   LIG    1       23.161 -28.738  13.215  0.00  0.00    +0.002 C 
ATOM     13  C   LIG    1       21.614 -28.519  13.160  0.00  0.00    +0.009 C 
ATOM     14  C   LIG    1       21.283 -27.029  12.883  0.00  0.00    +0.015 C 
ATOM     15  C   LIG    1       21.000 -29.345  11.984  0.00  0.00    +0.042 C 
ATOM     16  C   LIG    1       21.232 -28.871  14.636  0.00  0.00    +0.132 C 
ATOM     17  C   LIG    1       22.068 -30.101  14.966  0.00  0.00    +0.043 C 
ATOM     18  C   LIG    1       23.397 -29.870  14.233  0.00  0.00    +0.007 C 
ATOM     19  C   LIG    1       21.818 -30.500  11.405  0.00  0.00    +0.120 C 
ATOM     20  C   LIG    1       26.285 -30.709   9.157  0.00  0.00    +0.051 C 
ATOM     21  C   LIG    1       25.345 -28.749  11.857  0.00  0.00    +0.012 C 
ENDROOT
BRANCH  16  22
ATOM     22  O   LIG    1       21.794 -27.821  15.488  0.00  0.00    -0.380 OA
ATOM     23  H   LIG    1       22.663 -28.152  15.799  0.00  0.00    +0.211 HD
ENDBRANCH  16  22
BRANCH  16  24
ATOM     24  C   LIG    1       19.777 -28.964  15.149  0.00  0.00    +0.190 C 
ATOM     25  O   LIG    1       19.327 -30.068  15.499  0.00  0.00    -0.292 OA
BRANCH  24  26
ATOM     26  C   LIG    1       18.847 -27.771  15.146  0.00  0.00    +0.233 C 
BRANCH  26  27
ATOM     27  O   LIG    1       18.008 -27.744  14.007  0.00  0.00    -0.387 OA
ATOM     28  H   LIG    1       17.934 -28.670  13.704  0.00  0.00    +0.210 HD
ENDBRANCH  26  27
ENDBRANCH  24  26
ENDBRANCH  16  24
BRANCH  19  29
ATOM     29  O   LIG    1       21.827 -31.566  12.336  0.00  0.00    -0.391 OA
ATOM     30  H   LIG    1       21.433 -31.244  13.169  0.00  0.00    +0.210 HD
ENDBRANCH  19  29
TORSDOF 5
ENDMDL
