MODEL 1
REMARK VINA RESULT:      -9.5      0.000      0.000
REMARK  Name = *****
REMARK                            x       y       z     vdW  Elec       q    Type
REMARK                         _______ _______ _______ _____ _____    ______ ____
ROOT
ATOM      1  C   LIG    1       24.736 -26.401   6.037  0.00  0.00    +0.015 A 
ATOM      2  C   LIG    1       23.637 -25.572   6.306  0.00  0.00    +0.043 A 
ATOM      3  C   LIG    1       23.906 -24.235   6.632  0.00  0.00    +0.067 A 
ATOM      4  C   LIG    1       25.190 -23.711   6.707  0.00  0.00    +0.027 A 
ATOM      5  C   LIG    1       25.012 -22.357   7.125  0.00  0.00    +0.093 A 
ATOM      6  N   LIG    1       23.712 -22.050   7.239  0.00  0.00    -0.173 NA
ATOM      7  C   LIG    1       26.281 -24.547   6.399  0.00  0.00    +0.013 A 
ATOM      8  N   LIG    1       23.077 -23.190   6.933  0.00  0.00    -0.276 N 
ATOM      9  H   LIG    1       22.064 -23.190   6.956  0.00  0.00    +0.189 HD
ATOM     10  C   LIG    1       26.036 -25.884   6.058  0.00  0.00    +0.016 A 
ENDROOT
BRANCH   5  11
ATOM     11  C   LIG    1       26.077 -21.442   7.405  0.00  0.00    +0.032 C 
ATOM     12  C   LIG    1       27.008 -21.064   6.514  0.00  0.00    +0.030 C 
BRANCH  12  13
ATOM     13  C   LIG    1       28.086 -20.132   6.840  0.00  0.00    +0.064 A 
ATOM     14  N   LIG    1       28.466 -20.056   8.138  0.00  0.00    -0.256 NA
ATOM     15  C   LIG    1       29.455 -19.190   8.440  0.00  0.00    +0.111 A 
ATOM     16  C   LIG    1       30.105 -18.404   7.503  0.00  0.00    +0.020 A 
ATOM     17  C   LIG    1       29.708 -18.504   6.174  0.00  0.00    +0.004 A 
ATOM     18  C   LIG    1       28.675 -19.372   5.835  0.00  0.00    +0.028 A 
ENDBRANCH  12  13
ENDBRANCH   5  11
BRANCH   1  19
ATOM     19  S   LIG    1       24.479 -28.100   5.555  0.00  0.00    -0.089 S 
BRANCH  19  21
ATOM     20  C   LIG    1       25.053 -30.432   7.081  0.00  0.00    +0.050 A 
ATOM     21  C   LIG    1       25.082 -29.025   6.975  0.00  0.00    +0.025 A 
ATOM     22  C   LIG    1       25.683 -28.287   8.015  0.00  0.00    +0.016 A 
ATOM     23  C   LIG    1       26.205 -28.913   9.148  0.00  0.00    +0.001 A 
ATOM     24  C   LIG    1       26.174 -30.296   9.252  0.00  0.00    +0.001 A 
ATOM     25  C   LIG    1       25.606 -31.049   8.223  0.00  0.00    +0.014 A 
BRANCH  20  29
ATOM     26  C   LIG    1       24.979 -33.048   4.305  0.00  0.00    +0.128 C 
ATOM     27  N   LIG    1       25.380 -32.083   5.297  0.00  0.00    -0.314 N 
ATOM     28  H   LIG    1       26.357 -31.816   5.330  0.00  0.00    +0.149 HD
ATOM     29  C   LIG    1       24.481 -31.381   6.068  0.00  0.00    +0.245 C 
ATOM     30  O   LIG    1       23.271 -31.537   5.988  0.00  0.00    -0.270 OA
ENDBRANCH  20  29
ENDBRANCH  19  21
ENDBRANCH   1  19
TORSDOF 5
ENDMDL
MODEL 2
REMARK VINA RESULT:      -9.1      3.389      9.882
REMARK  Name = *****
REMARK                            x       y       z     vdW  Elec       q    Type
REMARK                         _______ _______ _______ _____ _____    ______ ____
ROOT
ATOM      1  C   LIG    1       24.347 -23.598   6.831  0.00  0.00    +0.015 A 
ATOM      2  C   LIG    1       25.699 -23.918   6.640  0.00  0.00    +0.043 A 
ATOM      3  C   LIG    1       25.996 -25.215   6.198  0.00  0.00    +0.067 A 
ATOM      4  C   LIG    1       25.026 -26.179   5.955  0.00  0.00    +0.027 A 
ATOM      5  C   LIG    1       25.755 -27.352   5.591  0.00  0.00    +0.093 A 
ATOM      6  N   LIG    1       27.074 -27.112   5.551  0.00  0.00    -0.173 NA
ATOM      7  C   LIG    1       23.671 -25.831   6.117  0.00  0.00    +0.013 A 
ATOM      8  N   LIG    1       27.185 -25.827   5.913  0.00  0.00    -0.276 N 
ATOM      9  H   LIG    1       28.114 -25.424   5.954  0.00  0.00    +0.189 HD
ATOM     10  C   LIG    1       23.349 -24.536   6.546  0.00  0.00    +0.016 A 
ENDROOT
BRANCH   5  11
ATOM     11  C   LIG    1       25.167 -28.628   5.317  0.00  0.00    +0.032 C 
ATOM     12  C   LIG    1       25.522 -29.773   5.922  0.00  0.00    +0.030 C 
BRANCH  12  13
ATOM     13  C   LIG    1       24.903 -31.061   5.610  0.00  0.00    +0.064 A 
ATOM     14  N   LIG    1       23.739 -31.354   6.236  0.00  0.00    -0.256 NA
ATOM     15  C   LIG    1       23.172 -32.546   5.954  0.00  0.00    +0.111 A 
ATOM     16  C   LIG    1       23.701 -33.458   5.057  0.00  0.00    +0.020 A 
ATOM     17  C   LIG    1       24.892 -33.134   4.416  0.00  0.00    +0.004 A 
ATOM     18  C   LIG    1       25.511 -31.922   4.703  0.00  0.00    +0.028 A 
ENDBRANCH  12  13
ENDBRANCH   5  11
BRANCH   1  19
ATOM     19  S   LIG    1       23.879 -21.951   7.334  0.00  0.00    -0.089 S 
BRANCH  19  21
ATOM     20  C   LIG    1       25.646 -20.365   5.768  0.00  0.00    +0.050 A 
ATOM     21  C   LIG    1       24.366 -20.938   5.930  0.00  0.00    +0.025 A 
ATOM     22  C   LIG    1       23.420 -20.770   4.900  0.00  0.00    +0.016 A 
ATOM     23  C   LIG    1       23.710 -20.023   3.756  0.00  0.00    +0.001 A 
ATOM     24  C   LIG    1       24.968 -19.459   3.598  0.00  0.00    +0.001 A 
ATOM     25  C   LIG    1       25.929 -19.633   4.594  0.00  0.00    +0.014 A 
BRANCH  20  29
ATOM     26  C   LIG    1       29.211 -20.868   7.030  0.00  0.00    +0.128 C 
ATOM     27  N   LIG    1       28.022 -20.772   6.222  0.00  0.00    -0.314 N 
ATOM     28  H   LIG    1       28.078 -21.077   5.258  0.00  0.00    +0.149 HD
ATOM     29  C   LIG    1       26.785 -20.460   6.740  0.00  0.00    +0.245 C 
ATOM     30  O   LIG    1       26.602 -20.217   7.925  0.00  0.00    -0.270 OA
ENDBRANCH  20  29
ENDBRANCH  19  21
ENDBRANCH   1  19
TORSDOF 5
ENDMDL
MODEL 3
REMARK VINA RESULT:      -8.2      3.273      9.929
REMARK  Name = *****
REMARK                            x       y       z     vdW  Elec       q    Type
REMARK                         _______ _______ _______ _____ _____    ______ ____
ROOT
ATOM      1  C   LIG    1       24.637 -23.993   6.769  0.00  0.00    +0.015 A 
ATOM      2  C   LIG    1       25.956 -24.388   6.504  0.00  0.00    +0.043 A 
ATOM      3  C   LIG    1       26.155 -25.695   6.037  0.00  0.00    +0.067 A 
ATOM      4  C   LIG    1       25.119 -26.600   5.839  0.00  0.00    +0.027 A 
ATOM      5  C   LIG    1       25.759 -27.808   5.428  0.00  0.00    +0.093 A 
ATOM      6  N   LIG    1       27.085 -27.644   5.319  0.00  0.00    -0.173 NA
ATOM      7  C   LIG    1       23.797 -26.177   6.076  0.00  0.00    +0.013 A 
ATOM      8  N   LIG    1       27.290 -26.371   5.685  0.00  0.00    -0.276 N 
ATOM      9  H   LIG    1       28.241 -26.022   5.678  0.00  0.00    +0.189 HD
ATOM     10  C   LIG    1       23.573 -24.870   6.532  0.00  0.00    +0.016 A 
ENDROOT
BRANCH   5  11
ATOM     11  C   LIG    1       25.084 -29.046   5.177  0.00  0.00    +0.032 C 
ATOM     12  C   LIG    1       25.486 -30.239   5.647  0.00  0.00    +0.030 C 
BRANCH  12  13
ATOM     13  C   LIG    1       24.775 -31.484   5.362  0.00  0.00    +0.064 A 
ATOM     14  N   LIG    1       23.665 -31.742   6.093  0.00  0.00    -0.256 NA
ATOM     15  C   LIG    1       23.012 -32.895   5.837  0.00  0.00    +0.111 A 
ATOM     16  C   LIG    1       23.404 -33.802   4.866  0.00  0.00    +0.020 A 
ATOM     17  C   LIG    1       24.540 -33.514   4.118  0.00  0.00    +0.004 A 
ATOM     18  C   LIG    1       25.246 -32.343   4.375  0.00  0.00    +0.028 A 
ENDBRANCH  12  13
ENDBRANCH   5  11
BRANCH   1  19
ATOM     19  S   LIG    1       24.291 -22.328   7.309  0.00  0.00    -0.089 S 
BRANCH  19  21
ATOM     20  C   LIG    1       25.543 -20.564   5.461  0.00  0.00    +0.050 A 
ATOM     21  C   LIG    1       25.649 -21.379   6.609  0.00  0.00    +0.025 A 
ATOM     22  C   LIG    1       26.877 -21.408   7.300  0.00  0.00    +0.016 A 
ATOM     23  C   LIG    1       27.985 -20.686   6.852  0.00  0.00    +0.001 A 
ATOM     24  C   LIG    1       27.880 -19.886   5.724  0.00  0.00    +0.001 A 
ATOM     25  C   LIG    1       26.667 -19.822   5.037  0.00  0.00    +0.014 A 
BRANCH  20  29
ATOM     26  C   LIG    1       22.147 -19.219   4.361  0.00  0.00    +0.128 C 
ATOM     27  N   LIG    1       23.361 -19.511   5.080  0.00  0.00    -0.314 N 
ATOM     28  H   LIG    1       23.448 -19.159   6.026  0.00  0.00    +0.149 HD
ATOM     29  C   LIG    1       24.316 -20.387   4.615  0.00  0.00    +0.245 C 
ATOM     30  O   LIG    1       24.221 -20.969   3.544  0.00  0.00    -0.270 OA
ENDBRANCH  20  29
ENDBRANCH  19  21
ENDBRANCH   1  19
TORSDOF 5
ENDMDL
MODEL 4
REMARK VINA RESULT:      -8.1      3.364      5.095
REMARK  Name = *****
REMARK                            x       y       z     vdW  Elec       q    Type
REMARK                         _______ _______ _______ _____ _____    ______ ____
ROOT
ATOM      1  C   LIG    1       24.675 -30.343   5.790  0.00  0.00    +0.015 A 
ATOM      2  C   LIG    1       25.869 -29.799   5.292  0.00  0.00    +0.043 A 
ATOM      3  C   LIG    1       25.985 -28.402   5.285  0.00  0.00    +0.067 A 
ATOM      4  C   LIG    1       24.983 -27.551   5.735  0.00  0.00    +0.027 A 
ATOM      5  C   LIG    1       25.482 -26.235   5.493  0.00  0.00    +0.093 A 
ATOM      6  N   LIG    1       26.725 -26.270   4.990  0.00  0.00    -0.173 NA
ATOM      7  C   LIG    1       23.806 -28.113   6.265  0.00  0.00    +0.013 A 
ATOM      8  N   LIG    1       26.999 -27.577   4.883  0.00  0.00    -0.276 N 
ATOM      9  H   LIG    1       27.905 -27.844   4.516  0.00  0.00    +0.189 HD
ATOM     10  C   LIG    1       23.672 -29.507   6.293  0.00  0.00    +0.016 A 
ENDROOT
BRANCH   5  11
ATOM     11  C   LIG    1       24.753 -25.027   5.736  0.00  0.00    +0.032 C 
ATOM     12  C   LIG    1       25.297 -23.799   5.738  0.00  0.00    +0.030 C 
BRANCH  12  13
ATOM     13  C   LIG    1       24.521 -22.588   6.000  0.00  0.00    +0.064 A 
ATOM     14  N   LIG    1       24.440 -21.678   5.000  0.00  0.00    -0.256 NA
ATOM     15  C   LIG    1       23.731 -20.556   5.243  0.00  0.00    +0.111 A 
ATOM     16  C   LIG    1       23.076 -20.303   6.437  0.00  0.00    +0.020 A 
ATOM     17  C   LIG    1       23.162 -21.254   7.448  0.00  0.00    +0.004 A 
ATOM     18  C   LIG    1       23.905 -22.410   7.233  0.00  0.00    +0.028 A 
ENDBRANCH  12  13
ENDBRANCH   5  11
BRANCH   1  19
ATOM     19  S   LIG    1       24.470 -32.112   5.890  0.00  0.00    -0.089 S 
BRANCH  19  21
ATOM     20  C   LIG    1       27.022 -32.726   6.986  0.00  0.00    +0.050 A 
ATOM     21  C   LIG    1       26.161 -32.724   5.868  0.00  0.00    +0.025 A 
ATOM     22  C   LIG    1       26.621 -33.298   4.667  0.00  0.00    +0.016 A 
ATOM     23  C   LIG    1       27.909 -33.825   4.555  0.00  0.00    +0.001 A 
ATOM     24  C   LIG    1       28.755 -33.825   5.654  0.00  0.00    +0.001 A 
ATOM     25  C   LIG    1       28.313 -33.284   6.862  0.00  0.00    +0.014 A 
BRANCH  20  29
ATOM     26  C   LIG    1       26.621 -30.178   9.797  0.00  0.00    +0.128 C 
ATOM     27  N   LIG    1       26.911 -30.840   8.552  0.00  0.00    -0.314 N 
ATOM     28  H   LIG    1       27.416 -30.319   7.844  0.00  0.00    +0.149 HD
ATOM     29  C   LIG    1       26.700 -32.185   8.349  0.00  0.00    +0.245 C 
ATOM     30  O   LIG    1       26.226 -32.921   9.204  0.00  0.00    -0.270 OA
ENDBRANCH  20  29
ENDBRANCH  19  21
ENDBRANCH   1  19
TORSDOF 5
ENDMDL
MODEL 5
REMARK VINA RESULT:      -8.0      3.339      5.709
REMARK  Name = *****
REMARK                            x       y       z     vdW  Elec       q    Type
REMARK                         _______ _______ _______ _____ _____    ______ ____
ROOT
ATOM      1  C   LIG    1       25.533 -30.666   8.301  0.00  0.00    +0.015 A 
ATOM      2  C   LIG    1       24.845 -30.642   7.079  0.00  0.00    +0.043 A 
ATOM      3  C   LIG    1       24.679 -29.395   6.460  0.00  0.00    +0.067 A 
ATOM      4  C   LIG    1       25.152 -28.206   7.000  0.00  0.00    +0.027 A 
ATOM      5  C   LIG    1       24.717 -27.191   6.094  0.00  0.00    +0.093 A 
ATOM      6  N   LIG    1       24.079 -27.720   5.040  0.00  0.00    -0.173 NA
ATOM      7  C   LIG    1       25.872 -28.251   8.209  0.00  0.00    +0.013 A 
ATOM      8  N   LIG    1       24.077 -29.038   5.285  0.00  0.00    -0.276 N 
ATOM      9  H   LIG    1       23.636 -29.647   4.606  0.00  0.00    +0.189 HD
ATOM     10  C   LIG    1       26.061 -29.488   8.841  0.00  0.00    +0.016 A 
ENDROOT
BRANCH   5  11
ATOM     11  C   LIG    1       24.917 -25.786   6.283  0.00  0.00    +0.032 C 
ATOM     12  C   LIG    1       23.936 -24.907   6.544  0.00  0.00    +0.030 C 
BRANCH  12  13
ATOM     13  C   LIG    1       24.178 -23.477   6.723  0.00  0.00    +0.064 A 
ATOM     14  N   LIG    1       25.462 -23.054   6.646  0.00  0.00    -0.256 NA
ATOM     15  C   LIG    1       25.687 -21.734   6.820  0.00  0.00    +0.111 A 
ATOM     16  C   LIG    1       24.685 -20.805   7.047  0.00  0.00    +0.020 A 
ATOM     17  C   LIG    1       23.372 -21.258   7.113  0.00  0.00    +0.004 A 
ATOM     18  C   LIG    1       23.112 -22.616   6.959  0.00  0.00    +0.028 A 
ENDBRANCH  12  13
ENDBRANCH   5  11
BRANCH   1  19
ATOM     19  S   LIG    1       25.840 -32.218   9.126  0.00  0.00    -0.089 S 
BRANCH  19  21
ATOM     20  C   LIG    1       24.141 -31.802  11.369  0.00  0.00    +0.050 A 
ATOM     21  C   LIG    1       24.368 -32.446  10.134  0.00  0.00    +0.025 A 
ATOM     22  C   LIG    1       23.354 -33.272   9.611  0.00  0.00    +0.016 A 
ATOM     23  C   LIG    1       22.161 -33.493  10.305  0.00  0.00    +0.001 A 
ATOM     24  C   LIG    1       21.940 -32.860  11.519  0.00  0.00    +0.001 A 
ATOM     25  C   LIG    1       22.920 -32.018  12.045  0.00  0.00    +0.014 A 
BRANCH  20  29
ATOM     26  C   LIG    1       25.509 -28.547  12.813  0.00  0.00    +0.128 C 
ATOM     27  N   LIG    1       24.715 -29.549  12.149  0.00  0.00    -0.314 N 
ATOM     28  H   LIG    1       23.916 -29.238  11.608  0.00  0.00    +0.149 HD
ATOM     29  C   LIG    1       25.090 -30.871  12.066  0.00  0.00    +0.245 C 
ATOM     30  O   LIG    1       26.116 -31.304  12.569  0.00  0.00    -0.270 OA
ENDBRANCH  20  29
ENDBRANCH  19  21
ENDBRANCH   1  19
TORSDOF 5
ENDMDL
MODEL 6
REMARK VINA RESULT:      -7.9      3.209      4.897
REMARK  Name = *****
REMARK                            x       y       z     vdW  Elec       q    Type
REMARK                         _______ _______ _______ _____ _____    ______ ____
ROOT
ATOM      1  C   LIG    1       25.513 -30.091   8.791  0.00  0.00    +0.015 A 
ATOM      2  C   LIG    1       24.695 -30.077   7.651  0.00  0.00    +0.043 A 
ATOM      3  C   LIG    1       24.690 -28.907   6.879  0.00  0.00    +0.067 A 
ATOM      4  C   LIG    1       25.440 -27.781   7.194  0.00  0.00    +0.027 A 
ATOM      5  C   LIG    1       25.095 -26.817   6.198  0.00  0.00    +0.093 A 
ATOM      6  N   LIG    1       24.243 -27.331   5.299  0.00  0.00    -0.173 NA
ATOM      7  C   LIG    1       26.284 -27.824   8.321  0.00  0.00    +0.013 A 
ATOM      8  N   LIG    1       24.024 -28.580   5.730  0.00  0.00    -0.276 N 
ATOM      9  H   LIG    1       23.396 -29.166   5.191  0.00  0.00    +0.189 HD
ATOM     10  C   LIG    1       26.315 -28.987   9.102  0.00  0.00    +0.016 A 
ENDROOT
BRANCH   5  11
ATOM     11  C   LIG    1       25.576 -25.470   6.164  0.00  0.00    +0.032 C 
ATOM     12  C   LIG    1       24.922 -24.416   6.678  0.00  0.00    +0.030 C 
BRANCH  12  13
ATOM     13  C   LIG    1       25.443 -23.051   6.616  0.00  0.00    +0.064 A 
ATOM     14  N   LIG    1       24.930 -22.237   5.663  0.00  0.00    -0.256 NA
ATOM     15  C   LIG    1       25.415 -20.980   5.600  0.00  0.00    +0.111 A 
ATOM     16  C   LIG    1       26.381 -20.483   6.460  0.00  0.00    +0.020 A 
ATOM     17  C   LIG    1       26.889 -21.331   7.438  0.00  0.00    +0.004 A 
ATOM     18  C   LIG    1       26.422 -22.639   7.513  0.00  0.00    +0.028 A 
ENDBRANCH  12  13
ENDBRANCH   5  11
BRANCH   1  19
ATOM     19  S   LIG    1       25.623 -31.561   9.796  0.00  0.00    -0.089 S 
BRANCH  19  21
ATOM     20  C   LIG    1       23.471 -31.073  11.589  0.00  0.00    +0.050 A 
ATOM     21  C   LIG    1       24.860 -31.058  11.345  0.00  0.00    +0.025 A 
ATOM     22  C   LIG    1       25.723 -30.692  12.397  0.00  0.00    +0.016 A 
ATOM     23  C   LIG    1       25.230 -30.311  13.647  0.00  0.00    +0.001 A 
ATOM     24  C   LIG    1       23.864 -30.324  13.886  0.00  0.00    +0.001 A 
ATOM     25  C   LIG    1       22.992 -30.706  12.866  0.00  0.00    +0.014 A 
BRANCH  20  29
ATOM     26  C   LIG    1       20.801 -33.205   9.891  0.00  0.00    +0.128 C 
ATOM     27  N   LIG    1       21.852 -32.710  10.744  0.00  0.00    -0.314 N 
ATOM     28  H   LIG    1       22.290 -33.363  11.384  0.00  0.00    +0.149 HD
ATOM     29  C   LIG    1       22.405 -31.457  10.605  0.00  0.00    +0.245 C 
ATOM     30  O   LIG    1       22.032 -30.655   9.761  0.00  0.00    -0.270 OA
ENDBRANCH  20  29
ENDBRANCH  19  21
ENDBRANCH   1  19
TORSDOF 5
ENDMDL
MODEL 7
REMARK VINA RESULT:      -7.8      1.897      2.621
REMARK  Name = *****
REMARK                            x       y       z     vdW  Elec       q    Type
REMARK                         _______ _______ _______ _____ _____    ______ ____
ROOT
ATOM      1  C   LIG    1       24.579 -27.881   5.834  0.00  0.00    +0.015 A 
ATOM      2  C   LIG    1       23.662 -26.852   6.092  0.00  0.00    +0.043 A 
ATOM      3  C   LIG    1       24.183 -25.575   6.347  0.00  0.00    +0.067 A 
ATOM      4  C   LIG    1       25.544 -25.295   6.360  0.00  0.00    +0.027 A 
ATOM      5  C   LIG    1       25.633 -23.916   6.717  0.00  0.00    +0.093 A 
ATOM      6  N   LIG    1       24.416 -23.368   6.852  0.00  0.00    -0.173 NA
ATOM      7  C   LIG    1       26.450 -26.331   6.063  0.00  0.00    +0.013 A 
ATOM      8  N   LIG    1       23.572 -24.383   6.619  0.00  0.00    -0.276 N 
ATOM      9  H   LIG    1       22.577 -24.194   6.670  0.00  0.00    +0.189 HD
ATOM     10  C   LIG    1       25.952 -27.613   5.795  0.00  0.00    +0.016 A 
ENDROOT
BRANCH   5  11
ATOM     11  C   LIG    1       26.856 -23.202   6.923  0.00  0.00    +0.032 C 
ATOM     12  C   LIG    1       26.954 -21.864   6.990  0.00  0.00    +0.030 C 
BRANCH  12  13
ATOM     13  C   LIG    1       28.224 -21.170   7.194  0.00  0.00    +0.064 A 
ATOM     14  N   LIG    1       29.002 -21.593   8.218  0.00  0.00    -0.256 NA
ATOM     15  C   LIG    1       30.171 -20.947   8.412  0.00  0.00    +0.111 A 
ATOM     16  C   LIG    1       30.616 -19.905   7.616  0.00  0.00    +0.020 A 
ATOM     17  C   LIG    1       29.808 -19.492   6.562  0.00  0.00    +0.004 A 
ATOM     18  C   LIG    1       28.587 -20.124   6.352  0.00  0.00    +0.028 A 
ENDBRANCH  12  13
ENDBRANCH   5  11
BRANCH   1  19
ATOM     19  S   LIG    1       23.998 -29.522   5.442  0.00  0.00    -0.089 S 
BRANCH  19  21
ATOM     20  C   LIG    1       25.482 -30.760   7.530  0.00  0.00    +0.050 A 
ATOM     21  C   LIG    1       25.266 -30.585   6.146  0.00  0.00    +0.025 A 
ATOM     22  C   LIG    1       26.044 -31.340   5.245  0.00  0.00    +0.016 A 
ATOM     23  C   LIG    1       27.037 -32.214   5.692  0.00  0.00    +0.001 A 
ATOM     24  C   LIG    1       27.249 -32.384   7.053  0.00  0.00    +0.001 A 
ATOM     25  C   LIG    1       26.474 -31.666   7.964  0.00  0.00    +0.014 A 
BRANCH  20  29
ATOM     26  C   LIG    1       22.816 -30.165  10.193  0.00  0.00    +0.128 C 
ATOM     27  N   LIG    1       23.613 -30.697   9.117  0.00  0.00    -0.314 N 
ATOM     28  H   LIG    1       23.253 -31.498   8.612  0.00  0.00    +0.149 HD
ATOM     29  C   LIG    1       24.737 -30.067   8.633  0.00  0.00    +0.245 C 
ATOM     30  O   LIG    1       25.161 -29.016   9.093  0.00  0.00    -0.270 OA
ENDBRANCH  20  29
ENDBRANCH  19  21
ENDBRANCH   1  19
TORSDOF 5
ENDMDL
MODEL 8
REMARK VINA RESULT:      -7.7      3.503      9.745
REMARK  Name = *****
REMARK                            x       y       z     vdW  Elec       q    Type
REMARK                         _______ _______ _______ _____ _____    ______ ____
ROOT
ATOM      1  C   LIG    1       24.572 -23.213   6.789  0.00  0.00    +0.015 A 
ATOM      2  C   LIG    1       25.840 -23.712   6.455  0.00  0.00    +0.043 A 
ATOM      3  C   LIG    1       25.949 -25.093   6.236  0.00  0.00    +0.067 A 
ATOM      4  C   LIG    1       24.876 -25.970   6.343  0.00  0.00    +0.027 A 
ATOM      5  C   LIG    1       25.433 -27.263   6.107  0.00  0.00    +0.093 A 
ATOM      6  N   LIG    1       26.739 -27.186   5.815  0.00  0.00    -0.173 NA
ATOM      7  C   LIG    1       23.603 -25.447   6.643  0.00  0.00    +0.013 A 
ATOM      8  N   LIG    1       27.016 -25.877   5.895  0.00  0.00    -0.276 N 
ATOM      9  H   LIG    1       27.967 -25.580   5.709  0.00  0.00    +0.189 HD
ATOM     10  C   LIG    1       23.468 -24.069   6.854  0.00  0.00    +0.016 A 
ENDROOT
BRANCH   5  11
ATOM     11  C   LIG    1       24.704 -28.493   6.186  0.00  0.00    +0.032 C 
ATOM     12  C   LIG    1       25.095 -29.563   6.899  0.00  0.00    +0.030 C 
BRANCH  12  13
ATOM     13  C   LIG    1       24.327 -30.806   6.949  0.00  0.00    +0.064 A 
ATOM     14  N   LIG    1       24.075 -31.424   5.771  0.00  0.00    -0.256 NA
ATOM     15  C   LIG    1       23.359 -32.567   5.815  0.00  0.00    +0.111 A 
ATOM     16  C   LIG    1       22.897 -33.141   6.988  0.00  0.00    +0.020 A 
ATOM     17  C   LIG    1       23.175 -32.497   8.188  0.00  0.00    +0.004 A 
ATOM     18  C   LIG    1       23.892 -31.305   8.171  0.00  0.00    +0.028 A 
ENDBRANCH  12  13
ENDBRANCH   5  11
BRANCH   1  19
ATOM     19  S   LIG    1       24.334 -21.460   7.025  0.00  0.00    -0.089 S 
BRANCH  19  21
ATOM     20  C   LIG    1       26.423 -20.144   5.611  0.00  0.00    +0.050 A 
ATOM     21  C   LIG    1       25.985 -20.786   6.789  0.00  0.00    +0.025 A 
ATOM     22  C   LIG    1       26.867 -20.851   7.886  0.00  0.00    +0.016 A 
ATOM     23  C   LIG    1       28.162 -20.333   7.814  0.00  0.00    +0.001 A 
ATOM     24  C   LIG    1       28.592 -19.703   6.654  0.00  0.00    +0.001 A 
ATOM     25  C   LIG    1       27.727 -19.606   5.564  0.00  0.00    +0.014 A 
BRANCH  20  29
ATOM     26  C   LIG    1       23.992 -20.971   2.790  0.00  0.00    +0.128 C 
ATOM     27  N   LIG    1       24.837 -21.016   3.956  0.00  0.00    -0.314 N 
ATOM     28  H   LIG    1       24.959 -21.909   4.418  0.00  0.00    +0.149 HD
ATOM     29  C   LIG    1       25.620 -19.957   4.357  0.00  0.00    +0.245 C 
ATOM     30  O   LIG    1       25.642 -18.886   3.769  0.00  0.00    -0.270 OA
ENDBRANCH  20  29
ENDBRANCH  19  21
ENDBRANCH   1  19
TORSDOF 5
ENDMDL
MODEL 9
REMARK VINA RESULT:      -7.6      5.958      9.159
REMARK  Name = *****
REMARK                            x       y       z     vdW  Elec       q    Type
REMARK                         _______ _______ _______ _____ _____    ______ ____
ROOT
ATOM      1  C   LIG    1       24.886 -29.789  10.286  0.00  0.00    +0.015 A 
ATOM      2  C   LIG    1       25.464 -29.116  11.372  0.00  0.00    +0.043 A 
ATOM      3  C   LIG    1       24.614 -28.736  12.420  0.00  0.00    +0.067 A 
ATOM      4  C   LIG    1       23.247 -28.989  12.423  0.00  0.00    +0.027 A 
ATOM      5  C   LIG    1       22.765 -28.388  13.625  0.00  0.00    +0.093 A 
ATOM      6  N   LIG    1       23.767 -27.860  14.342  0.00  0.00    -0.173 NA
ATOM      7  C   LIG    1       22.688 -29.698  11.342  0.00  0.00    +0.013 A 
ATOM      8  N   LIG    1       24.858 -28.088  13.599  0.00  0.00    -0.276 N 
ATOM      9  H   LIG    1       25.751 -27.766  13.954  0.00  0.00    +0.189 HD
ATOM     10  C   LIG    1       23.521 -30.097  10.289  0.00  0.00    +0.016 A 
ENDROOT
BRANCH   5  11
ATOM     11  C   LIG    1       21.389 -28.337  14.018  0.00  0.00    +0.032 C 
ATOM     12  C   LIG    1       20.508 -27.421  13.581  0.00  0.00    +0.030 C 
BRANCH  12  13
ATOM     13  C   LIG    1       19.111 -27.395  14.011  0.00  0.00    +0.064 A 
ATOM     14  N   LIG    1       18.588 -28.552  14.482  0.00  0.00    -0.256 NA
ATOM     15  C   LIG    1       17.297 -28.530  14.872  0.00  0.00    +0.111 A 
ATOM     16  C   LIG    1       16.499 -27.399  14.834  0.00  0.00    +0.020 A 
ATOM     17  C   LIG    1       17.057 -26.218  14.357  0.00  0.00    +0.004 A 
ATOM     18  C   LIG    1       18.380 -26.215  13.928  0.00  0.00    +0.028 A 
ENDBRANCH  12  13
ENDBRANCH   5  11
BRANCH   1  19
ATOM     19  S   LIG    1       25.907 -30.359   8.939  0.00  0.00    -0.089 S 
BRANCH  19  21
ATOM     20  C   LIG    1       24.603 -29.784   6.477  0.00  0.00    +0.050 A 
ATOM     21  C   LIG    1       25.383 -29.328   7.561  0.00  0.00    +0.025 A 
ATOM     22  C   LIG    1       25.724 -27.962   7.616  0.00  0.00    +0.016 A 
ATOM     23  C   LIG    1       25.342 -27.073   6.608  0.00  0.00    +0.001 A 
ATOM     24  C   LIG    1       24.576 -27.522   5.542  0.00  0.00    +0.001 A 
ATOM     25  C   LIG    1       24.206 -28.866   5.480  0.00  0.00    +0.014 A 
BRANCH  20  29
ATOM     26  C   LIG    1       24.308 -33.235   4.878  0.00  0.00    +0.128 C 
ATOM     27  N   LIG    1       24.652 -31.871   5.190  0.00  0.00    -0.314 N 
ATOM     28  H   LIG    1       25.201 -31.355   4.513  0.00  0.00    +0.149 HD
ATOM     29  C   LIG    1       24.124 -31.190   6.263  0.00  0.00    +0.245 C 
ATOM     30  O   LIG    1       23.338 -31.697   7.051  0.00  0.00    -0.270 OA
ENDBRANCH  20  29
ENDBRANCH  19  21
ENDBRANCH   1  19
TORSDOF 5
ENDMDL
