MODEL 1
REMARK VINA RESULT:      -6.3      0.000      0.000
REMARK  Name = *****
REMARK                            x       y       z     vdW  Elec       q    Type
REMARK                         _______ _______ _______ _____ _____    ______ ____
ROOT
ATOM      1  C   LIG    1       26.905 -16.939   3.457  0.00  0.00    +0.267 C 
ENDROOT
BRANCH   1   2
ATOM      2  C   LIG    1       27.575 -17.903   4.404  0.00  0.00    -0.007 A 
ATOM      3  C   LIG    1       26.902 -19.051   4.836  0.00  0.00    +0.053 A 
ATOM      4  C   LIG    1       27.505 -19.943   5.731  0.00  0.00    +0.129 A 
ATOM      5  C   LIG    1       28.807 -19.707   6.169  0.00  0.00    +0.046 A 
ATOM      6  C   LIG    1       29.475 -18.545   5.773  0.00  0.00    +0.004 A 
ATOM      7  C   LIG    1       28.863 -17.648   4.896  0.00  0.00    +0.007 A 
BRANCH   4   8
ATOM      8  O   LIG    1       26.749 -21.052   6.019  0.00  0.00    -0.456 OA
BRANCH   8   9
ATOM      9  C   LIG    1       25.377 -21.025   5.973  0.00  0.00    +0.128 A 
ATOM     10  C   LIG    1       24.831 -21.137   4.689  0.00  0.00    +0.046 A 
ATOM     11  C   LIG    1       23.452 -21.072   4.499  0.00  0.00    +0.004 A 
ATOM     12  C   LIG    1       22.610 -20.889   5.593  0.00  0.00    +0.000 A 
ATOM     13  C   LIG    1       23.150 -20.748   6.873  0.00  0.00    +0.004 A 
ATOM     14  C   LIG    1       24.534 -20.794   7.061  0.00  0.00    +0.046 A 
ENDBRANCH   8   9
ENDBRANCH   4   8
ENDBRANCH   1   2
BRANCH   1  15
ATOM     15  O   LIG    1       27.237 -15.613   3.869  0.00  0.00    -0.460 OA
BRANCH  15  16
ATOM     16  C   LIG    1       26.678 -14.626   3.125  0.00  0.00    +0.312 C 
ATOM     17  O   LIG    1       26.954 -14.334   1.971  0.00  0.00    -0.251 OA
BRANCH  16  21
ATOM     18  C   LIG    1       24.671 -12.641   1.812  0.00  0.00    +0.012 C 
ATOM     19  C   LIG    1       24.649 -12.952   3.291  0.00  0.00    -0.014 C 
ATOM     20  C   LIG    1       24.138 -14.338   3.667  0.00  0.00    +0.035 C 
ATOM     21  C   LIG    1       25.586 -13.982   3.893  0.00  0.00    +0.111 C 
ATOM     22  C   LIG    1       24.407 -11.735   4.149  0.00  0.00    +0.012 C 
BRANCH  20  23
ATOM     23  C   LIG    1       23.262 -14.538   4.833  0.00  0.00    +0.010 C 
ATOM     24  C   LIG    1       22.625 -15.664   5.194  0.00  0.00    +0.103 C 
ATOM     25 CL   LIG    1       21.624 -15.681   6.601  0.00  0.00    -0.071 Cl
ATOM     26 CL   LIG    1       22.759 -17.129   4.290  0.00  0.00    -0.071 Cl
ENDBRANCH  20  23
ENDBRANCH  16  21
ENDBRANCH  15  16
ENDBRANCH   1  15
TORSDOF 7
ENDMDL
MODEL 2
REMARK VINA RESULT:      -4.8      2.555      4.771
REMARK  Name = *****
REMARK                            x       y       z     vdW  Elec       q    Type
REMARK                         _______ _______ _______ _____ _____    ______ ____
ROOT
ATOM      1  C   LIG    1       22.690 -18.308   4.065  0.00  0.00    +0.267 C 
ENDROOT
BRANCH   1   2
ATOM      2  C   LIG    1       23.269 -19.396   4.935  0.00  0.00    -0.007 A 
ATOM      3  C   LIG    1       24.582 -19.835   4.738  0.00  0.00    +0.053 A 
ATOM      4  C   LIG    1       25.124 -20.857   5.525  0.00  0.00    +0.129 A 
ATOM      5  C   LIG    1       24.359 -21.422   6.544  0.00  0.00    +0.046 A 
ATOM      6  C   LIG    1       23.034 -21.019   6.726  0.00  0.00    +0.004 A 
ATOM      7  C   LIG    1       22.491 -20.011   5.926  0.00  0.00    +0.007 A 
BRANCH   4   8
ATOM      8  O   LIG    1       26.440 -21.141   5.257  0.00  0.00    -0.456 OA
BRANCH   8   9
ATOM      9  C   LIG    1       27.443 -20.239   5.517  0.00  0.00    +0.128 A 
ATOM     10  C   LIG    1       28.202 -20.519   6.657  0.00  0.00    +0.046 A 
ATOM     11  C   LIG    1       29.217 -19.654   7.062  0.00  0.00    +0.004 A 
ATOM     12  C   LIG    1       29.475 -18.498   6.328  0.00  0.00    +0.000 A 
ATOM     13  C   LIG    1       28.702 -18.198   5.205  0.00  0.00    +0.004 A 
ATOM     14  C   LIG    1       27.671 -19.057   4.811  0.00  0.00    +0.046 A 
ENDBRANCH   8   9
ENDBRANCH   4   8
ENDBRANCH   1   2
BRANCH   1  15
ATOM     15  O   LIG    1       23.668 -17.274   3.943  0.00  0.00    -0.460 OA
BRANCH  15  16
ATOM     16  C   LIG    1       23.261 -16.050   4.363  0.00  0.00    +0.312 C 
ATOM     17  O   LIG    1       22.383 -15.811   5.178  0.00  0.00    -0.251 OA
BRANCH  16  21
ATOM     18  C   LIG    1       23.131 -13.069   5.247  0.00  0.00    +0.012 C 
ATOM     19  C   LIG    1       24.007 -13.536   4.107  0.00  0.00    -0.014 C 
ATOM     20  C   LIG    1       25.235 -14.345   4.506  0.00  0.00    +0.035 C 
ATOM     21  C   LIG    1       24.112 -15.005   3.746  0.00  0.00    +0.111 C 
ATOM     22  C   LIG    1       24.000 -12.591   2.930  0.00  0.00    +0.012 C 
BRANCH  20  23
ATOM     23  C   LIG    1       26.530 -14.147   3.834  0.00  0.00    +0.010 C 
ATOM     24  C   LIG    1       27.625 -13.547   4.329  0.00  0.00    +0.103 C 
ATOM     25 CL   LIG    1       29.048 -13.403   3.362  0.00  0.00    -0.071 Cl
ATOM     26 CL   LIG    1       27.674 -12.893   5.926  0.00  0.00    -0.071 Cl
ENDBRANCH  20  23
ENDBRANCH  16  21
ENDBRANCH  15  16
ENDBRANCH   1  15
TORSDOF 7
ENDMDL
MODEL 3
REMARK VINA RESULT:      -3.7      2.661      3.501
REMARK  Name = *****
REMARK                            x       y       z     vdW  Elec       q    Type
REMARK                         _______ _______ _______ _____ _____    ______ ____
ROOT
ATOM      1  C   LIG    1       28.290 -18.384   4.206  0.00  0.00    +0.267 C 
ENDROOT
BRANCH   1   2
ATOM      2  C   LIG    1       27.955 -19.463   5.206  0.00  0.00    -0.007 A 
ATOM      3  C   LIG    1       26.672 -20.020   5.240  0.00  0.00    +0.053 A 
ATOM      4  C   LIG    1       26.342 -21.007   6.176  0.00  0.00    +0.129 A 
ATOM      5  C   LIG    1       27.314 -21.470   7.062  0.00  0.00    +0.046 A 
ATOM      6  C   LIG    1       28.588 -20.895   7.062  0.00  0.00    +0.004 A 
ATOM      7  C   LIG    1       28.907 -19.897   6.139  0.00  0.00    +0.007 A 
BRANCH   4   8
ATOM      8  O   LIG    1       25.068 -21.501   6.052  0.00  0.00    -0.456 OA
BRANCH   8   9
ATOM      9  C   LIG    1       24.081 -20.803   5.400  0.00  0.00    +0.128 A 
ATOM     10  C   LIG    1       24.176 -20.821   4.005  0.00  0.00    +0.046 A 
ATOM     11  C   LIG    1       23.266 -20.108   3.225  0.00  0.00    +0.004 A 
ATOM     12  C   LIG    1       22.258 -19.369   3.840  0.00  0.00    +0.000 A 
ATOM     13  C   LIG    1       22.175 -19.324   5.233  0.00  0.00    +0.004 A 
ATOM     14  C   LIG    1       23.100 -20.024   6.014  0.00  0.00    +0.046 A 
ENDBRANCH   8   9
ENDBRANCH   4   8
ENDBRANCH   1   2
BRANCH   1  15
ATOM     15  O   LIG    1       27.411 -17.281   4.435  0.00  0.00    -0.460 OA
BRANCH  15  16
ATOM     16  C   LIG    1       26.513 -17.052   3.445  0.00  0.00    +0.312 C 
ATOM     17  O   LIG    1       25.713 -17.851   2.983  0.00  0.00    -0.251 OA
BRANCH  16  21
ATOM     18  C   LIG    1       24.256 -15.031   4.163  0.00  0.00    +0.012 C 
ATOM     19  C   LIG    1       25.445 -14.646   3.314  0.00  0.00    -0.014 C 
ATOM     20  C   LIG    1       26.773 -14.524   4.051  0.00  0.00    +0.035 C 
ATOM     21  C   LIG    1       26.571 -15.627   3.043  0.00  0.00    +0.111 C 
ATOM     22  C   LIG    1       25.078 -13.762   2.146  0.00  0.00    +0.012 C 
BRANCH  20  23
ATOM     23  C   LIG    1       27.721 -13.440   3.743  0.00  0.00    +0.010 C 
ATOM     24  C   LIG    1       28.421 -12.693   4.612  0.00  0.00    +0.103 C 
ATOM     25 CL   LIG    1       29.474 -11.452   4.038  0.00  0.00    -0.071 Cl
ATOM     26 CL   LIG    1       28.307 -12.919   6.320  0.00  0.00    -0.071 Cl
ENDBRANCH  20  23
ENDBRANCH  16  21
ENDBRANCH  15  16
ENDBRANCH   1  15
TORSDOF 7
ENDMDL
