MODEL 1
REMARK VINA RESULT:      -6.9      0.000      0.000
REMARK  Name = *****
REMARK                            x       y       z     vdW  Elec       q    Type
REMARK                         _______ _______ _______ _____ _____    ______ ____
ROOT
ATOM      1  C   LIG    1       24.845 -22.621   6.230  0.00  0.00    +0.024 C 
ATOM      2  C   LIG    1       25.685 -23.402   7.274  0.00  0.00    +0.028 C 
ATOM      3  C   LIG    1       25.150 -21.051   6.156  0.00  0.00    -0.014 C 
ATOM      4  C   LIG    1       25.488 -20.511   4.750  0.00  0.00    +0.013 C 
ATOM      5  C   LIG    1       26.310 -20.599   7.074  0.00  0.00    +0.013 C 
ATOM      6  C   LIG    1       23.808 -20.424   6.687  0.00  0.00    -0.003 C 
ATOM      7  C   LIG    1       23.348 -21.436   7.739  0.00  0.00    +0.009 C 
ATOM      8  C   LIG    1       22.661 -20.558   5.668  0.00  0.00    +0.004 C 
ATOM      9  C   LIG    1       22.372 -22.062   5.677  0.00  0.00    +0.005 C 
ATOM     10  C   LIG    1       23.352 -22.601   6.745  0.00  0.00    +0.010 C 
ENDROOT
BRANCH   1  12
ATOM     11  C   LIG    1       25.046 -24.778   5.005  0.00  0.00    +0.101 C 
ATOM     12  N   LIG    1       24.886 -23.332   4.938  0.00  0.00    -0.313 NA
ATOM     13  H   LIG    1       24.037 -23.127   4.409  0.00  0.00    +0.122 HD
ENDBRANCH   1  12
TORSDOF 1
ENDMDL
MODEL 2
REMARK VINA RESULT:      -6.7      1.240      3.498
REMARK  Name = *****
REMARK                            x       y       z     vdW  Elec       q    Type
REMARK                         _______ _______ _______ _____ _____    ______ ____
ROOT
ATOM      1  C   LIG    1       24.412 -21.270   5.710  0.00  0.00    +0.024 C 
ATOM      2  C   LIG    1       23.045 -20.537   5.723  0.00  0.00    +0.028 C 
ATOM      3  C   LIG    1       24.410 -22.716   6.395  0.00  0.00    -0.014 C 
ATOM      4  C   LIG    1       24.963 -23.861   5.520  0.00  0.00    +0.013 C 
ATOM      5  C   LIG    1       23.012 -23.179   6.866  0.00  0.00    +0.013 C 
ATOM      6  C   LIG    1       25.322 -22.489   7.657  0.00  0.00    -0.003 C 
ATOM      7  C   LIG    1       24.999 -21.049   8.061  0.00  0.00    +0.009 C 
ATOM      8  C   LIG    1       26.808 -22.334   7.282  0.00  0.00    +0.004 C 
ATOM      9  C   LIG    1       26.840 -20.975   6.578  0.00  0.00    +0.005 C 
ATOM     10  C   LIG    1       25.376 -20.488   6.686  0.00  0.00    +0.010 C 
ENDROOT
BRANCH   1  12
ATOM     11  C   LIG    1       24.842 -19.953   3.642  0.00  0.00    +0.101 C 
ATOM     12  N   LIG    1       24.982 -21.218   4.349  0.00  0.00    -0.313 NA
ATOM     13  H   LIG    1       25.973 -21.459   4.385  0.00  0.00    +0.122 HD
ENDBRANCH   1  12
TORSDOF 1
ENDMDL
MODEL 3
REMARK VINA RESULT:      -6.2      1.006      1.134
REMARK  Name = *****
REMARK                            x       y       z     vdW  Elec       q    Type
REMARK                         _______ _______ _______ _____ _____    ______ ____
ROOT
ATOM      1  C   LIG    1       25.238 -22.443   6.212  0.00  0.00    +0.024 C 
ATOM      2  C   LIG    1       26.576 -22.364   6.993  0.00  0.00    +0.028 C 
ATOM      3  C   LIG    1       24.893 -21.152   5.331  0.00  0.00    -0.014 C 
ATOM      4  C   LIG    1       24.577 -21.432   3.846  0.00  0.00    +0.013 C 
ATOM      5  C   LIG    1       26.008 -20.082   5.333  0.00  0.00    +0.013 C 
ATOM      6  C   LIG    1       23.630 -20.572   6.070  0.00  0.00    -0.003 C 
ATOM      7  C   LIG    1       23.914 -20.893   7.539  0.00  0.00    +0.009 C 
ATOM      8  C   LIG    1       22.376 -21.436   5.845  0.00  0.00    +0.004 C 
ATOM      9  C   LIG    1       22.692 -22.707   6.638  0.00  0.00    +0.005 C 
ATOM     10  C   LIG    1       24.069 -22.393   7.271  0.00  0.00    +0.010 C 
ENDROOT
BRANCH   1  12
ATOM     11  C   LIG    1       25.651 -24.898   6.221  0.00  0.00    +0.101 C 
ATOM     12  N   LIG    1       25.166 -23.732   5.496  0.00  0.00    -0.313 NA
ATOM     13  H   LIG    1       24.203 -23.909   5.209  0.00  0.00    +0.122 HD
ENDBRANCH   1  12
TORSDOF 1
ENDMDL
MODEL 4
REMARK VINA RESULT:      -5.9      1.330      2.871
REMARK  Name = *****
REMARK                            x       y       z     vdW  Elec       q    Type
REMARK                         _______ _______ _______ _____ _____    ______ ____
ROOT
ATOM      1  C   LIG    1       24.793 -22.566   6.383  0.00  0.00    +0.024 C 
ATOM      2  C   LIG    1       25.094 -23.370   5.091  0.00  0.00    +0.028 C 
ATOM      3  C   LIG    1       24.673 -20.983   6.182  0.00  0.00    -0.014 C 
ATOM      4  C   LIG    1       23.377 -20.345   6.725  0.00  0.00    +0.013 C 
ATOM      5  C   LIG    1       24.781 -20.534   4.706  0.00  0.00    +0.013 C 
ATOM      6  C   LIG    1       25.928 -20.450   6.968  0.00  0.00    -0.003 C 
ATOM      7  C   LIG    1       26.973 -21.543   6.728  0.00  0.00    +0.009 C 
ATOM      8  C   LIG    1       25.756 -20.575   8.493  0.00  0.00    +0.004 C 
ATOM      9  C   LIG    1       25.817 -22.088   8.719  0.00  0.00    +0.005 C 
ATOM     10  C   LIG    1       26.076 -22.646   7.299  0.00  0.00    +0.010 C 
ENDROOT
BRANCH   1  12
ATOM     11  C   LIG    1       23.263 -24.514   6.629  0.00  0.00    +0.101 C 
ATOM     12  N   LIG    1       23.666 -23.196   7.099  0.00  0.00    -0.313 NA
ATOM     13  H   LIG    1       23.890 -23.264   8.093  0.00  0.00    +0.122 HD
ENDBRANCH   1  12
TORSDOF 1
ENDMDL
MODEL 5
REMARK VINA RESULT:      -5.9      1.109      1.910
REMARK  Name = *****
REMARK                            x       y       z     vdW  Elec       q    Type
REMARK                         _______ _______ _______ _____ _____    ______ ____
ROOT
ATOM      1  C   LIG    1       24.098 -22.252   5.770  0.00  0.00    +0.024 C 
ATOM      2  C   LIG    1       23.194 -22.988   6.793  0.00  0.00    +0.028 C 
ATOM      3  C   LIG    1       24.895 -20.994   6.354  0.00  0.00    -0.014 C 
ATOM      4  C   LIG    1       26.421 -21.013   6.119  0.00  0.00    +0.013 C 
ATOM      5  C   LIG    1       24.703 -20.787   7.874  0.00  0.00    +0.013 C 
ATOM      6  C   LIG    1       24.229 -19.791   5.589  0.00  0.00    -0.003 C 
ATOM      7  C   LIG    1       22.772 -20.238   5.449  0.00  0.00    +0.009 C 
ATOM      8  C   LIG    1       24.638 -19.747   4.105  0.00  0.00    +0.004 C 
ATOM      9  C   LIG    1       23.928 -20.970   3.520  0.00  0.00    +0.005 C 
ATOM     10  C   LIG    1       23.149 -21.537   4.730  0.00  0.00    +0.010 C 
ENDROOT
BRANCH   1  12
ATOM     11  C   LIG    1       25.115 -24.523   5.710  0.00  0.00    +0.101 C 
ATOM     12  N   LIG    1       24.922 -23.241   5.048  0.00  0.00    -0.313 NA
ATOM     13  H   LIG    1       24.519 -23.413   4.126  0.00  0.00    +0.122 HD
ENDBRANCH   1  12
TORSDOF 1
ENDMDL
MODEL 6
REMARK VINA RESULT:      -5.8      1.082      2.943
REMARK  Name = *****
REMARK                            x       y       z     vdW  Elec       q    Type
REMARK                         _______ _______ _______ _____ _____    ______ ____
ROOT
ATOM      1  C   LIG    1       25.151 -21.479   5.836  0.00  0.00    +0.024 C 
ATOM      2  C   LIG    1       26.134 -20.416   6.393  0.00  0.00    +0.028 C 
ATOM      3  C   LIG    1       23.727 -21.529   6.564  0.00  0.00    -0.014 C 
ATOM      4  C   LIG    1       22.504 -21.419   5.628  0.00  0.00    +0.013 C 
ATOM      5  C   LIG    1       23.539 -20.433   7.638  0.00  0.00    +0.013 C 
ATOM      6  C   LIG    1       23.762 -22.934   7.272  0.00  0.00    -0.003 C 
ATOM      7  C   LIG    1       25.234 -23.086   7.661  0.00  0.00    +0.009 C 
ATOM      8  C   LIG    1       23.630 -24.095   6.269  0.00  0.00    +0.004 C 
ATOM      9  C   LIG    1       24.963 -24.047   5.518  0.00  0.00    +0.005 C 
ATOM     10  C   LIG    1       25.723 -22.899   6.222  0.00  0.00    +0.010 C 
ENDROOT
BRANCH   1  12
ATOM     11  C   LIG    1       25.227 -20.038   3.809  0.00  0.00    +0.101 C 
ATOM     12  N   LIG    1       25.103 -21.378   4.365  0.00  0.00    -0.313 NA
ATOM     13  H   LIG    1       25.834 -21.963   3.959  0.00  0.00    +0.122 HD
ENDBRANCH   1  12
TORSDOF 1
ENDMDL
MODEL 7
REMARK VINA RESULT:      -5.6      1.628      3.226
REMARK  Name = *****
REMARK                            x       y       z     vdW  Elec       q    Type
REMARK                         _______ _______ _______ _____ _____    ______ ____
ROOT
ATOM      1  C   LIG    1       24.925 -21.135   6.430  0.00  0.00    +0.024 C 
ATOM      2  C   LIG    1       26.467 -21.208   6.280  0.00  0.00    +0.028 C 
ATOM      3  C   LIG    1       24.136 -22.436   5.934  0.00  0.00    -0.014 C 
ATOM      4  C   LIG    1       23.166 -23.052   6.966  0.00  0.00    +0.013 C 
ATOM      5  C   LIG    1       25.061 -23.590   5.481  0.00  0.00    +0.013 C 
ATOM      6  C   LIG    1       23.349 -21.895   4.684  0.00  0.00    -0.003 C 
ATOM      7  C   LIG    1       24.314 -20.866   4.090  0.00  0.00    +0.009 C 
ATOM      8  C   LIG    1       22.185 -20.969   5.085  0.00  0.00    +0.004 C 
ATOM      9  C   LIG    1       22.907 -19.725   5.610  0.00  0.00    +0.005 C 
ATOM     10  C   LIG    1       24.400 -20.066   5.393  0.00  0.00    +0.010 C 
ENDROOT
BRANCH   1  12
ATOM     11  C   LIG    1       25.677 -20.671   8.757  0.00  0.00    +0.101 C 
ATOM     12  N   LIG    1       24.588 -20.673   7.790  0.00  0.00    -0.313 NA
ATOM     13  H   LIG    1       24.197 -19.732   7.744  0.00  0.00    +0.122 HD
ENDBRANCH   1  12
TORSDOF 1
ENDMDL
MODEL 8
REMARK VINA RESULT:      -5.6      1.170      2.313
REMARK  Name = *****
REMARK                            x       y       z     vdW  Elec       q    Type
REMARK                         _______ _______ _______ _____ _____    ______ ____
ROOT
ATOM      1  C   LIG    1       24.705 -22.169   5.384  0.00  0.00    +0.024 C 
ATOM      2  C   LIG    1       24.733 -23.552   4.681  0.00  0.00    +0.028 C 
ATOM      3  C   LIG    1       25.373 -22.137   6.838  0.00  0.00    -0.014 C 
ATOM      4  C   LIG    1       26.457 -21.058   7.042  0.00  0.00    +0.013 C 
ATOM      5  C   LIG    1       26.024 -23.477   7.253  0.00  0.00    +0.013 C 
ATOM      6  C   LIG    1       24.133 -21.864   7.769  0.00  0.00    -0.003 C 
ATOM      7  C   LIG    1       23.002 -22.615   7.063  0.00  0.00    +0.009 C 
ATOM      8  C   LIG    1       23.616 -20.419   7.641  0.00  0.00    +0.004 C 
ATOM      9  C   LIG    1       23.010 -20.399   6.235  0.00  0.00    +0.005 C 
ATOM     10  C   LIG    1       23.201 -21.855   5.748  0.00  0.00    +0.010 C 
ENDROOT
BRANCH   1  12
ATOM     11  C   LIG    1       24.340 -20.872   3.291  0.00  0.00    +0.101 C 
ATOM     12  N   LIG    1       25.186 -21.135   4.447  0.00  0.00    -0.313 NA
ATOM     13  H   LIG    1       25.326 -20.258   4.949  0.00  0.00    +0.122 HD
ENDBRANCH   1  12
TORSDOF 1
ENDMDL
MODEL 9
REMARK VINA RESULT:      -5.5      1.427      2.990
REMARK  Name = *****
REMARK                            x       y       z     vdW  Elec       q    Type
REMARK                         _______ _______ _______ _____ _____    ______ ____
ROOT
ATOM      1  C   LIG    1       25.641 -21.497   6.988  0.00  0.00    +0.024 C 
ATOM      2  C   LIG    1       25.431 -20.644   8.267  0.00  0.00    +0.028 C 
ATOM      3  C   LIG    1       24.489 -21.357   5.886  0.00  0.00    -0.014 C 
ATOM      4  C   LIG    1       24.975 -20.992   4.467  0.00  0.00    +0.013 C 
ATOM      5  C   LIG    1       23.407 -20.313   6.246  0.00  0.00    +0.013 C 
ATOM      6  C   LIG    1       23.838 -22.790   5.901  0.00  0.00    -0.003 C 
ATOM      7  C   LIG    1       23.950 -23.204   7.370  0.00  0.00    +0.009 C 
ATOM      8  C   LIG    1       24.749 -23.850   5.254  0.00  0.00    +0.004 C 
ATOM      9  C   LIG    1       25.893 -23.975   6.263  0.00  0.00    +0.005 C 
ATOM     10  C   LIG    1       25.470 -23.012   7.397  0.00  0.00    +0.010 C 
ENDROOT
BRANCH   1  12
ATOM     11  C   LIG    1       28.061 -21.220   7.502  0.00  0.00    +0.101 C 
ATOM     12  N   LIG    1       27.017 -21.299   6.490  0.00  0.00    -0.313 NA
ATOM     13  H   LIG    1       27.255 -22.049   5.840  0.00  0.00    +0.122 HD
ENDBRANCH   1  12
TORSDOF 1
ENDMDL
