MODEL 1
REMARK VINA RESULT:      -4.7      0.000      0.000
REMARK  Name = *****
REMARK                            x       y       z     vdW  Elec       q    Type
REMARK                         _______ _______ _______ _____ _____    ______ ____
ROOT
ATOM      1  C   LIG    1       25.917 -20.531   5.073  0.00  0.00    +0.196 A 
ATOM      2  C   LIG    1       27.043 -19.714   5.049  0.00  0.00    +0.355 A 
ATOM      3  N   LIG    1       27.999 -19.840   5.996  0.00  0.00    -0.203 N 
ATOM      4  C   LIG    1       29.171 -18.954   5.923  0.00  0.00    +0.438 C 
ATOM      5  C   LIG    1       27.883 -20.753   6.986  0.00  0.00    +0.309 A 
ATOM      6  C   LIG    1       26.758 -21.570   7.062  0.00  0.00    +0.073 A 
ATOM      7  C   LIG    1       25.758 -21.453   6.101  0.00  0.00    +0.058 A 
ENDROOT
BRANCH   1   8
ATOM      8  O   LIG    1       24.878 -20.436   4.132  0.00  0.00    -0.405 OA
BRANCH   8  11
ATOM      9  C   LIG    1       22.375 -20.487   5.176  0.00  0.00    +0.135 C 
ATOM     10  N   LIG    1       22.901 -19.293   4.534  0.00  0.00    -0.273 N 
ATOM     11  C   LIG    1       24.162 -19.240   3.970  0.00  0.00    +0.408 C 
ATOM     12  O   LIG    1       24.620 -18.265   3.387  0.00  0.00    -0.226 OA
ATOM     13  C   LIG    1       21.957 -18.220   4.276  0.00  0.00    +0.135 C 
ENDBRANCH   8  11
ENDBRANCH   1   8
TORSDOF 2
ENDMDL
MODEL 2
REMARK VINA RESULT:      -4.1      1.677      4.895
REMARK  Name = *****
REMARK                            x       y       z     vdW  Elec       q    Type
REMARK                         _______ _______ _______ _____ _____    ______ ____
ROOT
ATOM      1  C   LIG    1       25.740 -20.246   4.834  0.00  0.00    +0.196 A 
ATOM      2  C   LIG    1       25.041 -20.929   5.824  0.00  0.00    +0.355 A 
ATOM      3  N   LIG    1       23.696 -20.822   5.907  0.00  0.00    -0.203 N 
ATOM      4  C   LIG    1       23.003 -21.567   6.969  0.00  0.00    +0.438 C 
ATOM      5  C   LIG    1       23.003 -20.050   5.040  0.00  0.00    +0.309 A 
ATOM      6  C   LIG    1       23.670 -19.327   4.053  0.00  0.00    +0.073 A 
ATOM      7  C   LIG    1       25.055 -19.417   3.954  0.00  0.00    +0.058 A 
ENDROOT
BRANCH   1   8
ATOM      8  O   LIG    1       27.139 -20.298   4.707  0.00  0.00    -0.405 OA
BRANCH   8  11
ATOM      9  C   LIG    1       28.682 -21.046   6.809  0.00  0.00    +0.135 C 
ATOM     10  N   LIG    1       28.737 -19.695   6.276  0.00  0.00    -0.273 N 
ATOM     11  C   LIG    1       27.947 -19.273   5.222  0.00  0.00    +0.408 C 
ATOM     12  O   LIG    1       27.939 -18.132   4.776  0.00  0.00    -0.226 OA
ATOM     13  C   LIG    1       29.474 -18.715   7.054  0.00  0.00    +0.135 C 
ENDBRANCH   8  11
ENDBRANCH   1   8
TORSDOF 2
ENDMDL
MODEL 3
REMARK VINA RESULT:      -4.0      1.410      5.066
REMARK  Name = *****
REMARK                            x       y       z     vdW  Elec       q    Type
REMARK                         _______ _______ _______ _____ _____    ______ ____
ROOT
ATOM      1  C   LIG    1       25.082 -20.220   5.024  0.00  0.00    +0.196 A 
ATOM      2  C   LIG    1       24.200 -19.271   4.518  0.00  0.00    +0.355 A 
ATOM      3  N   LIG    1       22.865 -19.462   4.610  0.00  0.00    -0.203 N 
ATOM      4  C   LIG    1       21.974 -18.428   4.062  0.00  0.00    +0.438 C 
ATOM      5  C   LIG    1       22.358 -20.575   5.187  0.00  0.00    +0.309 A 
ATOM      6  C   LIG    1       23.209 -21.562   5.680  0.00  0.00    +0.073 A 
ATOM      7  C   LIG    1       24.587 -21.389   5.589  0.00  0.00    +0.058 A 
ENDROOT
BRANCH   1   8
ATOM      8  O   LIG    1       26.479 -20.091   4.941  0.00  0.00    -0.405 OA
BRANCH   8  11
ATOM      9  C   LIG    1       28.721 -18.582   5.184  0.00  0.00    +0.135 C 
ATOM     10  N   LIG    1       28.420 -19.644   6.130  0.00  0.00    -0.273 N 
ATOM     11  C   LIG    1       27.300 -20.448   6.022  0.00  0.00    +0.408 C 
ATOM     12  O   LIG    1       27.038 -21.376   6.777  0.00  0.00    -0.226 OA
ATOM     13  C   LIG    1       29.472 -20.006   7.062  0.00  0.00    +0.135 C 
ENDBRANCH   8  11
ENDBRANCH   1   8
TORSDOF 2
ENDMDL
MODEL 4
REMARK VINA RESULT:      -4.0      4.256      5.431
REMARK  Name = *****
REMARK                            x       y       z     vdW  Elec       q    Type
REMARK                         _______ _______ _______ _____ _____    ______ ____
ROOT
ATOM      1  C   LIG    1       25.902 -15.662   3.474  0.00  0.00    +0.196 A 
ATOM      2  C   LIG    1       27.121 -14.991   3.487  0.00  0.00    +0.355 A 
ATOM      3  N   LIG    1       27.195 -13.717   3.933  0.00  0.00    -0.203 N 
ATOM      4  C   LIG    1       28.507 -13.054   3.929  0.00  0.00    +0.438 C 
ATOM      5  C   LIG    1       26.092 -13.067   4.370  0.00  0.00    +0.309 A 
ATOM      6  C   LIG    1       24.849 -13.695   4.345  0.00  0.00    +0.073 A 
ATOM      7  C   LIG    1       24.749 -15.003   3.884  0.00  0.00    +0.058 A 
ENDROOT
BRANCH   1   8
ATOM      8  O   LIG    1       25.755 -16.978   3.003  0.00  0.00    -0.405 OA
BRANCH   8  11
ATOM      9  C   LIG    1       23.996 -18.994   3.450  0.00  0.00    +0.135 C 
ATOM     10  N   LIG    1       25.374 -19.080   3.905  0.00  0.00    -0.273 N 
ATOM     11  C   LIG    1       26.290 -18.062   3.716  0.00  0.00    +0.408 C 
ATOM     12  O   LIG    1       27.446 -18.085   4.122  0.00  0.00    -0.226 OA
ATOM     13  C   LIG    1       25.700 -20.178   4.798  0.00  0.00    +0.135 C 
ENDBRANCH   8  11
ENDBRANCH   1   8
TORSDOF 2
ENDMDL
MODEL 5
REMARK VINA RESULT:      -3.9      2.865      4.542
REMARK  Name = *****
REMARK                            x       y       z     vdW  Elec       q    Type
REMARK                         _______ _______ _______ _____ _____    ______ ____
ROOT
ATOM      1  C   LIG    1       24.963 -18.526   3.687  0.00  0.00    +0.196 A 
ATOM      2  C   LIG    1       25.507 -19.602   4.380  0.00  0.00    +0.355 A 
ATOM      3  N   LIG    1       24.708 -20.441   5.077  0.00  0.00    -0.203 N 
ATOM      4  C   LIG    1       25.333 -21.566   5.789  0.00  0.00    +0.438 C 
ATOM      5  C   LIG    1       23.370 -20.251   5.122  0.00  0.00    +0.309 A 
ATOM      6  C   LIG    1       22.790 -19.168   4.466  0.00  0.00    +0.073 A 
ATOM      7  C   LIG    1       23.594 -18.289   3.748  0.00  0.00    +0.058 A 
ENDROOT
BRANCH   1   8
ATOM      8  O   LIG    1       25.740 -17.606   2.962  0.00  0.00    -0.405 OA
BRANCH   8  11
ATOM      9  C   LIG    1       25.413 -14.914   3.000  0.00  0.00    +0.135 C 
ATOM     10  N   LIG    1       26.579 -15.541   3.602  0.00  0.00    -0.273 N 
ATOM     11  C   LIG    1       26.789 -16.907   3.579  0.00  0.00    +0.408 C 
ATOM     12  O   LIG    1       27.778 -17.463   4.040  0.00  0.00    -0.226 OA
ATOM     13  C   LIG    1       27.655 -14.659   4.014  0.00  0.00    +0.135 C 
ENDBRANCH   8  11
ENDBRANCH   1   8
TORSDOF 2
ENDMDL
MODEL 6
REMARK VINA RESULT:      -3.6      3.831      5.163
REMARK  Name = *****
REMARK                            x       y       z     vdW  Elec       q    Type
REMARK                         _______ _______ _______ _____ _____    ______ ____
ROOT
ATOM      1  C   LIG    1       26.002 -16.250   3.445  0.00  0.00    +0.196 A 
ATOM      2  C   LIG    1       27.133 -15.442   3.497  0.00  0.00    +0.355 A 
ATOM      3  N   LIG    1       27.029 -14.140   3.844  0.00  0.00    -0.203 N 
ATOM      4  C   LIG    1       28.255 -13.330   3.887  0.00  0.00    +0.438 C 
ATOM      5  C   LIG    1       25.828 -13.593   4.142  0.00  0.00    +0.309 A 
ATOM      6  C   LIG    1       24.668 -14.361   4.073  0.00  0.00    +0.073 A 
ATOM      7  C   LIG    1       24.753 -15.702   3.712  0.00  0.00    +0.058 A 
ENDROOT
BRANCH   1   8
ATOM      8  O   LIG    1       26.041 -17.604   3.072  0.00  0.00    -0.405 OA
BRANCH   8  11
ATOM      9  C   LIG    1       27.223 -19.388   4.740  0.00  0.00    +0.135 C 
ATOM     10  N   LIG    1       25.788 -19.411   4.504  0.00  0.00    -0.273 N 
ATOM     11  C   LIG    1       25.157 -18.533   3.642  0.00  0.00    +0.408 C 
ATOM     12  O   LIG    1       23.958 -18.551   3.390  0.00  0.00    -0.226 OA
ATOM     13  C   LIG    1       25.060 -20.558   5.014  0.00  0.00    +0.135 C 
ENDBRANCH   8  11
ENDBRANCH   1   8
TORSDOF 2
ENDMDL
MODEL 7
REMARK VINA RESULT:      -3.5      4.210      5.652
REMARK  Name = *****
REMARK                            x       y       z     vdW  Elec       q    Type
REMARK                         _______ _______ _______ _____ _____    ______ ____
ROOT
ATOM      1  C   LIG    1       26.038 -15.677   3.453  0.00  0.00    +0.196 A 
ATOM      2  C   LIG    1       24.997 -14.796   3.727  0.00  0.00    +0.355 A 
ATOM      3  N   LIG    1       25.258 -13.547   4.175  0.00  0.00    -0.203 N 
ATOM      4  C   LIG    1       24.122 -12.654   4.446  0.00  0.00    +0.438 C 
ATOM      5  C   LIG    1       26.529 -13.129   4.370  0.00  0.00    +0.309 A 
ATOM      6  C   LIG    1       27.598 -13.991   4.135  0.00  0.00    +0.073 A 
ATOM      7  C   LIG    1       27.351 -15.282   3.681  0.00  0.00    +0.058 A 
ENDROOT
BRANCH   1   8
ATOM      8  O   LIG    1       25.833 -16.993   3.006  0.00  0.00    -0.405 OA
BRANCH   8  11
ATOM      9  C   LIG    1       24.004 -18.945   3.455  0.00  0.00    +0.135 C 
ATOM     10  N   LIG    1       25.373 -19.071   3.927  0.00  0.00    -0.273 N 
ATOM     11  C   LIG    1       26.324 -18.085   3.737  0.00  0.00    +0.408 C 
ATOM     12  O   LIG    1       27.474 -18.143   4.156  0.00  0.00    -0.226 OA
ATOM     13  C   LIG    1       25.653 -20.169   4.835  0.00  0.00    +0.135 C 
ENDBRANCH   8  11
ENDBRANCH   1   8
TORSDOF 2
ENDMDL
MODEL 8
REMARK VINA RESULT:      -3.5      3.690      5.295
REMARK  Name = *****
REMARK                            x       y       z     vdW  Elec       q    Type
REMARK                         _______ _______ _______ _____ _____    ______ ____
ROOT
ATOM      1  C   LIG    1       26.139 -16.353   3.435  0.00  0.00    +0.196 A 
ATOM      2  C   LIG    1       25.042 -15.500   3.505  0.00  0.00    +0.355 A 
ATOM      3  N   LIG    1       25.199 -14.215   3.891  0.00  0.00    -0.203 N 
ATOM      4  C   LIG    1       24.008 -13.354   3.945  0.00  0.00    +0.438 C 
ATOM      5  C   LIG    1       26.418 -13.730   4.222  0.00  0.00    +0.309 A 
ATOM      6  C   LIG    1       27.536 -14.559   4.193  0.00  0.00    +0.073 A 
ATOM      7  C   LIG    1       27.396 -15.888   3.805  0.00  0.00    +0.058 A 
ENDROOT
BRANCH   1   8
ATOM      8  O   LIG    1       26.040 -17.704   3.063  0.00  0.00    -0.405 OA
BRANCH   8  11
ATOM      9  C   LIG    1       27.136 -19.532   4.741  0.00  0.00    +0.135 C 
ATOM     10  N   LIG    1       25.697 -19.455   4.544  0.00  0.00    -0.273 N 
ATOM     11  C   LIG    1       25.108 -18.553   3.678  0.00  0.00    +0.408 C 
ATOM     12  O   LIG    1       23.904 -18.490   3.458  0.00  0.00    -0.226 OA
ATOM     13  C   LIG    1       24.903 -20.535   5.101  0.00  0.00    +0.135 C 
ENDBRANCH   8  11
ENDBRANCH   1   8
TORSDOF 2
ENDMDL
MODEL 9
REMARK VINA RESULT:      -3.4      3.120      4.687
REMARK  Name = *****
REMARK                            x       y       z     vdW  Elec       q    Type
REMARK                         _______ _______ _______ _____ _____    ______ ____
ROOT
ATOM      1  C   LIG    1       25.127 -17.932   3.582  0.00  0.00    +0.196 A 
ATOM      2  C   LIG    1       23.832 -18.331   3.897  0.00  0.00    +0.355 A 
ATOM      3  N   LIG    1       23.610 -19.521   4.497  0.00  0.00    -0.203 N 
ATOM      4  C   LIG    1       22.222 -19.893   4.812  0.00  0.00    +0.438 C 
ATOM      5  C   LIG    1       24.634 -20.350   4.800  0.00  0.00    +0.309 A 
ATOM      6  C   LIG    1       25.942 -20.001   4.475  0.00  0.00    +0.073 A 
ATOM      7  C   LIG    1       26.193 -18.783   3.850  0.00  0.00    +0.058 A 
ENDROOT
BRANCH   1   8
ATOM      8  O   LIG    1       25.423 -16.718   2.939  0.00  0.00    -0.405 OA
BRANCH   8  11
ATOM      9  C   LIG    1       24.028 -14.604   3.908  0.00  0.00    +0.135 C 
ATOM     10  N   LIG    1       25.469 -14.695   4.071  0.00  0.00    -0.273 N 
ATOM     11  C   LIG    1       26.214 -15.746   3.568  0.00  0.00    +0.408 C 
ATOM     12  O   LIG    1       27.434 -15.833   3.653  0.00  0.00    -0.226 OA
ATOM     13  C   LIG    1       26.147 -13.510   4.565  0.00  0.00    +0.135 C 
ENDBRANCH   8  11
ENDBRANCH   1   8
TORSDOF 2
ENDMDL
