MODEL 1
REMARK VINA RESULT:       4.4      0.000      0.000
REMARK  Name = *****
REMARK                            x       y       z     vdW  Elec       q    Type
REMARK                         _______ _______ _______ _____ _____    ______ ____
ROOT
ATOM      1  N   LIG    1       25.082 -19.594   4.884  0.00  0.00    -0.293 NA
ATOM      2  C   LIG    1       26.281 -19.202   4.031  0.00  0.00    +0.094 C 
ATOM      3  C   LIG    1       25.382 -19.868   3.159  0.00  0.00    +0.096 C 
ATOM      4  C   LIG    1       24.042 -18.534   3.478  0.00  0.00    +0.075 C 
ATOM      5  C   LIG    1       23.303 -18.380   5.190  0.00  0.00    +0.253 C 
ATOM      6  O   LIG    1       22.451 -17.230   4.943  0.00  0.00    -0.476 OA
ATOM      7  C   LIG    1       23.334 -16.408   4.191  0.00  0.00    +0.167 A 
ATOM      8  C   LIG    1       23.501 -15.064   4.449  0.00  0.00    +0.159 A 
ATOM      9  C   LIG    1       24.733 -14.485   4.139  0.00  0.00    +0.049 A 
ATOM     10  C   LIG    1       25.815 -15.300   3.731  0.00  0.00    +0.008 A 
ATOM     11  C   LIG    1       25.617 -16.667   3.514  0.00  0.00    -0.038 A 
ATOM     12  C   LIG    1       23.070 -20.016   6.101  0.00  0.00    +0.174 C 
ATOM     13  O   LIG    1       22.296 -20.106   7.062  0.00  0.00    -0.293 OA
ATOM     14  C   LIG    1       23.967 -21.570   5.484  0.00  0.00    +0.081 C 
ATOM     15  C   LIG    1       24.321 -17.113   3.500  0.00  0.00    +0.014 A 
ATOM     16  C   LIG    1       22.981 -19.168   2.790  0.00  0.00    +0.034 C 
ATOM     17  C   LIG    1       25.190 -21.572   4.045  0.00  0.00    +0.045 C 
ATOM     18  C   LIG    1       26.695 -17.734   3.581  0.00  0.00    +0.057 C 
ATOM     19  C   LIG    1       23.466 -20.148   3.850  0.00  0.00    +0.086 C 
ENDROOT
BRANCH   3  20
ATOM     20  O   LIG    1       25.761 -20.012   1.812  0.00  0.00    -0.386 OA
ATOM     21  H   LIG    1       25.697 -20.958   1.590  0.00  0.00    +0.210 HD
ENDBRANCH   3  20
BRANCH   8  22
ATOM     22  O   LIG    1       22.556 -14.339   5.103  0.00  0.00    -0.503 OA
ATOM     23  H   LIG    1       22.467 -14.753   5.983  0.00  0.00    +0.292 HD
ENDBRANCH   8  22
BRANCH   1  24
ATOM     24  C   LIG    1       25.672 -19.851   6.280  0.00  0.00    +0.111 C 
BRANCH  24  26
ATOM     25  C   LIG    1       27.710 -21.182   7.012  0.00  0.00    +0.005 C 
ATOM     26  C   LIG    1       27.147 -20.205   6.289  0.00  0.00    -0.019 C 
ENDBRANCH  24  26
ENDBRANCH   1  24
TORSDOF 4
ENDMDL
MODEL 2
REMARK VINA RESULT:       6.5      1.884      3.342
REMARK  Name = *****
REMARK                            x       y       z     vdW  Elec       q    Type
REMARK                         _______ _______ _______ _____ _____    ______ ____
ROOT
ATOM      1  N   LIG    1       23.743 -19.331   4.716  0.00  0.00    -0.293 NA
ATOM      2  C   LIG    1       24.650 -20.548   4.829  0.00  0.00    +0.094 C 
ATOM      3  C   LIG    1       24.173 -20.540   3.493  0.00  0.00    +0.096 C 
ATOM      4  C   LIG    1       25.000 -18.839   3.180  0.00  0.00    +0.075 C 
ATOM      5  C   LIG    1       24.377 -17.339   4.109  0.00  0.00    +0.253 C 
ATOM      6  O   LIG    1       25.340 -16.374   3.610  0.00  0.00    -0.476 OA
ATOM      7  C   LIG    1       26.538 -17.135   3.689  0.00  0.00    +0.167 A 
ATOM      8  C   LIG    1       27.705 -16.633   4.225  0.00  0.00    +0.159 A 
ATOM      9  C   LIG    1       28.595 -17.531   4.816  0.00  0.00    +0.049 A 
ATOM     10  C   LIG    1       28.219 -18.883   4.998  0.00  0.00    +0.008 A 
ATOM     11  C   LIG    1       27.010 -19.348   4.471  0.00  0.00    -0.038 A 
ATOM     12  C   LIG    1       22.514 -17.308   4.399  0.00  0.00    +0.174 C 
ATOM     13  O   LIG    1       21.930 -16.252   4.676  0.00  0.00    -0.293 OA
ATOM     14  C   LIG    1       21.501 -18.897   4.177  0.00  0.00    +0.081 C 
ATOM     15  C   LIG    1       26.344 -18.515   3.610  0.00  0.00    +0.014 A 
ATOM     16  C   LIG    1       24.452 -18.599   1.897  0.00  0.00    +0.034 C 
ATOM     17  C   LIG    1       22.264 -20.577   3.776  0.00  0.00    +0.045 C 
ATOM     18  C   LIG    1       26.234 -20.550   4.979  0.00  0.00    +0.057 C 
ATOM     19  C   LIG    1       23.279 -18.805   2.847  0.00  0.00    +0.086 C 
ENDROOT
BRANCH   3  20
ATOM     20  O   LIG    1       24.600 -21.571   2.637  0.00  0.00    -0.386 OA
ATOM     21  H   LIG    1       24.558 -22.404   3.139  0.00  0.00    +0.210 HD
ENDBRANCH   3  20
BRANCH   8  22
ATOM     22  O   LIG    1       27.939 -15.296   4.303  0.00  0.00    -0.503 OA
ATOM     23  H   LIG    1       27.840 -15.065   5.246  0.00  0.00    +0.292 HD
ENDBRANCH   8  22
BRANCH   1  24
ATOM     24  C   LIG    1       23.131 -19.177   6.117  0.00  0.00    +0.111 C 
BRANCH  24  26
ATOM     25  C   LIG    1       22.927 -21.571   6.948  0.00  0.00    +0.005 C 
ATOM     26  C   LIG    1       23.416 -20.329   7.062  0.00  0.00    -0.019 C 
ENDBRANCH  24  26
ENDBRANCH   1  24
TORSDOF 4
ENDMDL
MODEL 3
REMARK VINA RESULT:       7.4      1.889      5.154
REMARK  Name = *****
REMARK                            x       y       z     vdW  Elec       q    Type
REMARK                         _______ _______ _______ _____ _____    ______ ____
ROOT
ATOM      1  N   LIG    1       23.090 -18.795   5.038  0.00  0.00    -0.293 NA
ATOM      2  C   LIG    1       22.607 -20.009   5.819  0.00  0.00    +0.094 C 
ATOM      3  C   LIG    1       22.402 -20.319   4.450  0.00  0.00    +0.096 C 
ATOM      4  C   LIG    1       24.283 -20.170   4.107  0.00  0.00    +0.075 C 
ATOM      5  C   LIG    1       25.110 -18.501   4.286  0.00  0.00    +0.253 C 
ATOM      6  O   LIG    1       26.475 -18.919   4.019  0.00  0.00    -0.476 OA
ATOM      7  C   LIG    1       26.535 -20.118   4.780  0.00  0.00    +0.167 A 
ATOM      8  C   LIG    1       27.589 -20.416   5.616  0.00  0.00    +0.159 A 
ATOM      9  C   LIG    1       27.337 -21.221   6.729  0.00  0.00    +0.049 A 
ATOM     10  C   LIG    1       26.007 -21.570   7.062  0.00  0.00    +0.008 A 
ATOM     11  C   LIG    1       24.958 -21.219   6.207  0.00  0.00    -0.038 A 
ATOM     12  C   LIG    1       24.055 -17.034   3.745  0.00  0.00    +0.174 C 
ATOM     13  O   LIG    1       24.572 -15.941   3.481  0.00  0.00    -0.293 OA
ATOM     14  C   LIG    1       22.185 -17.256   3.516  0.00  0.00    +0.081 C 
ATOM     15  C   LIG    1       25.298 -20.736   4.970  0.00  0.00    +0.014 A 
ATOM     16  C   LIG    1       24.224 -20.283   2.697  0.00  0.00    +0.034 C 
ATOM     17  C   LIG    1       21.265 -18.859   3.901  0.00  0.00    +0.045 C 
ATOM     18  C   LIG    1       23.507 -21.050   6.619  0.00  0.00    +0.057 C 
ATOM     19  C   LIG    1       23.340 -19.104   3.082  0.00  0.00    +0.086 C 
ENDROOT
BRANCH   3  20
ATOM     20  O   LIG    1       21.843 -21.571   4.137  0.00  0.00    -0.386 OA
ATOM     21  H   LIG    1       21.913 -21.690   3.174  0.00  0.00    +0.210 HD
ENDBRANCH   3  20
BRANCH   8  22
ATOM     22  O   LIG    1       28.814 -19.849   5.454  0.00  0.00    -0.503 OA
ATOM     23  H   LIG    1       28.929 -19.246   6.213  0.00  0.00    +0.292 HD
ENDBRANCH   8  22
BRANCH   1  24
ATOM     24  C   LIG    1       22.800 -17.603   5.965  0.00  0.00    +0.111 C 
BRANCH  24  26
ATOM     25  C   LIG    1       21.845 -15.252   5.808  0.00  0.00    +0.005 C 
ATOM     26  C   LIG    1       21.972 -16.499   5.335  0.00  0.00    -0.019 C 
ENDBRANCH  24  26
ENDBRANCH   1  24
TORSDOF 4
ENDMDL
