MODEL 1
REMARK VINA RESULT:      72.7      0.000      0.000
REMARK  Name = *****
REMARK                            x       y       z     vdW  Elec       q    Type
REMARK                         _______ _______ _______ _____ _____    ______ ____
ROOT
ATOM      1  C   LIG    1       27.151 -18.441   3.534  0.00  0.00    +0.264 C 
ATOM      2  C   LIG    1       26.873 -19.745   4.352  0.00  0.00    +0.257 C 
ATOM      3  O   LIG    1       27.818 -20.526   4.542  0.00  0.00    -0.272 OA
ATOM      4  N   LIG    1       25.573 -20.146   4.673  0.00  0.00    -0.288 N 
ATOM      5  C   LIG    1       25.362 -21.564   4.377  0.00  0.00    +0.133 C 
ATOM      6  C   LIG    1       24.839 -19.733   5.926  0.00  0.00    +0.187 C 
ATOM      7  C   LIG    1       23.417 -19.107   5.685  0.00  0.00    +0.329 C 
ATOM      8  O   LIG    1       22.712 -18.689   6.570  0.00  0.00    -0.249 OA
ATOM      9  O   LIG    1       22.991 -19.192   4.395  0.00  0.00    -0.450 OA
ATOM     10  C   LIG    1       21.680 -18.685   4.040  0.00  0.00    +0.264 C 
ATOM     11  C   LIG    1       21.325 -17.193   4.416  0.00  0.00    +0.257 C 
ATOM     12  O   LIG    1       20.233 -16.855   4.869  0.00  0.00    -0.272 OA
ATOM     13  N   LIG    1       22.276 -16.224   4.029  0.00  0.00    -0.288 N 
ATOM     14  C   LIG    1       22.196 -15.980   2.587  0.00  0.00    +0.133 C 
ATOM     15  C   LIG    1       22.367 -14.946   4.843  0.00  0.00    +0.187 C 
ATOM     16  C   LIG    1       23.622 -14.040   4.510  0.00  0.00    +0.329 C 
ATOM     17  O   LIG    1       23.741 -12.895   4.900  0.00  0.00    -0.249 OA
ATOM     18  O   LIG    1       24.538 -14.653   3.707  0.00  0.00    -0.450 OA
ATOM     19  C   LIG    1       25.588 -13.893   3.068  0.00  0.00    +0.264 C 
ATOM     20  C   LIG    1       26.653 -13.175   3.946  0.00  0.00    +0.257 C 
ATOM     21  O   LIG    1       26.484 -12.022   4.348  0.00  0.00    -0.272 OA
ATOM     22  N   LIG    1       27.924 -13.767   4.001  0.00  0.00    -0.288 N 
ATOM     23  C   LIG    1       29.041 -12.831   3.937  0.00  0.00    +0.133 C 
ATOM     24  C   LIG    1       28.184 -15.020   4.765  0.00  0.00    +0.187 C 
ATOM     25  C   LIG    1       28.025 -16.268   3.862  0.00  0.00    +0.329 C 
ATOM     26  O   LIG    1       28.687 -16.382   2.830  0.00  0.00    -0.249 OA
ATOM     27  O   LIG    1       27.123 -17.208   4.291  0.00  0.00    -0.450 OA
ENDROOT
BRANCH   1  29
ATOM     28  C   LIG    1       25.739 -16.995   1.966  0.00  0.00    +0.011 C 
ATOM     29  C   LIG    1       26.394 -18.341   2.179  0.00  0.00    +0.033 C 
ATOM     30  C   LIG    1       25.356 -19.447   1.974  0.00  0.00    +0.011 C 
ENDBRANCH   1  29
BRANCH   6  31
ATOM     31  C   LIG    1       25.644 -19.010   7.062  0.00  0.00    +0.014 C 
ATOM     32  C   LIG    1       27.143 -19.396   7.034  0.00  0.00    +0.009 C 
ATOM     33  C   LIG    1       25.631 -17.476   6.966  0.00  0.00    +0.009 C 
ENDBRANCH   6  31
BRANCH  10  34
ATOM     34  C   LIG    1       20.567 -19.725   4.370  0.00  0.00    +0.033 C 
ATOM     35  C   LIG    1       19.352 -19.676   3.443  0.00  0.00    +0.011 C 
ATOM     36  C   LIG    1       21.100 -21.162   4.430  0.00  0.00    +0.011 C 
ENDBRANCH  10  34
BRANCH  15  37
ATOM     37  C   LIG    1       22.183 -15.147   6.389  0.00  0.00    +0.014 C 
ATOM     38  C   LIG    1       20.812 -14.748   6.913  0.00  0.00    +0.009 C 
ATOM     39  C   LIG    1       22.493 -16.564   6.886  0.00  0.00    +0.009 C 
ENDBRANCH  15  37
BRANCH  19  40
ATOM     40  C   LIG    1       25.058 -12.845   2.022  0.00  0.00    +0.033 C 
ATOM     41  C   LIG    1       23.546 -12.600   2.173  0.00  0.00    +0.011 C 
ATOM     42  C   LIG    1       25.767 -11.494   2.100  0.00  0.00    +0.011 C 
ENDBRANCH  19  40
BRANCH  24  43
ATOM     43  C   LIG    1       27.583 -15.047   6.194  0.00  0.00    +0.014 C 
ATOM     44  C   LIG    1       28.136 -13.902   7.056  0.00  0.00    +0.009 C 
ATOM     45  C   LIG    1       26.056 -14.862   6.207  0.00  0.00    +0.009 C 
ENDBRANCH  24  43
TORSDOF 6
ENDMDL
