MODEL 1
REMARK VINA RESULT:       6.3      0.000      0.000
REMARK  Name = *****
REMARK                            x       y       z     vdW  Elec       q    Type
REMARK                         _______ _______ _______ _____ _____    ______ ____
ROOT
ATOM      1  N   LIG    1       23.525 -21.048   4.020  0.00  0.00    -0.302 NA
ATOM      2  C   LIG    1       23.998 -20.185   2.939  0.00  0.00    +0.085 C 
ATOM      3  C   LIG    1       24.205 -18.733   3.362  0.00  0.00    +0.022 C 
ATOM      4  C   LIG    1       25.175 -18.529   4.550  0.00  0.00    +0.032 C 
ATOM      5  C   LIG    1       24.804 -19.554   5.655  0.00  0.00    +0.022 C 
ATOM      6  C   LIG    1       24.416 -20.965   5.186  0.00  0.00    +0.085 C 
ENDROOT
BRANCH   1   7
ATOM      7  C   LIG    1       22.097 -20.841   4.315  0.00  0.00    +0.084 C 
BRANCH   7   8
ATOM      8  C   LIG    1       21.413 -19.889   3.318  0.00  0.00    +0.018 C 
BRANCH   8   9
ATOM      9  C   LIG    1       20.693 -18.688   3.960  0.00  0.00    +0.037 C 
BRANCH   9  10
ATOM     10  C   LIG    1       21.385 -18.147   5.228  0.00  0.00    +0.144 C 
BRANCH  10  14
ATOM     11  C   LIG    1       23.436 -14.353   4.624  0.00  0.00    -0.031 A 
ATOM     12  C   LIG    1       23.384 -15.327   3.610  0.00  0.00    +0.005 A 
ATOM     13  C   LIG    1       22.708 -16.538   3.794  0.00  0.00    +0.006 A 
ATOM     14  C   LIG    1       22.054 -16.810   4.996  0.00  0.00    -0.019 A 
ATOM     15  C   LIG    1       22.026 -15.807   5.972  0.00  0.00    +0.006 A 
ATOM     16  C   LIG    1       22.699 -14.602   5.789  0.00  0.00    +0.005 A 
BRANCH  11  18
ATOM     17  C   LIG    1       25.588 -13.133   5.209  0.00  0.00    +0.027 C 
ATOM     18  C   LIG    1       24.238 -13.038   4.462  0.00  0.00    +0.087 C 
ATOM     19  C   LIG    1       23.458 -11.851   5.080  0.00  0.00    +0.027 C 
BRANCH  18  20
ATOM     20  C   LIG    1       24.517 -12.732   2.986  0.00  0.00    +0.315 C 
ATOM     21  O   LIG    1       25.656 -12.616   2.483  0.00  0.00    -0.250 OA
BRANCH  20  22
ATOM     22  O   LIG    1       23.417 -12.572   2.198  0.00  0.00    -0.480 OA
ATOM     23  H   LIG    1       23.526 -12.905   1.286  0.00  0.00    +0.295 HD
ENDBRANCH  20  22
ENDBRANCH  18  20
ENDBRANCH  11  18
ENDBRANCH  10  14
BRANCH  10  24
ATOM     24  O   LIG    1       22.378 -19.058   5.694  0.00  0.00    -0.387 OA
ATOM     25  H   LIG    1       22.378 -18.979   6.668  0.00  0.00    +0.210 HD
ENDBRANCH  10  24
ENDBRANCH   9  10
ENDBRANCH   8   9
ENDBRANCH   7   8
ENDBRANCH   1   7
BRANCH   4  26
ATOM     26  C   LIG    1       26.716 -18.489   4.167  0.00  0.00    +0.119 C 
BRANCH  26  27
ATOM     27  C   LIG    1       27.593 -19.247   5.208  0.00  0.00    -0.011 A 
ATOM     28  C   LIG    1       28.680 -18.641   5.871  0.00  0.00    +0.007 A 
ATOM     29  C   LIG    1       29.475 -19.353   6.786  0.00  0.00    +0.000 A 
ATOM     30  C   LIG    1       29.207 -20.690   7.060  0.00  0.00    +0.000 A 
ATOM     31  C   LIG    1       28.130 -21.308   6.439  0.00  0.00    +0.000 A 
ATOM     32  C   LIG    1       27.332 -20.595   5.534  0.00  0.00    +0.007 A 
ENDBRANCH  26  27
BRANCH  26  33
ATOM     33  C   LIG    1       27.241 -17.033   3.944  0.00  0.00    -0.011 A 
ATOM     34  C   LIG    1       28.247 -16.469   4.757  0.00  0.00    +0.007 A 
ATOM     35  C   LIG    1       28.675 -15.141   4.585  0.00  0.00    +0.000 A 
ATOM     36  C   LIG    1       28.111 -14.341   3.596  0.00  0.00    +0.000 A 
ATOM     37  C   LIG    1       27.122 -14.868   2.777  0.00  0.00    +0.000 A 
ATOM     38  C   LIG    1       26.706 -16.197   2.939  0.00  0.00    +0.007 A 
ENDBRANCH  26  33
BRANCH  26  39
ATOM     39  O   LIG    1       26.817 -19.217   2.929  0.00  0.00    -0.379 OA
ATOM     40  H   LIG    1       26.360 -20.061   3.053  0.00  0.00    +0.211 HD
ENDBRANCH  26  39
ENDBRANCH   4  26
TORSDOF 13
ENDMDL
MODEL 2
REMARK VINA RESULT:       7.9      1.060      1.711
REMARK  Name = *****
REMARK                            x       y       z     vdW  Elec       q    Type
REMARK                         _______ _______ _______ _____ _____    ______ ____
ROOT
ATOM      1  N   LIG    1       24.221 -20.912   4.111  0.00  0.00    -0.302 NA
ATOM      2  C   LIG    1       24.687 -20.224   2.908  0.00  0.00    +0.085 C 
ATOM      3  C   LIG    1       24.641 -18.703   3.017  0.00  0.00    +0.022 C 
ATOM      4  C   LIG    1       25.434 -18.107   4.204  0.00  0.00    +0.032 C 
ATOM      5  C   LIG    1       25.089 -18.929   5.475  0.00  0.00    +0.022 C 
ATOM      6  C   LIG    1       24.956 -20.450   5.297  0.00  0.00    +0.085 C 
ENDROOT
BRANCH   1   7
ATOM      7  C   LIG    1       22.754 -20.880   4.240  0.00  0.00    +0.084 C 
BRANCH   7   8
ATOM      8  C   LIG    1       22.086 -19.934   3.227  0.00  0.00    +0.018 C 
BRANCH   8   9
ATOM      9  C   LIG    1       21.102 -18.920   3.839  0.00  0.00    +0.037 C 
BRANCH   9  10
ATOM     10  C   LIG    1       21.562 -18.337   5.191  0.00  0.00    +0.144 C 
BRANCH  10  14
ATOM     11  C   LIG    1       23.323 -14.386   4.682  0.00  0.00    -0.031 A 
ATOM     12  C   LIG    1       22.553 -14.705   5.816  0.00  0.00    +0.005 A 
ATOM     13  C   LIG    1       22.004 -15.979   5.992  0.00  0.00    +0.006 A 
ATOM     14  C   LIG    1       22.214 -16.980   5.043  0.00  0.00    -0.019 A 
ATOM     15  C   LIG    1       23.055 -16.695   3.961  0.00  0.00    +0.006 A 
ATOM     16  C   LIG    1       23.601 -15.426   3.785  0.00  0.00    +0.005 A 
BRANCH  11  18
ATOM     17  C   LIG    1       22.799 -11.900   4.746  0.00  0.00    +0.027 C 
ATOM     18  C   LIG    1       23.879 -12.962   4.438  0.00  0.00    +0.087 C 
ATOM     19  C   LIG    1       24.278 -12.786   2.951  0.00  0.00    +0.027 C 
BRANCH  18  20
ATOM     20  C   LIG    1       25.104 -12.682   5.315  0.00  0.00    +0.315 C 
ATOM     21  O   LIG    1       26.091 -13.442   5.427  0.00  0.00    -0.250 OA
BRANCH  20  22
ATOM     22  O   LIG    1       25.076 -11.514   6.014  0.00  0.00    -0.480 OA
ATOM     23  H   LIG    1       25.256 -10.720   5.474  0.00  0.00    +0.295 HD
ENDBRANCH  20  22
ENDBRANCH  18  20
ENDBRANCH  11  18
ENDBRANCH  10  14
BRANCH  10  24
ATOM     24  O   LIG    1       22.498 -19.205   5.828  0.00  0.00    -0.387 OA
ATOM     25  H   LIG    1       23.330 -18.697   5.896  0.00  0.00    +0.210 HD
ENDBRANCH  10  24
ENDBRANCH   9  10
ENDBRANCH   8   9
ENDBRANCH   7   8
ENDBRANCH   1   7
BRANCH   4  26
ATOM     26  C   LIG    1       26.988 -17.900   3.946  0.00  0.00    +0.119 C 
BRANCH  26  27
ATOM     27  C   LIG    1       27.855 -18.548   5.066  0.00  0.00    -0.011 A 
ATOM     28  C   LIG    1       28.649 -17.787   5.948  0.00  0.00    +0.007 A 
ATOM     29  C   LIG    1       29.445 -18.395   6.934  0.00  0.00    +0.000 A 
ATOM     30  C   LIG    1       29.472 -19.780   7.062  0.00  0.00    +0.000 A 
ATOM     31  C   LIG    1       28.683 -20.555   6.222  0.00  0.00    +0.000 A 
ATOM     32  C   LIG    1       27.882 -19.947   5.246  0.00  0.00    +0.007 A 
ENDBRANCH  26  27
BRANCH  26  33
ATOM     33  C   LIG    1       27.367 -16.397   3.740  0.00  0.00    -0.011 A 
ATOM     34  C   LIG    1       26.722 -15.588   2.780  0.00  0.00    +0.007 A 
ATOM     35  C   LIG    1       27.105 -14.253   2.564  0.00  0.00    +0.000 A 
ATOM     36  C   LIG    1       28.143 -13.690   3.301  0.00  0.00    +0.000 A 
ATOM     37  C   LIG    1       28.794 -14.458   4.256  0.00  0.00    +0.000 A 
ATOM     38  C   LIG    1       28.401 -15.785   4.482  0.00  0.00    +0.007 A 
ENDBRANCH  26  33
BRANCH  26  39
ATOM     39  O   LIG    1       27.268 -18.622   2.732  0.00  0.00    -0.379 OA
ATOM     40  H   LIG    1       27.985 -18.157   2.279  0.00  0.00    +0.211 HD
ENDBRANCH  26  39
ENDBRANCH   4  26
TORSDOF 13
ENDMDL
MODEL 3
REMARK VINA RESULT:       8.8      1.838      6.385
REMARK  Name = *****
REMARK                            x       y       z     vdW  Elec       q    Type
REMARK                         _______ _______ _______ _____ _____    ______ ____
ROOT
ATOM      1  N   LIG    1       27.713 -17.910   4.848  0.00  0.00    -0.302 NA
ATOM      2  C   LIG    1       28.360 -16.665   4.438  0.00  0.00    +0.085 C 
ATOM      3  C   LIG    1       28.017 -16.237   3.013  0.00  0.00    +0.022 C 
ATOM      4  C   LIG    1       26.506 -16.068   2.727  0.00  0.00    +0.032 C 
ATOM      5  C   LIG    1       25.766 -17.304   3.305  0.00  0.00    +0.022 C 
ATOM      6  C   LIG    1       26.258 -17.831   4.662  0.00  0.00    +0.085 C 
ENDROOT
BRANCH   1   7
ATOM      7  C   LIG    1       28.352 -19.094   4.247  0.00  0.00    +0.084 C 
BRANCH   7   8
ATOM      8  C   LIG    1       28.935 -20.056   5.297  0.00  0.00    +0.018 C 
BRANCH   8   9
ATOM      9  C   LIG    1       27.969 -21.155   5.776  0.00  0.00    +0.037 C 
BRANCH   9  10
ATOM     10  C   LIG    1       26.854 -20.646   6.713  0.00  0.00    +0.144 C 
BRANCH  10  14
ATOM     11  C   LIG    1       22.891 -20.818   4.915  0.00  0.00    -0.031 A 
ATOM     12  C   LIG    1       24.055 -20.907   4.131  0.00  0.00    +0.005 A 
ATOM     13  C   LIG    1       25.330 -20.873   4.708  0.00  0.00    +0.006 A 
ATOM     14  C   LIG    1       25.480 -20.758   6.090  0.00  0.00    -0.019 A 
ATOM     15  C   LIG    1       24.324 -20.761   6.880  0.00  0.00    +0.006 A 
ATOM     16  C   LIG    1       23.056 -20.794   6.306  0.00  0.00    +0.005 A 
BRANCH  11  18
ATOM     17  C   LIG    1       20.461 -21.510   5.200  0.00  0.00    +0.027 C 
ATOM     18  C   LIG    1       21.476 -20.784   4.287  0.00  0.00    +0.087 C 
ATOM     19  C   LIG    1       21.472 -21.523   2.925  0.00  0.00    +0.027 C 
BRANCH  18  20
ATOM     20  C   LIG    1       20.995 -19.345   4.069  0.00  0.00    +0.315 C 
ATOM     21  O   LIG    1       21.630 -18.321   4.405  0.00  0.00    -0.250 OA
BRANCH  20  22
ATOM     22  O   LIG    1       19.779 -19.213   3.470  0.00  0.00    -0.480 OA
ATOM     23  H   LIG    1       19.818 -18.858   2.561  0.00  0.00    +0.295 HD
ENDBRANCH  20  22
ENDBRANCH  18  20
ENDBRANCH  11  18
ENDBRANCH  10  14
BRANCH  10  24
ATOM     24  O   LIG    1       27.066 -19.280   7.061  0.00  0.00    -0.387 OA
ATOM     25  H   LIG    1       27.435 -19.290   7.966  0.00  0.00    +0.210 HD
ENDBRANCH  10  24
ENDBRANCH   9  10
ENDBRANCH   8   9
ENDBRANCH   7   8
ENDBRANCH   1   7
BRANCH   4  26
ATOM     26  C   LIG    1       25.890 -14.665   3.145  0.00  0.00    +0.119 C 
BRANCH  26  27
ATOM     27  C   LIG    1       26.928 -13.772   3.888  0.00  0.00    -0.011 A 
ATOM     28  C   LIG    1       27.011 -13.715   5.295  0.00  0.00    +0.007 A 
ATOM     29  C   LIG    1       27.938 -12.881   5.944  0.00  0.00    +0.000 A 
ATOM     30  C   LIG    1       28.802 -12.079   5.206  0.00  0.00    +0.000 A 
ATOM     31  C   LIG    1       28.758 -12.130   3.819  0.00  0.00    +0.000 A 
ATOM     32  C   LIG    1       27.841 -12.970   3.172  0.00  0.00    +0.007 A 
ENDBRANCH  26  27
BRANCH  26  33
ATOM     33  C   LIG    1       24.575 -14.812   3.979  0.00  0.00    -0.011 A 
ATOM     34  C   LIG    1       24.120 -13.793   4.843  0.00  0.00    +0.007 A 
ATOM     35  C   LIG    1       22.967 -13.954   5.629  0.00  0.00    +0.000 A 
ATOM     36  C   LIG    1       22.237 -15.137   5.576  0.00  0.00    +0.000 A 
ATOM     37  C   LIG    1       22.656 -16.158   4.733  0.00  0.00    +0.000 A 
ATOM     38  C   LIG    1       23.797 -15.991   3.937  0.00  0.00    +0.007 A 
ENDBRANCH  26  33
BRANCH  26  39
ATOM     39  O   LIG    1       25.584 -14.003   1.904  0.00  0.00    -0.379 OA
ATOM     40  H   LIG    1       25.303 -14.682   1.275  0.00  0.00    +0.211 HD
ENDBRANCH  26  39
ENDBRANCH   4  26
TORSDOF 13
ENDMDL
