MODEL 1
REMARK VINA RESULT:      -6.5      0.000      0.000
REMARK  Name = *****
REMARK                            x       y       z     vdW  Elec       q    Type
REMARK                         _______ _______ _______ _____ _____    ______ ____
ROOT
ATOM      1  CA  GLU A  1       30.435 -19.549   8.185  0.00  0.00    +0.183 C 
ENDROOT
BRANCH   1   6
ATOM      2  N   UNK A  0       28.175 -19.802   5.333  0.00  0.00    -0.313 N 
ATOM      3  H   UNK A  0       27.383 -20.169   5.845  0.00  0.00    +0.146 HD
ATOM      4  H   UNK A  0       27.922 -19.258   4.516  0.00  0.00    +0.146 HD
ATOM      5  C   UNK A  0       29.166 -19.252   6.067  0.00  0.00    +0.298 C 
ATOM      6  N   GLU A  1       29.386 -19.919   7.229  0.00  0.00    -0.286 N 
ATOM      7  H   GLU A  1       29.172 -20.907   7.177  0.00  0.00    +0.151 HD
ATOM      8  O   UNK A  0       29.758 -18.245   5.733  0.00  0.00    -0.253 OA
ENDBRANCH   1   6
BRANCH   1   9
ATOM      9  C   GLU A  1       31.058 -20.788   8.885  0.00  0.00    +0.325 C 
ATOM     10  O   GLU A  1       32.213 -20.812   9.293  0.00  0.00    -0.249 OA
BRANCH   9  11
ATOM     11  OXT GLU A  1       30.229 -21.835   9.092  0.00  0.00    -0.479 OA
ATOM     12  HXT GLU A  1       29.976 -21.970  10.038  0.00  0.00    +0.295 HD
ENDBRANCH   9  11
ENDBRANCH   1   9
BRANCH   1  13
ATOM     13  CB  GLU A  1       29.984 -18.477   9.202  0.00  0.00    +0.045 C 
BRANCH  13  14
ATOM     14  CG  GLU A  1       30.611 -17.086   9.033  0.00  0.00    +0.123 C 
BRANCH  14  15
ATOM     15  CD  GLU A  1       32.051 -16.993   9.467  0.00  0.00    +0.305 C 
ATOM     16  OE1 GLU A  1       32.531 -17.710  10.332  0.00  0.00    -0.251 OA
BRANCH  15  17
ATOM     17  OE2 GLU A  1       32.770 -16.050   8.824  0.00  0.00    -0.481 OA
ATOM     18  HE2 GLU A  1       33.573 -16.368   8.369  0.00  0.00    +0.295 HD
ENDBRANCH  15  17
ENDBRANCH  14  15
ENDBRANCH  13  14
ENDBRANCH   1  13
TORSDOF 7
ENDMDL
MODEL 2
REMARK VINA RESULT:      -6.3      2.033      3.281
REMARK  Name = *****
REMARK                            x       y       z     vdW  Elec       q    Type
REMARK                         _______ _______ _______ _____ _____    ______ ____
ROOT
ATOM      1  CA  GLU A  1       29.624 -19.950   8.228  0.00  0.00    +0.183 C 
ENDROOT
BRANCH   1   6
ATOM      2  N   UNK A  0       32.143 -22.575   8.502  0.00  0.00    -0.313 N 
ATOM      3  H   UNK A  0       32.813 -22.159   7.867  0.00  0.00    +0.146 HD
ATOM      4  H   UNK A  0       32.561 -23.152   9.222  0.00  0.00    +0.146 HD
ATOM      5  C   UNK A  0       31.158 -21.768   8.954  0.00  0.00    +0.298 C 
ATOM      6  N   GLU A  1       30.716 -20.903   8.005  0.00  0.00    -0.286 N 
ATOM      7  H   GLU A  1       30.797 -21.260   7.061  0.00  0.00    +0.151 HD
ATOM      8  O   UNK A  0       30.753 -21.794  10.098  0.00  0.00    -0.253 OA
ENDBRANCH   1   6
BRANCH   1   9
ATOM      9  C   GLU A  1       28.262 -20.480   7.704  0.00  0.00    +0.325 C 
ATOM     10  O   GLU A  1       27.213 -20.348   8.324  0.00  0.00    -0.249 OA
BRANCH   9  11
ATOM     11  OXT GLU A  1       28.274 -21.042   6.475  0.00  0.00    -0.479 OA
ATOM     12  HXT GLU A  1       27.568 -21.718   6.333  0.00  0.00    +0.295 HD
ENDBRANCH   9  11
ENDBRANCH   1   9
BRANCH   1  13
ATOM     13  CB  GLU A  1       29.935 -18.531   7.700  0.00  0.00    +0.045 C 
BRANCH  13  14
ATOM     14  CG  GLU A  1       30.367 -17.502   8.753  0.00  0.00    +0.123 C 
BRANCH  14  15
ATOM     15  CD  GLU A  1       31.827 -17.564   9.124  0.00  0.00    +0.305 C 
ATOM     16  OE1 GLU A  1       32.310 -18.484   9.767  0.00  0.00    -0.251 OA
BRANCH  15  17
ATOM     17  OE2 GLU A  1       32.561 -16.519   8.687  0.00  0.00    -0.481 OA
ATOM     18  HE2 GLU A  1       32.435 -16.278   7.750  0.00  0.00    +0.295 HD
ENDBRANCH  15  17
ENDBRANCH  14  15
ENDBRANCH  13  14
ENDBRANCH   1  13
TORSDOF 7
ENDMDL
MODEL 3
REMARK VINA RESULT:      -6.3      2.316      4.450
REMARK  Name = *****
REMARK                            x       y       z     vdW  Elec       q    Type
REMARK                         _______ _______ _______ _____ _____    ______ ____
ROOT
ATOM      1  CA  GLU A  1       30.889 -19.180   8.188  0.00  0.00    +0.183 C 
ENDROOT
BRANCH   1   6
ATOM      2  N   UNK A  0       32.730 -16.294   9.451  0.00  0.00    -0.313 N 
ATOM      3  H   UNK A  0       33.434 -16.279   8.724  0.00  0.00    +0.146 HD
ATOM      4  H   UNK A  0       32.531 -15.386   9.852  0.00  0.00    +0.146 HD
ATOM      5  C   UNK A  0       31.626 -17.035   9.207  0.00  0.00    +0.298 C 
ATOM      6  N   GLU A  1       31.906 -18.182   8.538  0.00  0.00    -0.286 N 
ATOM      7  H   GLU A  1       32.829 -18.550   8.729  0.00  0.00    +0.151 HD
ATOM      8  O   UNK A  0       30.508 -16.679   9.519  0.00  0.00    -0.253 OA
ENDBRANCH   1   6
BRANCH   1   9
ATOM      9  C   GLU A  1       31.162 -20.557   8.851  0.00  0.00    +0.325 C 
ATOM     10  O   GLU A  1       32.246 -20.858   9.339  0.00  0.00    -0.249 OA
BRANCH   9  11
ATOM     11  OXT GLU A  1       30.108 -21.400   8.932  0.00  0.00    -0.479 OA
ATOM     12  HXT GLU A  1       30.163 -22.046   9.677  0.00  0.00    +0.295 HD
ENDBRANCH   9  11
ENDBRANCH   1   9
BRANCH   1  13
ATOM     13  CB  GLU A  1       30.656 -19.307   6.665  0.00  0.00    +0.045 C 
BRANCH  13  14
ATOM     14  CG  GLU A  1       29.255 -18.930   6.166  0.00  0.00    +0.123 C 
BRANCH  14  15
ATOM     15  CD  GLU A  1       28.325 -20.101   5.976  0.00  0.00    +0.305 C 
ATOM     16  OE1 GLU A  1       28.327 -21.077   6.711  0.00  0.00    -0.251 OA
BRANCH  15  17
ATOM     17  OE2 GLU A  1       27.487 -19.985   4.924  0.00  0.00    -0.481 OA
ATOM     18  HE2 GLU A  1       26.541 -20.118   5.122  0.00  0.00    +0.295 HD
ENDBRANCH  15  17
ENDBRANCH  14  15
ENDBRANCH  13  14
ENDBRANCH   1  13
TORSDOF 7
ENDMDL
MODEL 4
REMARK VINA RESULT:      -6.3      2.962      4.548
REMARK  Name = *****
REMARK                            x       y       z     vdW  Elec       q    Type
REMARK                         _______ _______ _______ _____ _____    ______ ____
ROOT
ATOM      1  CA  GLU A  1       28.036 -20.238   7.332  0.00  0.00    +0.183 C 
ENDROOT
BRANCH   1   6
ATOM      2  N   UNK A  0       24.567 -21.105   8.058  0.00  0.00    -0.313 N 
ATOM      3  H   UNK A  0       24.493 -21.859   7.386  0.00  0.00    +0.146 HD
ATOM      4  H   UNK A  0       23.967 -21.214   8.867  0.00  0.00    +0.146 HD
ATOM      5  C   UNK A  0       25.815 -20.685   8.359  0.00  0.00    +0.298 C 
ATOM      6  N   GLU A  1       26.641 -20.689   7.281  0.00  0.00    -0.286 N 
ATOM      7  H   GLU A  1       26.163 -20.529   6.403  0.00  0.00    +0.151 HD
ATOM      8  O   UNK A  0       26.159 -20.383   9.483  0.00  0.00    -0.253 OA
ENDBRANCH   1   6
BRANCH   1   9
ATOM      9  C   GLU A  1       28.480 -19.547   6.014  0.00  0.00    +0.325 C 
ATOM     10  O   GLU A  1       29.327 -18.661   5.979  0.00  0.00    -0.249 OA
BRANCH   9  11
ATOM     11  OXT GLU A  1       27.932 -20.026   4.875  0.00  0.00    -0.479 OA
ATOM     12  HXT GLU A  1       28.589 -20.243   4.170  0.00  0.00    +0.295 HD
ENDBRANCH   9  11
ENDBRANCH   1   9
BRANCH   1  13
ATOM     13  CB  GLU A  1       29.020 -21.348   7.763  0.00  0.00    +0.045 C 
BRANCH  13  14
ATOM     14  CG  GLU A  1       30.386 -20.871   8.277  0.00  0.00    +0.123 C 
BRANCH  14  15
ATOM     15  CD  GLU A  1       31.105 -21.866   9.153  0.00  0.00    +0.305 C 
ATOM     16  OE1 GLU A  1       30.735 -22.144  10.283  0.00  0.00    -0.251 OA
BRANCH  15  17
ATOM     17  OE2 GLU A  1       32.195 -22.425   8.586  0.00  0.00    -0.481 OA
ATOM     18  HE2 GLU A  1       32.930 -21.813   8.393  0.00  0.00    +0.295 HD
ENDBRANCH  15  17
ENDBRANCH  14  15
ENDBRANCH  13  14
ENDBRANCH   1  13
TORSDOF 7
ENDMDL
MODEL 5
REMARK VINA RESULT:      -6.2      2.313      3.928
REMARK  Name = *****
REMARK                            x       y       z     vdW  Elec       q    Type
REMARK                         _______ _______ _______ _____ _____    ______ ____
ROOT
ATOM      1  CA  GLU A  1       28.808 -19.797   6.570  0.00  0.00    +0.183 C 
ENDROOT
BRANCH   1   6
ATOM      2  N   UNK A  0       25.972 -20.372   4.349  0.00  0.00    -0.313 N 
ATOM      3  H   UNK A  0       26.491 -20.843   3.618  0.00  0.00    +0.146 HD
ATOM      4  H   UNK A  0       25.003 -20.659   4.417  0.00  0.00    +0.146 HD
ATOM      5  C   UNK A  0       26.589 -20.251   5.545  0.00  0.00    +0.298 C 
ATOM      6  N   GLU A  1       27.919 -20.010   5.423  0.00  0.00    -0.286 N 
ATOM      7  H   GLU A  1       28.166 -19.506   4.582  0.00  0.00    +0.151 HD
ATOM      8  O   UNK A  0       26.012 -20.388   6.605  0.00  0.00    -0.253 OA
ENDBRANCH   1   6
BRANCH   1   9
ATOM      9  C   GLU A  1       29.738 -18.569   6.375  0.00  0.00    +0.325 C 
ATOM     10  O   GLU A  1       30.476 -18.145   7.258  0.00  0.00    -0.249 OA
BRANCH   9  11
ATOM     11  OXT GLU A  1       29.750 -18.021   5.140  0.00  0.00    -0.479 OA
ATOM     12  HXT GLU A  1       30.488 -17.381   4.989  0.00  0.00    +0.295 HD
ENDBRANCH   9  11
ENDBRANCH   1   9
BRANCH   1  13
ATOM     13  CB  GLU A  1       29.599 -21.063   6.973  0.00  0.00    +0.045 C 
BRANCH  13  14
ATOM     14  CG  GLU A  1       29.861 -21.241   8.475  0.00  0.00    +0.123 C 
BRANCH  14  15
ATOM     15  CD  GLU A  1       31.319 -21.250   8.857  0.00  0.00    +0.305 C 
ATOM     16  OE1 GLU A  1       31.911 -20.252   9.241  0.00  0.00    -0.251 OA
BRANCH  15  17
ATOM     17  OE2 GLU A  1       31.921 -22.452   8.740  0.00  0.00    -0.481 OA
ATOM     18  HE2 GLU A  1       32.610 -22.513   8.051  0.00  0.00    +0.295 HD
ENDBRANCH  15  17
ENDBRANCH  14  15
ENDBRANCH  13  14
ENDBRANCH   1  13
TORSDOF 7
ENDMDL
MODEL 6
REMARK VINA RESULT:      -6.2      2.135      3.529
REMARK  Name = *****
REMARK                            x       y       z     vdW  Elec       q    Type
REMARK                         _______ _______ _______ _____ _____    ______ ____
ROOT
ATOM      1  CA  GLU A  1       29.656 -19.732   8.245  0.00  0.00    +0.183 C 
ENDROOT
BRANCH   1   6
ATOM      2  N   UNK A  0       32.007 -22.508   8.516  0.00  0.00    -0.313 N 
ATOM      3  H   UNK A  0       32.633 -22.201   7.782  0.00  0.00    +0.146 HD
ATOM      4  H   UNK A  0       32.458 -23.050   9.244  0.00  0.00    +0.146 HD
ATOM      5  C   UNK A  0       31.132 -21.592   8.984  0.00  0.00    +0.298 C 
ATOM      6  N   GLU A  1       30.652 -20.782   8.006  0.00  0.00    -0.286 N 
ATOM      7  H   GLU A  1       30.609 -21.224   7.097  0.00  0.00    +0.151 HD
ATOM      8  O   UNK A  0       30.848 -21.487  10.160  0.00  0.00    -0.253 OA
ENDBRANCH   1   6
BRANCH   1   9
ATOM      9  C   GLU A  1       28.322 -20.005   7.499  0.00  0.00    +0.325 C 
ATOM     10  O   GLU A  1       28.245 -20.083   6.278  0.00  0.00    -0.249 OA
BRANCH   9  11
ATOM     11  OXT GLU A  1       27.239 -20.228   8.276  0.00  0.00    -0.479 OA
ATOM     12  HXT GLU A  1       26.667 -19.434   8.412  0.00  0.00    +0.295 HD
ENDBRANCH   9  11
ENDBRANCH   1   9
BRANCH   1  13
ATOM     13  CB  GLU A  1       30.191 -18.309   7.970  0.00  0.00    +0.045 C 
BRANCH  13  14
ATOM     14  CG  GLU A  1       31.195 -17.759   8.993  0.00  0.00    +0.123 C 
BRANCH  14  15
ATOM     15  CD  GLU A  1       30.631 -17.564  10.377  0.00  0.00    +0.305 C 
ATOM     16  OE1 GLU A  1       30.130 -16.514  10.748  0.00  0.00    -0.251 OA
BRANCH  15  17
ATOM     17  OE2 GLU A  1       30.725 -18.647  11.177  0.00  0.00    -0.481 OA
ATOM     18  HE2 GLU A  1       29.922 -18.867  11.686  0.00  0.00    +0.295 HD
ENDBRANCH  15  17
ENDBRANCH  14  15
ENDBRANCH  13  14
ENDBRANCH   1  13
TORSDOF 7
ENDMDL
MODEL 7
REMARK VINA RESULT:      -6.2      5.142      7.294
REMARK  Name = *****
REMARK                            x       y       z     vdW  Elec       q    Type
REMARK                         _______ _______ _______ _____ _____    ______ ____
ROOT
ATOM      1  CA  GLU A  1       25.864 -21.519   7.153  0.00  0.00    +0.183 C 
ENDROOT
BRANCH   1   6
ATOM      2  N   UNK A  0       26.019 -19.902   3.886  0.00  0.00    -0.313 N 
ATOM      3  H   UNK A  0       26.842 -20.388   3.555  0.00  0.00    +0.146 HD
ATOM      4  H   UNK A  0       25.382 -19.619   3.150  0.00  0.00    +0.146 HD
ATOM      5  C   UNK A  0       25.401 -20.427   4.967  0.00  0.00    +0.298 C 
ATOM      6  N   GLU A  1       26.277 -20.930   5.874  0.00  0.00    -0.286 N 
ATOM      7  H   GLU A  1       27.172 -20.458   5.880  0.00  0.00    +0.151 HD
ATOM      8  O   UNK A  0       24.193 -20.476   5.082  0.00  0.00    -0.253 OA
ENDBRANCH   1   6
BRANCH   1   9
ATOM      9  C   GLU A  1       26.415 -20.728   8.370  0.00  0.00    +0.325 C 
ATOM     10  O   GLU A  1       25.814 -20.641   9.436  0.00  0.00    -0.249 OA
BRANCH   9  11
ATOM     11  OXT GLU A  1       27.645 -20.187   8.224  0.00  0.00    -0.479 OA
ATOM     12  HXT GLU A  1       27.924 -19.607   8.973  0.00  0.00    +0.295 HD
ENDBRANCH   9  11
ENDBRANCH   1   9
BRANCH   1  13
ATOM     13  CB  GLU A  1       26.173 -23.029   7.258  0.00  0.00    +0.045 C 
BRANCH  13  14
ATOM     14  CG  GLU A  1       25.039 -23.976   6.842  0.00  0.00    +0.123 C 
BRANCH  14  15
ATOM     15  CD  GLU A  1       25.094 -24.422   5.403  0.00  0.00    +0.305 C 
ATOM     16  OE1 GLU A  1       25.476 -25.532   5.065  0.00  0.00    -0.251 OA
BRANCH  15  17
ATOM     17  OE2 GLU A  1       24.686 -23.492   4.514  0.00  0.00    -0.481 OA
ATOM     18  HE2 GLU A  1       23.783 -23.611   4.164  0.00  0.00    +0.295 HD
ENDBRANCH  15  17
ENDBRANCH  14  15
ENDBRANCH  13  14
ENDBRANCH   1  13
TORSDOF 7
ENDMDL
MODEL 8
REMARK VINA RESULT:      -6.1      1.996      4.431
REMARK  Name = *****
REMARK                            x       y       z     vdW  Elec       q    Type
REMARK                         _______ _______ _______ _____ _____    ______ ____
ROOT
ATOM      1  CA  GLU A  1       31.200 -18.817   8.199  0.00  0.00    +0.183 C 
ENDROOT
BRANCH   1   6
ATOM      2  N   UNK A  0       31.870 -22.390   8.514  0.00  0.00    -0.313 N 
ATOM      3  H   UNK A  0       32.760 -22.383   8.033  0.00  0.00    +0.146 HD
ATOM      4  H   UNK A  0       31.784 -23.117   9.214  0.00  0.00    +0.146 HD
ATOM      5  C   UNK A  0       31.392 -21.191   8.914  0.00  0.00    +0.298 C 
ATOM      6  N   GLU A  1       31.649 -20.202   8.020  0.00  0.00    -0.286 N 
ATOM      7  H   GLU A  1       31.700 -20.524   7.063  0.00  0.00    +0.151 HD
ATOM      8  O   UNK A  0       30.834 -21.023   9.980  0.00  0.00    -0.253 OA
ENDBRANCH   1   6
BRANCH   1   9
ATOM      9  C   GLU A  1       31.372 -18.326   9.661  0.00  0.00    +0.325 C 
ATOM     10  O   GLU A  1       32.456 -17.995  10.130  0.00  0.00    -0.249 OA
BRANCH   9  11
ATOM     11  OXT GLU A  1       30.239 -18.208  10.388  0.00  0.00    -0.479 OA
ATOM     12  HXT GLU A  1       30.373 -17.813  11.284  0.00  0.00    +0.295 HD
ENDBRANCH   9  11
ENDBRANCH   1   9
BRANCH   1  13
ATOM     13  CB  GLU A  1       29.770 -18.566   7.669  0.00  0.00    +0.045 C 
BRANCH  13  14
ATOM     14  CG  GLU A  1       29.514 -18.969   6.210  0.00  0.00    +0.123 C 
BRANCH  14  15
ATOM     15  CD  GLU A  1       28.655 -20.197   6.044  0.00  0.00    +0.305 C 
ATOM     16  OE1 GLU A  1       28.795 -21.203   6.722  0.00  0.00    -0.251 OA
BRANCH  15  17
ATOM     17  OE2 GLU A  1       27.715 -20.095   5.081  0.00  0.00    -0.481 OA
ATOM     18  HE2 GLU A  1       27.063 -20.821   5.049  0.00  0.00    +0.295 HD
ENDBRANCH  15  17
ENDBRANCH  14  15
ENDBRANCH  13  14
ENDBRANCH   1  13
TORSDOF 7
ENDMDL
MODEL 9
REMARK VINA RESULT:      -5.9      3.970      5.264
REMARK  Name = *****
REMARK                            x       y       z     vdW  Elec       q    Type
REMARK                         _______ _______ _______ _____ _____    ______ ____
ROOT
ATOM      1  CA  GLU A  1       26.528 -21.388   7.096  0.00  0.00    +0.183 C 
ENDROOT
BRANCH   1   6
ATOM      2  N   UNK A  0       24.800 -23.864   5.047  0.00  0.00    -0.313 N 
ATOM      3  H   UNK A  0       25.063 -23.476   4.150  0.00  0.00    +0.146 HD
ATOM      4  H   UNK A  0       24.651 -24.866   5.035  0.00  0.00    +0.146 HD
ATOM      5  C   UNK A  0       25.498 -23.431   6.120  0.00  0.00    +0.298 C 
ATOM      6  N   GLU A  1       25.810 -22.112   6.041  0.00  0.00    -0.286 N 
ATOM      7  H   GLU A  1       25.138 -21.566   5.517  0.00  0.00    +0.151 HD
ATOM      8  O   UNK A  0       25.838 -24.161   7.028  0.00  0.00    -0.253 OA
ENDBRANCH   1   6
BRANCH   1   9
ATOM      9  C   GLU A  1       25.566 -20.790   8.158  0.00  0.00    +0.325 C 
ATOM     10  O   GLU A  1       24.356 -20.699   7.985  0.00  0.00    -0.249 OA
BRANCH   9  11
ATOM     11  OXT GLU A  1       26.126 -20.434   9.335  0.00  0.00    -0.479 OA
ATOM     12  HXT GLU A  1       25.769 -20.921  10.117  0.00  0.00    +0.295 HD
ENDBRANCH   9  11
ENDBRANCH   1   9
BRANCH   1  13
ATOM     13  CB  GLU A  1       27.514 -20.332   6.549  0.00  0.00    +0.045 C 
BRANCH  13  14
ATOM     14  CG  GLU A  1       28.999 -20.721   6.577  0.00  0.00    +0.123 C 
BRANCH  14  15
ATOM     15  CD  GLU A  1       29.756 -20.206   7.775  0.00  0.00    +0.305 C 
ATOM     16  OE1 GLU A  1       29.215 -19.622   8.702  0.00  0.00    -0.251 OA
BRANCH  15  17
ATOM     17  OE2 GLU A  1       31.084 -20.441   7.740  0.00  0.00    -0.481 OA
ATOM     18  HE2 GLU A  1       31.462 -20.847   8.543  0.00  0.00    +0.295 HD
ENDBRANCH  15  17
ENDBRANCH  14  15
ENDBRANCH  13  14
ENDBRANCH   1  13
TORSDOF 7
ENDMDL
