MODEL 1
REMARK VINA RESULT:       7.8      0.000      0.000
REMARK  Name = *****
REMARK                            x       y       z     vdW  Elec       q    Type
REMARK                         _______ _______ _______ _____ _____    ______ ____
ROOT
ATOM      1  C   LIG    1       27.877 -18.013   4.676  0.00  0.00    +0.148 A 
ATOM      2  O   LIG    1       26.538 -18.251   4.563  0.00  0.00    -0.454 OA
ATOM      3  C   LIG    1       26.339 -19.590   4.741  0.00  0.00    +0.136 A 
ATOM      4  C   LIG    1       27.550 -20.210   4.970  0.00  0.00    +0.050 A 
ATOM      5  C   LIG    1       28.538 -19.195   4.935  0.00  0.00    +0.051 A 
ENDROOT
BRANCH   3   6
ATOM      6  C   LIG    1       24.958 -20.041   4.641  0.00  0.00    +0.018 A 
ATOM      7  C   LIG    1       24.017 -19.677   5.616  0.00  0.00    +0.018 A 
ATOM      8  C   LIG    1       22.690 -20.111   5.524  0.00  0.00    +0.085 A 
ATOM      9  C   LIG    1       22.298 -20.909   4.442  0.00  0.00    +0.273 A 
ATOM     10  C   LIG    1       23.221 -21.275   3.458  0.00  0.00    +0.085 A 
ATOM     11  C   LIG    1       24.546 -20.843   3.565  0.00  0.00    +0.018 A 
BRANCH   9  12
ATOM     12  N   LIG    1       20.907 -21.366   4.339  0.00  0.00    +0.080 N 
ATOM     13  O   LIG    1       20.285 -21.558   5.394  0.00  0.00    -0.576 OA
ATOM     14  O   LIG    1       20.438 -21.532   3.205  0.00  0.00    +0.041 OA
ENDBRANCH   9  12
ENDBRANCH   3   6
BRANCH   1  16
ATOM     15  N   LIG    1       27.485 -15.668   4.557  0.00  0.00    -0.180 NA
ATOM     16  C   LIG    1       28.317 -16.659   4.502  0.00  0.00    +0.176 C 
BRANCH  15  21
ATOM     17  O   LIG    1       29.100 -11.474   2.892  0.00  0.00    -0.272 OA
ATOM     18  C   LIG    1       28.638 -12.350   3.608  0.00  0.00    +0.260 C 
ATOM     19  N   LIG    1       28.174 -12.180   4.906  0.00  0.00    -0.129 NA
ATOM     20  C   LIG    1       27.821 -13.366   5.273  0.00  0.00    +0.295 C 
ATOM     21  N   LIG    1       27.998 -14.408   4.409  0.00  0.00    -0.170 N 
ATOM     22  C   LIG    1       28.491 -13.820   3.169  0.00  0.00    +0.234 C 
BRANCH  20  23
ATOM     23  O   LIG    1       27.279 -13.665   6.454  0.00  0.00    -0.482 OA
ATOM     24  H   LIG    1       26.352 -13.369   6.417  0.00  0.00    +0.295 HD
ENDBRANCH  20  23
ENDBRANCH  15  21
ENDBRANCH   1  16
TORSDOF 5
ENDMDL
