MODEL 1
REMARK VINA RESULT:      -5.5      0.000      0.000
REMARK  Name = *****
REMARK                            x       y       z     vdW  Elec       q    Type
REMARK                         _______ _______ _______ _____ _____    ______ ____
ROOT
ATOM      1  C   UNK A  0       25.062 -18.892   3.985  0.00  0.00    +0.071 A 
ATOM      2  N   UNK A  1       25.665 -19.750   4.857  0.00  0.00    -0.248 NA
ATOM      3  C   UNK A  1       24.861 -20.624   5.541  0.00  0.00    +0.108 A 
ATOM      4  C   UNK A  1       23.481 -20.673   5.367  0.00  0.00    +0.140 A 
ATOM      5  C   UNK A  1       22.883 -19.802   4.465  0.00  0.00    +0.049 A 
ATOM      6  C   UNK A  1       23.685 -18.899   3.767  0.00  0.00    +0.029 A 
ENDROOT
BRANCH   4   7
ATOM      7  O   UNK A  1       22.726 -21.572   6.071  0.00  0.00    -0.505 OA
ATOM      8  H   UNK A  1       22.683 -21.293   7.001  0.00  0.00    +0.292 HD
ENDBRANCH   4   7
BRANCH   1   9
ATOM      9  C   UNK A  0       25.949 -17.893   3.245  0.00  0.00    +0.176 C 
BRANCH   9  10
ATOM     10  O   UNK A  0       27.269 -17.867   3.811  0.00  0.00    -0.384 OA
ATOM     11  H   UNK A  0       27.824 -18.357   3.174  0.00  0.00    +0.210 HD
ENDBRANCH   9  10
BRANCH   9  12
ATOM     12  C   UNK A  0       25.347 -16.467   3.311  0.00  0.00    +0.119 C 
BRANCH  12  13
ATOM     13  N   UNK A  0       26.402 -15.433   3.315  0.00  0.00    -0.308 NA
ATOM     14  H   UNK A  0       27.173 -15.789   3.887  0.00  0.00    +0.122 HD
BRANCH  13  16
ATOM     15  C   UNK A  0       26.108 -13.144   2.563  0.00  0.00    +0.027 C 
ATOM     16  C   UNK A  0       25.997 -14.092   3.775  0.00  0.00    +0.011 C 
ATOM     17  C   UNK A  0       24.534 -14.093   4.246  0.00  0.00    +0.027 C 
ATOM     18  C   UNK A  0       26.908 -13.550   4.890  0.00  0.00    +0.027 C 
ENDBRANCH  13  16
ENDBRANCH  12  13
ENDBRANCH   9  12
ENDBRANCH   1   9
BRANCH   3  19
ATOM     19  C   UNK A  1       25.539 -21.572   6.513  0.00  0.00    +0.215 C 
BRANCH  19  20
ATOM     20  O   UNK A  1       26.959 -21.415   6.483  0.00  0.00    -0.389 OA
ATOM     21  H   UNK A  1       27.261 -21.726   7.360  0.00  0.00    +0.210 HD
ENDBRANCH  19  20
ENDBRANCH   3  19
TORSDOF 8
ENDMDL
MODEL 2
REMARK VINA RESULT:      -5.4      0.081      1.050
REMARK  Name = *****
REMARK                            x       y       z     vdW  Elec       q    Type
REMARK                         _______ _______ _______ _____ _____    ______ ____
ROOT
ATOM      1  C   UNK A  0       25.132 -18.879   4.014  0.00  0.00    +0.071 A 
ATOM      2  N   UNK A  1       25.714 -19.742   4.896  0.00  0.00    -0.248 NA
ATOM      3  C   UNK A  1       24.893 -20.609   5.567  0.00  0.00    +0.108 A 
ATOM      4  C   UNK A  1       23.515 -20.647   5.372  0.00  0.00    +0.140 A 
ATOM      5  C   UNK A  1       22.939 -19.771   4.460  0.00  0.00    +0.049 A 
ATOM      6  C   UNK A  1       23.758 -18.875   3.775  0.00  0.00    +0.029 A 
ENDROOT
BRANCH   4   7
ATOM      7  O   UNK A  1       22.743 -21.540   6.064  0.00  0.00    -0.505 OA
ATOM      8  H   UNK A  1       22.360 -22.180   5.441  0.00  0.00    +0.292 HD
ENDBRANCH   4   7
BRANCH   1   9
ATOM      9  C   UNK A  0       26.038 -17.887   3.288  0.00  0.00    +0.176 C 
BRANCH   9  10
ATOM     10  O   UNK A  0       27.331 -17.828   3.911  0.00  0.00    -0.384 OA
ATOM     11  H   UNK A  0       27.161 -17.478   4.807  0.00  0.00    +0.210 HD
ENDBRANCH   9  10
BRANCH   9  12
ATOM     12  C   UNK A  0       25.415 -16.469   3.289  0.00  0.00    +0.119 C 
BRANCH  12  13
ATOM     13  N   UNK A  0       26.455 -15.420   3.258  0.00  0.00    -0.308 NA
ATOM     14  H   UNK A  0       27.231 -15.745   3.842  0.00  0.00    +0.122 HD
BRANCH  13  16
ATOM     15  C   UNK A  0       24.567 -14.180   4.144  0.00  0.00    +0.027 C 
ATOM     16  C   UNK A  0       26.031 -14.070   3.670  0.00  0.00    +0.011 C 
ATOM     17  C   UNK A  0       26.877 -13.565   4.849  0.00  0.00    +0.027 C 
ATOM     18  C   UNK A  0       26.083 -13.056   2.514  0.00  0.00    +0.027 C 
ENDBRANCH  13  16
ENDBRANCH  12  13
ENDBRANCH   9  12
ENDBRANCH   1   9
BRANCH   3  19
ATOM     19  C   UNK A  1       25.548 -21.562   6.549  0.00  0.00    +0.215 C 
BRANCH  19  20
ATOM     20  O   UNK A  1       26.970 -21.418   6.540  0.00  0.00    -0.389 OA
ATOM     21  H   UNK A  1       27.200 -21.284   5.599  0.00  0.00    +0.210 HD
ENDBRANCH  19  20
ENDBRANCH   3  19
TORSDOF 8
ENDMDL
MODEL 3
REMARK VINA RESULT:      -4.8      1.257      2.351
REMARK  Name = *****
REMARK                            x       y       z     vdW  Elec       q    Type
REMARK                         _______ _______ _______ _____ _____    ______ ____
ROOT
ATOM      1  C   UNK A  0       25.482 -18.978   4.069  0.00  0.00    +0.071 A 
ATOM      2  N   UNK A  1       24.138 -18.778   3.950  0.00  0.00    -0.248 NA
ATOM      3  C   UNK A  1       23.309 -19.661   4.591  0.00  0.00    +0.108 A 
ATOM      4  C   UNK A  1       23.783 -20.724   5.353  0.00  0.00    +0.140 A 
ATOM      5  C   UNK A  1       25.156 -20.907   5.475  0.00  0.00    +0.049 A 
ATOM      6  C   UNK A  1       26.014 -20.023   4.822  0.00  0.00    +0.029 A 
ENDROOT
BRANCH   4   7
ATOM      7  O   UNK A  1       22.910 -21.572   5.978  0.00  0.00    -0.505 OA
ATOM      8  H   UNK A  1       22.001 -21.337   5.724  0.00  0.00    +0.292 HD
ENDBRANCH   4   7
BRANCH   1   9
ATOM      9  C   UNK A  0       26.410 -18.018   3.329  0.00  0.00    +0.176 C 
BRANCH   9  10
ATOM     10  O   UNK A  0       27.631 -17.824   4.062  0.00  0.00    -0.384 OA
ATOM     11  H   UNK A  0       27.483 -17.012   4.583  0.00  0.00    +0.210 HD
ENDBRANCH   9  10
BRANCH   9  12
ATOM     12  C   UNK A  0       25.728 -16.643   3.119  0.00  0.00    +0.119 C 
BRANCH  12  13
ATOM     13  N   UNK A  0       26.681 -15.530   3.308  0.00  0.00    -0.308 NA
ATOM     14  H   UNK A  0       27.392 -15.849   3.972  0.00  0.00    +0.122 HD
BRANCH  13  16
ATOM     15  C   UNK A  0       26.254 -13.256   2.576  0.00  0.00    +0.027 C 
ATOM     16  C   UNK A  0       26.103 -14.247   3.748  0.00  0.00    +0.011 C 
ATOM     17  C   UNK A  0       24.605 -14.397   4.056  0.00  0.00    +0.027 C 
ATOM     18  C   UNK A  0       26.834 -13.658   4.967  0.00  0.00    +0.027 C 
ENDBRANCH  13  16
ENDBRANCH  12  13
ENDBRANCH   9  12
ENDBRANCH   1   9
BRANCH   3  19
ATOM     19  C   UNK A  1       21.815 -19.434   4.450  0.00  0.00    +0.215 C 
BRANCH  19  20
ATOM     20  O   UNK A  1       21.531 -18.090   4.054  0.00  0.00    -0.389 OA
ATOM     21  H   UNK A  1       22.369 -17.606   4.198  0.00  0.00    +0.210 HD
ENDBRANCH  19  20
ENDBRANCH   3  19
TORSDOF 8
ENDMDL
MODEL 4
REMARK VINA RESULT:      -4.2      2.467      6.687
REMARK  Name = *****
REMARK                            x       y       z     vdW  Elec       q    Type
REMARK                         _______ _______ _______ _____ _____    ______ ____
ROOT
ATOM      1  C   UNK A  0       26.851 -15.773   3.695  0.00  0.00    +0.071 A 
ATOM      2  N   UNK A  1       27.879 -14.942   4.032  0.00  0.00    -0.248 NA
ATOM      3  C   UNK A  1       27.814 -13.646   3.593  0.00  0.00    +0.108 A 
ATOM      4  C   UNK A  1       26.750 -13.157   2.841  0.00  0.00    +0.140 A 
ATOM      5  C   UNK A  1       25.703 -14.013   2.517  0.00  0.00    +0.049 A 
ATOM      6  C   UNK A  1       25.758 -15.337   2.948  0.00  0.00    +0.029 A 
ENDROOT
BRANCH   4   7
ATOM      7  O   UNK A  1       26.731 -11.851   2.434  0.00  0.00    -0.505 OA
ATOM      8  H   UNK A  1       27.534 -11.666   1.918  0.00  0.00    +0.292 HD
ENDBRANCH   4   7
BRANCH   1   9
ATOM      9  C   UNK A  0       26.935 -17.227   4.153  0.00  0.00    +0.176 C 
BRANCH   9  10
ATOM     10  O   UNK A  0       28.281 -17.717   4.051  0.00  0.00    -0.384 OA
ATOM     11  H   UNK A  0       28.352 -18.400   4.746  0.00  0.00    +0.210 HD
ENDBRANCH   9  10
BRANCH   9  12
ATOM     12  C   UNK A  0       26.007 -18.128   3.301  0.00  0.00    +0.119 C 
BRANCH  12  13
ATOM     13  N   UNK A  0       25.887 -19.483   3.878  0.00  0.00    -0.308 NA
ATOM     14  H   UNK A  0       26.313 -20.135   3.213  0.00  0.00    +0.122 HD
BRANCH  13  16
ATOM     15  C   UNK A  0       24.196 -21.138   3.339  0.00  0.00    +0.027 C 
ATOM     16  C   UNK A  0       24.524 -19.922   4.230  0.00  0.00    +0.011 C 
ATOM     17  C   UNK A  0       24.455 -20.373   5.697  0.00  0.00    +0.027 C 
ATOM     18  C   UNK A  0       23.467 -18.836   3.963  0.00  0.00    +0.027 C 
ENDBRANCH  13  16
ENDBRANCH  12  13
ENDBRANCH   9  12
ENDBRANCH   1   9
BRANCH   3  19
ATOM     19  C   UNK A  1       28.963 -12.729   3.968  0.00  0.00    +0.215 C 
BRANCH  19  20
ATOM     20  O   UNK A  1       28.765 -12.155   5.262  0.00  0.00    -0.389 OA
ATOM     21  H   UNK A  1       27.827 -12.333   5.472  0.00  0.00    +0.210 HD
ENDBRANCH  19  20
ENDBRANCH   3  19
TORSDOF 8
ENDMDL
MODEL 5
REMARK VINA RESULT:      -4.2      2.234      6.431
REMARK  Name = *****
REMARK                            x       y       z     vdW  Elec       q    Type
REMARK                         _______ _______ _______ _____ _____    ______ ____
ROOT
ATOM      1  C   UNK A  0       24.955 -16.667   3.684  0.00  0.00    +0.071 A 
ATOM      2  N   UNK A  1       26.035 -15.975   3.220  0.00  0.00    -0.248 NA
ATOM      3  C   UNK A  1       25.949 -14.607   3.204  0.00  0.00    +0.108 A 
ATOM      4  C   UNK A  1       24.824 -13.917   3.647  0.00  0.00    +0.140 A 
ATOM      5  C   UNK A  1       23.738 -14.636   4.130  0.00  0.00    +0.049 A 
ATOM      6  C   UNK A  1       23.805 -16.029   4.146  0.00  0.00    +0.029 A 
ENDROOT
BRANCH   4   7
ATOM      7  O   UNK A  1       24.795 -12.549   3.615  0.00  0.00    -0.505 OA
ATOM      8  H   UNK A  1       24.352 -12.221   4.416  0.00  0.00    +0.292 HD
ENDBRANCH   4   7
BRANCH   1   9
ATOM      9  C   UNK A  0       25.032 -18.192   3.674  0.00  0.00    +0.176 C 
BRANCH   9  10
ATOM     10  O   UNK A  0       25.815 -18.655   2.563  0.00  0.00    -0.384 OA
ATOM     11  H   UNK A  0       25.367 -19.470   2.263  0.00  0.00    +0.210 HD
ENDBRANCH   9  10
BRANCH   9  12
ATOM     12  C   UNK A  0       23.617 -18.816   3.585  0.00  0.00    +0.119 C 
BRANCH  12  13
ATOM     13  N   UNK A  0       23.105 -19.192   4.918  0.00  0.00    -0.308 NA
ATOM     14  H   UNK A  0       23.642 -18.660   5.610  0.00  0.00    +0.122 HD
BRANCH  13  16
ATOM     15  C   UNK A  0       23.344 -20.748   6.765  0.00  0.00    +0.027 C 
ATOM     16  C   UNK A  0       23.128 -20.630   5.243  0.00  0.00    +0.011 C 
ATOM     17  C   UNK A  0       21.783 -21.290   4.900  0.00  0.00    +0.027 C 
ATOM     18  C   UNK A  0       24.274 -21.376   4.538  0.00  0.00    +0.027 C 
ENDBRANCH  13  16
ENDBRANCH  12  13
ENDBRANCH   9  12
ENDBRANCH   1   9
BRANCH   3  19
ATOM     19  C   UNK A  1       27.152 -13.844   2.682  0.00  0.00    +0.215 C 
BRANCH  19  20
ATOM     20  O   UNK A  1       27.793 -13.112   3.728  0.00  0.00    -0.389 OA
ATOM     21  H   UNK A  1       27.082 -12.926   4.374  0.00  0.00    +0.210 HD
ENDBRANCH  19  20
ENDBRANCH   3  19
TORSDOF 8
ENDMDL
MODEL 6
REMARK VINA RESULT:      -3.9      2.492      6.840
REMARK  Name = *****
REMARK                            x       y       z     vdW  Elec       q    Type
REMARK                         _______ _______ _______ _____ _____    ______ ____
ROOT
ATOM      1  C   UNK A  0       26.823 -15.746   3.704  0.00  0.00    +0.071 A 
ATOM      2  N   UNK A  1       25.768 -15.266   2.985  0.00  0.00    -0.248 NA
ATOM      3  C   UNK A  1       25.801 -13.946   2.620  0.00  0.00    +0.108 A 
ATOM      4  C   UNK A  1       26.859 -13.101   2.942  0.00  0.00    +0.140 A 
ATOM      5  C   UNK A  1       27.933 -13.608   3.664  0.00  0.00    +0.049 A 
ATOM      6  C   UNK A  1       27.912 -14.948   4.051  0.00  0.00    +0.029 A 
ENDROOT
BRANCH   4   7
ATOM      7  O   UNK A  1       26.845 -11.791   2.546  0.00  0.00    -0.505 OA
ATOM      8  H   UNK A  1       27.706 -11.566   2.155  0.00  0.00    +0.292 HD
ENDBRANCH   4   7
BRANCH   1   9
ATOM      9  C   UNK A  0       26.776 -17.208   4.142  0.00  0.00    +0.176 C 
BRANCH   9  10
ATOM     10  O   UNK A  0       28.075 -17.813   4.038  0.00  0.00    -0.384 OA
ATOM     11  H   UNK A  0       28.692 -17.065   3.926  0.00  0.00    +0.210 HD
ENDBRANCH   9  10
BRANCH   9  12
ATOM     12  C   UNK A  0       25.778 -18.013   3.273  0.00  0.00    +0.119 C 
BRANCH  12  13
ATOM     13  N   UNK A  0       25.775 -19.445   3.636  0.00  0.00    -0.308 NA
ATOM     14  H   UNK A  0       26.094 -19.966   2.813  0.00  0.00    +0.122 HD
BRANCH  13  16
ATOM     15  C   UNK A  0       24.158 -21.214   3.251  0.00  0.00    +0.027 C 
ATOM     16  C   UNK A  0       24.496 -19.990   4.127  0.00  0.00    +0.011 C 
ATOM     17  C   UNK A  0       24.627 -20.467   5.582  0.00  0.00    +0.027 C 
ATOM     18  C   UNK A  0       23.340 -18.982   4.005  0.00  0.00    +0.027 C 
ENDBRANCH  13  16
ENDBRANCH  12  13
ENDBRANCH   9  12
ENDBRANCH   1   9
BRANCH   3  19
ATOM     19  C   UNK A  1       24.623 -13.418   1.824  0.00  0.00    +0.215 C 
BRANCH  19  20
ATOM     20  O   UNK A  1       23.821 -12.535   2.611  0.00  0.00    -0.389 OA
ATOM     21  H   UNK A  1       24.459 -12.059   3.179  0.00  0.00    +0.210 HD
ENDBRANCH  19  20
ENDBRANCH   3  19
TORSDOF 8
ENDMDL
MODEL 7
REMARK VINA RESULT:      -3.8      2.324      6.407
REMARK  Name = *****
REMARK                            x       y       z     vdW  Elec       q    Type
REMARK                         _______ _______ _______ _____ _____    ______ ____
ROOT
ATOM      1  C   UNK A  0       25.875 -16.981   3.532  0.00  0.00    +0.071 A 
ATOM      2  N   UNK A  1       24.783 -16.164   3.577  0.00  0.00    -0.248 NA
ATOM      3  C   UNK A  1       25.007 -14.819   3.714  0.00  0.00    +0.108 A 
ATOM      4  C   UNK A  1       26.284 -14.271   3.794  0.00  0.00    +0.140 A 
ATOM      5  C   UNK A  1       27.386 -15.116   3.733  0.00  0.00    +0.049 A 
ATOM      6  C   UNK A  1       27.177 -16.488   3.602  0.00  0.00    +0.029 A 
ENDROOT
BRANCH   4   7
ATOM      7  O   UNK A  1       26.450 -12.919   3.923  0.00  0.00    -0.505 OA
ATOM      8  H   UNK A  1       27.335 -12.739   4.283  0.00  0.00    +0.292 HD
ENDBRANCH   4   7
BRANCH   1   9
ATOM      9  C   UNK A  0       25.631 -18.484   3.412  0.00  0.00    +0.176 C 
BRANCH   9  10
ATOM     10  O   UNK A  0       26.031 -18.964   2.119  0.00  0.00    -0.384 OA
ATOM     11  H   UNK A  0       25.733 -18.276   1.493  0.00  0.00    +0.210 HD
ENDBRANCH   9  10
BRANCH   9  12
ATOM     12  C   UNK A  0       24.135 -18.820   3.631  0.00  0.00    +0.119 C 
BRANCH  12  13
ATOM     13  N   UNK A  0       23.963 -20.132   4.287  0.00  0.00    -0.308 NA
ATOM     14  H   UNK A  0       23.840 -20.828   3.545  0.00  0.00    +0.122 HD
BRANCH  13  16
ATOM     15  C   UNK A  0       22.138 -18.872   5.271  0.00  0.00    +0.027 C 
ATOM     16  C   UNK A  0       22.871 -20.229   5.272  0.00  0.00    +0.011 C 
ATOM     17  C   UNK A  0       21.863 -21.316   4.866  0.00  0.00    +0.027 C 
ATOM     18  C   UNK A  0       23.384 -20.494   6.698  0.00  0.00    +0.027 C 
ENDBRANCH  13  16
ENDBRANCH  12  13
ENDBRANCH   9  12
ENDBRANCH   1   9
BRANCH   3  19
ATOM     19  C   UNK A  1       23.788 -13.917   3.768  0.00  0.00    +0.215 C 
BRANCH  19  20
ATOM     20  O   UNK A  1       23.721 -13.069   2.620  0.00  0.00    -0.389 OA
ATOM     21  H   UNK A  1       22.830 -13.227   2.247  0.00  0.00    +0.210 HD
ENDBRANCH  19  20
ENDBRANCH   3  19
TORSDOF 8
ENDMDL
MODEL 8
REMARK VINA RESULT:      -3.7      1.911      2.172
REMARK  Name = *****
REMARK                            x       y       z     vdW  Elec       q    Type
REMARK                         _______ _______ _______ _____ _____    ______ ____
ROOT
ATOM      1  C   UNK A  0       26.644 -17.550   3.729  0.00  0.00    +0.071 A 
ATOM      2  N   UNK A  1       27.475 -18.273   4.534  0.00  0.00    -0.248 NA
ATOM      3  C   UNK A  1       27.050 -19.515   4.927  0.00  0.00    +0.108 A 
ATOM      4  C   UNK A  1       25.831 -20.056   4.530  0.00  0.00    +0.140 A 
ATOM      5  C   UNK A  1       25.002 -19.312   3.699  0.00  0.00    +0.049 A 
ATOM      6  C   UNK A  1       25.414 -18.043   3.297  0.00  0.00    +0.029 A 
ENDROOT
BRANCH   4   7
ATOM      7  O   UNK A  1       25.460 -21.305   4.947  0.00  0.00    -0.505 OA
ATOM      8  H   UNK A  1       25.831 -21.967   4.340  0.00  0.00    +0.292 HD
ENDBRANCH   4   7
BRANCH   1   9
ATOM      9  C   UNK A  0       27.097 -16.152   3.315  0.00  0.00    +0.176 C 
BRANCH   9  10
ATOM     10  O   UNK A  0       27.847 -15.526   4.368  0.00  0.00    -0.384 OA
ATOM     11  H   UNK A  0       28.684 -16.027   4.411  0.00  0.00    +0.210 HD
ENDBRANCH   9  10
BRANCH   9  12
ATOM     12  C   UNK A  0       25.881 -15.258   2.966  0.00  0.00    +0.119 C 
BRANCH  12  13
ATOM     13  N   UNK A  0       25.846 -14.040   3.801  0.00  0.00    -0.308 NA
ATOM     14  H   UNK A  0       26.301 -14.269   4.690  0.00  0.00    +0.122 HD
BRANCH  13  16
ATOM     15  C   UNK A  0       24.090 -12.747   2.736  0.00  0.00    +0.027 C 
ATOM     16  C   UNK A  0       24.515 -13.453   4.040  0.00  0.00    +0.011 C 
ATOM     17  C   UNK A  0       23.481 -14.547   4.348  0.00  0.00    +0.027 C 
ATOM     18  C   UNK A  0       24.525 -12.406   5.167  0.00  0.00    +0.027 C 
ENDBRANCH  13  16
ENDBRANCH  12  13
ENDBRANCH   9  12
ENDBRANCH   1   9
BRANCH   3  19
ATOM     19  C   UNK A  1       27.978 -20.311   5.826  0.00  0.00    +0.215 C 
BRANCH  19  20
ATOM     20  O   UNK A  1       27.342 -20.645   7.061  0.00  0.00    -0.389 OA
ATOM     21  H   UNK A  1       26.562 -21.176   6.804  0.00  0.00    +0.210 HD
ENDBRANCH  19  20
ENDBRANCH   3  19
TORSDOF 8
ENDMDL
MODEL 9
REMARK VINA RESULT:      -3.6      3.084      6.721
REMARK  Name = *****
REMARK                            x       y       z     vdW  Elec       q    Type
REMARK                         _______ _______ _______ _____ _____    ______ ____
ROOT
ATOM      1  C   UNK A  0       23.791 -14.899   3.854  0.00  0.00    +0.071 A 
ATOM      2  N   UNK A  1       25.094 -15.295   3.942  0.00  0.00    -0.248 NA
ATOM      3  C   UNK A  1       26.049 -14.432   3.472  0.00  0.00    +0.108 A 
ATOM      4  C   UNK A  1       25.740 -13.187   2.932  0.00  0.00    +0.140 A 
ATOM      5  C   UNK A  1       24.410 -12.792   2.862  0.00  0.00    +0.049 A 
ATOM      6  C   UNK A  1       23.424 -13.662   3.328  0.00  0.00    +0.029 A 
ENDROOT
BRANCH   4   7
ATOM      7  O   UNK A  1       26.735 -12.361   2.484  0.00  0.00    -0.505 OA
ATOM      8  H   UNK A  1       26.466 -11.437   2.616  0.00  0.00    +0.292 HD
ENDBRANCH   4   7
BRANCH   1   9
ATOM      9  C   UNK A  0       22.720 -15.870   4.346  0.00  0.00    +0.176 C 
BRANCH   9  10
ATOM     10  O   UNK A  0       22.345 -15.573   5.700  0.00  0.00    -0.384 OA
ATOM     11  H   UNK A  0       22.255 -16.444   6.132  0.00  0.00    +0.210 HD
ENDBRANCH   9  10
BRANCH   9  12
ATOM     12  C   UNK A  0       23.227 -17.332   4.276  0.00  0.00    +0.119 C 
BRANCH  12  13
ATOM     13  N   UNK A  0       22.218 -18.281   4.791  0.00  0.00    -0.308 NA
ATOM     14  H   UNK A  0       21.934 -17.948   5.717  0.00  0.00    +0.122 HD
BRANCH  13  16
ATOM     15  C   UNK A  0       23.798 -19.874   3.865  0.00  0.00    +0.027 C 
ATOM     16  C   UNK A  0       22.629 -19.696   4.855  0.00  0.00    +0.011 C 
ATOM     17  C   UNK A  0       23.135 -20.056   6.260  0.00  0.00    +0.027 C 
ATOM     18  C   UNK A  0       21.501 -20.657   4.440  0.00  0.00    +0.027 C 
ENDBRANCH  13  16
ENDBRANCH  12  13
ENDBRANCH   9  12
ENDBRANCH   1   9
BRANCH   3  19
ATOM     19  C   UNK A  1       27.495 -14.882   3.568  0.00  0.00    +0.215 C 
BRANCH  19  20
ATOM     20  O   UNK A  1       28.327 -13.840   4.083  0.00  0.00    -0.389 OA
ATOM     21  H   UNK A  1       29.217 -14.241   4.145  0.00  0.00    +0.210 HD
ENDBRANCH  19  20
ENDBRANCH   3  19
TORSDOF 8
ENDMDL
