MODEL 1
REMARK VINA RESULT:      -6.2      0.000      0.000
REMARK  Name = *****
REMARK                            x       y       z     vdW  Elec       q    Type
REMARK                         _______ _______ _______ _____ _____    ______ ____
ROOT
ATOM      1  C   LIG    1       26.198 -17.453   3.197  0.00  0.00    +0.162 C 
ENDROOT
BRANCH   1   2
ATOM      2  C   LIG    1       25.336 -18.518   3.861  0.00  0.00    -0.007 A 
ATOM      3  C   LIG    1       25.842 -19.501   4.770  0.00  0.00    +0.009 A 
ATOM      4  C   LIG    1       24.946 -20.501   5.208  0.00  0.00    +0.071 A 
ATOM      5  C   LIG    1       25.383 -21.495   6.071  0.00  0.00    +0.032 A 
ATOM      6  C   LIG    1       26.694 -21.532   6.550  0.00  0.00    +0.048 A 
ATOM      7  C   LIG    1       27.591 -20.547   6.169  0.00  0.00    +0.121 A 
ATOM      8  N   LIG    1       23.658 -20.559   4.844  0.00  0.00    -0.255 NA
ATOM      9  C   LIG    1       23.186 -19.574   4.065  0.00  0.00    +0.112 A 
ATOM     10  C   LIG    1       27.170 -19.543   5.286  0.00  0.00    +0.056 A 
ATOM     11  C   LIG    1       23.962 -18.544   3.579  0.00  0.00    +0.026 A 
BRANCH   7  12
ATOM     12  O   LIG    1       28.891 -20.451   6.586  0.00  0.00    -0.495 OA
ATOM     13  C   LIG    1       29.427 -19.134   6.692  0.00  0.00    +0.277 C 
ENDBRANCH   7  12
ENDBRANCH   1   2
BRANCH   1  17
ATOM     14  C   LIG    1       26.989 -14.089   4.806  0.00  0.00    +0.028 C 
ATOM     15  C   LIG    1       25.454 -13.990   4.625  0.00  0.00    -0.000 C 
ATOM     16  C   LIG    1       24.943 -15.412   4.323  0.00  0.00    +0.026 C 
ATOM     17  C   LIG    1       25.660 -15.970   3.079  0.00  0.00    +0.090 C 
ATOM     18  N   LIG    1       26.577 -14.945   2.462  0.00  0.00    -0.296 NA
ATOM     19  C   LIG    1       25.748 -13.743   2.139  0.00  0.00    +0.085 C 
ATOM     20  C   LIG    1       25.137 -13.111   3.404  0.00  0.00    +0.019 C 
ATOM     21  C   LIG    1       27.600 -14.464   3.431  0.00  0.00    +0.092 C 
BRANCH  14  23
ATOM     22  C   LIG    1       28.719 -12.264   4.909  0.00  0.00    +0.004 C 
ATOM     23  C   LIG    1       27.588 -12.818   5.364  0.00  0.00    -0.029 C 
ENDBRANCH  14  23
ENDBRANCH   1  17
BRANCH   1  24
ATOM     24  O   LIG    1       27.483 -17.413   3.851  0.00  0.00    -0.386 OA
ATOM     25  H   LIG    1       27.712 -18.346   4.032  0.00  0.00    +0.210 HD
ENDBRANCH   1  24
TORSDOF 5
ENDMDL
