MODEL 1
REMARK VINA RESULT:       3.7      0.000      0.000
REMARK  Name = *****
REMARK                            x       y       z     vdW  Elec       q    Type
REMARK                         _______ _______ _______ _____ _____    ______ ____
ROOT
ATOM      1  C   LIG    1       25.556 -14.400   5.783  0.00  0.00    +0.015 C 
ATOM      2  C   LIG    1       25.516 -14.432   4.248  0.00  0.00    +0.009 C 
ATOM      3  C   LIG    1       26.185 -13.154   3.643  0.00  0.00    +0.132 C 
ATOM      4  C   LIG    1       25.702 -13.135   2.189  0.00  0.00    +0.043 C 
ATOM      5  C   LIG    1       24.332 -13.834   2.212  0.00  0.00    +0.007 C 
ATOM      6  C   LIG    1       24.083 -14.270   3.678  0.00  0.00    +0.002 C 
ATOM      7  C   LIG    1       23.138 -15.483   3.795  0.00  0.00    -0.001 C 
ATOM      8  C   LIG    1       22.409 -15.513   5.161  0.00  0.00    +0.008 C 
ATOM      9  C   LIG    1       22.398 -16.822   5.956  0.00  0.00    +0.032 C 
ATOM     10  C   LIG    1       22.608 -18.109   5.196  0.00  0.00    -0.060 C 
ATOM     11  C   LIG    1       22.779 -18.030   3.686  0.00  0.00    -0.005 C 
ATOM     12  C   LIG    1       21.378 -17.755   3.058  0.00  0.00    +0.016 C 
ATOM     13  C   LIG    1       23.232 -19.382   3.039  0.00  0.00    +0.019 C 
ATOM     14  C   LIG    1       23.907 -20.383   3.965  0.00  0.00    +0.080 C 
ATOM     15  C   LIG    1       23.162 -20.504   5.263  0.00  0.00    +0.156 C 
ATOM     16  O   LIG    1       23.017 -21.572   5.853  0.00  0.00    -0.293 OA
ATOM     17  C   LIG    1       22.724 -19.247   5.902  0.00  0.00    +0.046 C 
ATOM     18  C   LIG    1       23.764 -16.835   3.367  0.00  0.00    +0.031 C 
ATOM     19  C   LIG    1       25.191 -16.996   3.945  0.00  0.00    +0.119 C 
ATOM     20  C   LIG    1       26.092 -15.770   3.738  0.00  0.00    +0.042 C 
ENDROOT
BRANCH   3  21
ATOM     21  C   LIG    1       27.700 -12.899   3.777  0.00  0.00    +0.190 C 
ATOM     22  O   LIG    1       28.422 -12.970   2.771  0.00  0.00    -0.292 OA
BRANCH  21  23
ATOM     23  C   LIG    1       28.330 -12.570   5.113  0.00  0.00    +0.233 C 
BRANCH  23  24
ATOM     24  O   LIG    1       29.474 -11.753   4.942  0.00  0.00    -0.387 OA
ATOM     25  H   LIG    1       29.920 -11.705   5.809  0.00  0.00    +0.210 HD
ENDBRANCH  23  24
ENDBRANCH  21  23
ENDBRANCH   3  21
BRANCH   3  26
ATOM     26  O   LIG    1       25.565 -11.995   4.267  0.00  0.00    -0.380 OA
ATOM     27  H   LIG    1       25.386 -11.349   3.550  0.00  0.00    +0.211 HD
ENDBRANCH   3  26
BRANCH  19  28
ATOM     28  O   LIG    1       25.859 -18.088   3.312  0.00  0.00    -0.392 OA
ATOM     29  H   LIG    1       25.795 -18.868   3.887  0.00  0.00    +0.210 HD
ENDBRANCH  19  28
TORSDOF 5
ENDMDL
MODEL 2
REMARK VINA RESULT:       5.9      1.999      6.901
REMARK  Name = *****
REMARK                            x       y       z     vdW  Elec       q    Type
REMARK                         _______ _______ _______ _____ _____    ______ ____
ROOT
ATOM      1  C   LIG    1       25.283 -19.050   5.966  0.00  0.00    +0.015 C 
ATOM      2  C   LIG    1       24.567 -19.089   4.608  0.00  0.00    +0.009 C 
ATOM      3  C   LIG    1       24.096 -20.540   4.263  0.00  0.00    +0.132 C 
ATOM      4  C   LIG    1       23.799 -20.489   2.762  0.00  0.00    +0.043 C 
ATOM      5  C   LIG    1       24.737 -19.404   2.204  0.00  0.00    +0.007 C 
ATOM      6  C   LIG    1       25.522 -18.835   3.412  0.00  0.00    +0.002 C 
ATOM      7  C   LIG    1       26.004 -17.387   3.193  0.00  0.00    -0.001 C 
ATOM      8  C   LIG    1       27.256 -17.064   4.045  0.00  0.00    +0.008 C 
ATOM      9  C   LIG    1       27.265 -15.773   4.870  0.00  0.00    +0.032 C 
ATOM     10  C   LIG    1       26.349 -14.654   4.438  0.00  0.00    -0.060 C 
ATOM     11  C   LIG    1       25.503 -14.862   3.191  0.00  0.00    -0.005 C 
ATOM     12  C   LIG    1       26.437 -14.729   1.949  0.00  0.00    +0.016 C 
ATOM     13  C   LIG    1       24.422 -13.750   2.979  0.00  0.00    +0.019 C 
ATOM     14  C   LIG    1       24.017 -12.955   4.213  0.00  0.00    +0.080 C 
ATOM     15  C   LIG    1       25.223 -12.543   5.007  0.00  0.00    +0.156 C 
ATOM     16  O   LIG    1       25.315 -11.452   5.564  0.00  0.00    -0.293 OA
ATOM     17  C   LIG    1       26.261 -13.570   5.229  0.00  0.00    +0.046 C 
ATOM     18  C   LIG    1       24.885 -16.316   3.256  0.00  0.00    +0.031 C 
ATOM     19  C   LIG    1       23.938 -16.569   4.454  0.00  0.00    +0.119 C 
ATOM     20  C   LIG    1       23.453 -18.020   4.573  0.00  0.00    +0.042 C 
ENDROOT
BRANCH   3  21
ATOM     21  C   LIG    1       22.984 -21.239   5.073  0.00  0.00    +0.190 C 
ATOM     22  O   LIG    1       21.918 -21.537   4.513  0.00  0.00    -0.292 OA
BRANCH  21  23
ATOM     23  C   LIG    1       23.161 -21.565   6.540  0.00  0.00    +0.233 C 
BRANCH  23  24
ATOM     24  O   LIG    1       24.532 -21.571   6.892  0.00  0.00    -0.387 OA
ATOM     25  H   LIG    1       24.977 -20.928   6.307  0.00  0.00    +0.210 HD
ENDBRANCH  23  24
ENDBRANCH  21  23
ENDBRANCH   3  21
BRANCH   3  26
ATOM     26  O   LIG    1       25.247 -21.420   4.395  0.00  0.00    -0.380 OA
ATOM     27  H   LIG    1       25.918 -21.108   3.751  0.00  0.00    +0.211 HD
ENDBRANCH   3  26
BRANCH  19  28
ATOM     28  O   LIG    1       22.762 -15.769   4.329  0.00  0.00    -0.392 OA
ATOM     29  H   LIG    1       23.027 -14.848   4.168  0.00  0.00    +0.210 HD
ENDBRANCH  19  28
TORSDOF 5
ENDMDL
MODEL 3
REMARK VINA RESULT:       6.2      1.975      6.990
REMARK  Name = *****
REMARK                            x       y       z     vdW  Elec       q    Type
REMARK                         _______ _______ _______ _____ _____    ______ ____
ROOT
ATOM      1  C   LIG    1       25.436 -19.053   5.874  0.00  0.00    +0.015 C 
ATOM      2  C   LIG    1       24.680 -19.070   4.537  0.00  0.00    +0.009 C 
ATOM      3  C   LIG    1       24.211 -20.518   4.177  0.00  0.00    +0.132 C 
ATOM      4  C   LIG    1       23.869 -20.439   2.686  0.00  0.00    +0.043 C 
ATOM      5  C   LIG    1       24.782 -19.335   2.124  0.00  0.00    +0.007 C 
ATOM      6  C   LIG    1       25.598 -18.784   3.320  0.00  0.00    +0.002 C 
ATOM      7  C   LIG    1       26.061 -17.328   3.116  0.00  0.00    -0.001 C 
ATOM      8  C   LIG    1       27.335 -17.011   3.938  0.00  0.00    +0.008 C 
ATOM      9  C   LIG    1       27.358 -15.737   4.788  0.00  0.00    +0.032 C 
ATOM     10  C   LIG    1       26.421 -14.618   4.406  0.00  0.00    -0.060 C 
ATOM     11  C   LIG    1       25.540 -14.807   3.181  0.00  0.00    -0.005 C 
ATOM     12  C   LIG    1       26.436 -14.641   1.915  0.00  0.00    +0.016 C 
ATOM     13  C   LIG    1       24.444 -13.700   3.024  0.00  0.00    +0.019 C 
ATOM     14  C   LIG    1       24.070 -12.935   4.285  0.00  0.00    +0.080 C 
ATOM     15  C   LIG    1       25.295 -12.529   5.052  0.00  0.00    +0.156 C 
ATOM     16  O   LIG    1       25.395 -11.449   5.629  0.00  0.00    -0.293 OA
ATOM     17  C   LIG    1       26.347 -13.551   5.222  0.00  0.00    +0.046 C 
ATOM     18  C   LIG    1       24.936 -16.268   3.234  0.00  0.00    +0.031 C 
ATOM     19  C   LIG    1       24.027 -16.553   4.454  0.00  0.00    +0.119 C 
ATOM     20  C   LIG    1       23.557 -18.010   4.557  0.00  0.00    +0.042 C 
ENDROOT
BRANCH   3  21
ATOM     21  C   LIG    1       23.129 -21.243   5.004  0.00  0.00    +0.190 C 
ATOM     22  O   LIG    1       23.375 -21.572   6.175  0.00  0.00    -0.292 OA
BRANCH  21  23
ATOM     23  C   LIG    1       21.774 -21.572   4.416  0.00  0.00    +0.233 C 
BRANCH  23  24
ATOM     24  O   LIG    1       20.921 -20.443   4.459  0.00  0.00    -0.387 OA
ATOM     25  H   LIG    1       20.013 -20.768   4.308  0.00  0.00    +0.210 HD
ENDBRANCH  23  24
ENDBRANCH  21  23
ENDBRANCH   3  21
BRANCH   3  26
ATOM     26  O   LIG    1       25.373 -21.390   4.256  0.00  0.00    -0.380 OA
ATOM     27  H   LIG    1       25.077 -22.284   3.981  0.00  0.00    +0.211 HD
ENDBRANCH   3  26
BRANCH  19  28
ATOM     28  O   LIG    1       22.841 -15.761   4.380  0.00  0.00    -0.392 OA
ATOM     29  H   LIG    1       23.095 -14.829   4.270  0.00  0.00    +0.210 HD
ENDBRANCH  19  28
TORSDOF 5
ENDMDL
