MODEL 1
REMARK VINA RESULT:       1.2      0.000      0.000
REMARK  Name = *****
REMARK                            x       y       z     vdW  Elec       q    Type
REMARK                         _______ _______ _______ _____ _____    ______ ____
ROOT
ATOM      1  C   LIG    1       25.707 -13.997   3.125  0.00  0.00    +0.157 C 
ATOM      2  C   LIG    1       25.416 -15.497   2.913  0.00  0.00    +0.196 C 
ATOM      3  C   LIG    1       24.241 -15.923   3.717  0.00  0.00    +0.068 C 
ATOM      4  C   LIG    1       23.857 -15.295   4.837  0.00  0.00    +0.204 C 
ATOM      5  O   LIG    1       24.508 -14.199   5.371  0.00  0.00    -0.477 OA
ATOM      6  C   LIG    1       25.603 -13.587   4.623  0.00  0.00    +0.228 C 
ENDROOT
BRANCH   1   9
ATOM      7  C   LIG    1       23.144 -11.447   1.825  0.00  0.00    +0.109 C 
ATOM      8  C   LIG    1       23.959 -12.201   2.842  0.00  0.00    +0.210 C 
ATOM      9  N   LIG    1       24.827 -13.127   2.291  0.00  0.00    -0.305 N 
ATOM     10  H   LIG    1       24.807 -13.270   1.290  0.00  0.00    +0.149 HD
ATOM     11  O   LIG    1       23.836 -12.002   4.045  0.00  0.00    -0.276 OA
ENDBRANCH   1   9
BRANCH   2  12
ATOM     12  N   LIG    1       26.540 -16.370   3.259  0.00  0.00    -0.268 N 
ATOM     13  H   LIG    1       27.353 -16.180   2.661  0.00  0.00    +0.259 HD
BRANCH  12  14
ATOM     14  C   LIG    1       26.405 -17.695   3.495  0.00  0.00    +0.377 C 
ATOM     15  N   LIG    1       25.455 -18.469   3.119  0.00  0.00    -0.130 NA
ATOM     16  H   LIG    1       24.761 -17.930   2.608  0.00  0.00    +0.306 HD
BRANCH  14  17
ATOM     17  N   LIG    1       27.390 -18.231   4.242  0.00  0.00    -0.289 N 
ATOM     18  H   LIG    1       27.807 -17.480   4.788  0.00  0.00    +0.255 HD
ATOM     19  H   LIG    1       28.115 -18.673   3.690  0.00  0.00    +0.255 HD
ENDBRANCH  14  17
ENDBRANCH  12  14
ENDBRANCH   2  12
BRANCH   4  20
ATOM     20  C   LIG    1       22.641 -15.802   5.544  0.00  0.00    +0.372 C 
ATOM     21  O   LIG    1       22.069 -15.226   6.475  0.00  0.00    -0.242 OA
BRANCH  20  22
ATOM     22  O   LIG    1       22.251 -17.002   5.073  0.00  0.00    -0.475 OA
ATOM     23  H   LIG    1       21.293 -17.141   5.234  0.00  0.00    +0.295 HD
ENDBRANCH  20  22
ENDBRANCH   4  20
BRANCH   6  24
ATOM     24  C   LIG    1       26.920 -13.725   5.442  0.00  0.00    +0.188 C 
BRANCH  24  25
ATOM     25  O   LIG    1       27.478 -15.038   5.261  0.00  0.00    -0.385 OA
ATOM     26  H   LIG    1       26.777 -15.684   5.473  0.00  0.00    +0.210 HD
ENDBRANCH  24  25
BRANCH  24  27
ATOM     27  C   LIG    1       27.987 -12.638   5.150  0.00  0.00    +0.172 C 
BRANCH  27  28
ATOM     28  O   LIG    1       28.809 -12.399   6.291  0.00  0.00    -0.387 OA
ATOM     29  H   LIG    1       29.189 -13.264   6.548  0.00  0.00    +0.210 HD
ENDBRANCH  27  28
BRANCH  27  30
ATOM     30  C   LIG    1       28.867 -12.941   3.932  0.00  0.00    +0.190 C 
BRANCH  30  31
ATOM     31  O   LIG    1       28.098 -12.667   2.761  0.00  0.00    -0.392 OA
ATOM     32  H   LIG    1       27.626 -11.830   2.915  0.00  0.00    +0.209 HD
ENDBRANCH  30  31
ENDBRANCH  27  30
ENDBRANCH  24  27
ENDBRANCH   6  24
TORSDOF 12
ENDMDL
MODEL 2
REMARK VINA RESULT:       2.6      3.610      5.694
REMARK  Name = *****
REMARK                            x       y       z     vdW  Elec       q    Type
REMARK                         _______ _______ _______ _____ _____    ______ ____
ROOT
ATOM      1  C   LIG    1       22.547 -19.089   3.749  0.00  0.00    +0.157 C 
ATOM      2  C   LIG    1       22.210 -18.469   5.121  0.00  0.00    +0.196 C 
ATOM      3  C   LIG    1       22.647 -17.049   5.176  0.00  0.00    +0.068 C 
ATOM      4  C   LIG    1       23.641 -16.563   4.421  0.00  0.00    +0.204 C 
ATOM      5  O   LIG    1       24.371 -17.317   3.522  0.00  0.00    -0.477 OA
ATOM      6  C   LIG    1       23.973 -18.697   3.264  0.00  0.00    +0.228 C 
ENDROOT
BRANCH   1   9
ATOM      7  C   LIG    1       19.350 -18.198   1.812  0.00  0.00    +0.109 C 
ATOM      8  C   LIG    1       20.207 -18.505   3.012  0.00  0.00    +0.210 C 
ATOM      9  N   LIG    1       21.535 -18.742   2.708  0.00  0.00    -0.305 N 
ATOM     10  H   LIG    1       21.812 -18.753   1.735  0.00  0.00    +0.149 HD
ATOM     11  O   LIG    1       19.740 -18.548   4.144  0.00  0.00    -0.276 OA
ENDBRANCH   1   9
BRANCH   2  12
ATOM     12  N   LIG    1       22.818 -19.174   6.251  0.00  0.00    -0.268 N 
ATOM     13  H   LIG    1       23.598 -18.635   6.646  0.00  0.00    +0.259 HD
BRANCH  12  14
ATOM     14  C   LIG    1       23.097 -20.497   6.238  0.00  0.00    +0.377 C 
ATOM     15  N   LIG    1       22.510 -21.419   5.566  0.00  0.00    -0.130 NA
ATOM     16  H   LIG    1       21.750 -21.013   5.027  0.00  0.00    +0.306 HD
BRANCH  14  17
ATOM     17  N   LIG    1       24.098 -20.865   7.062  0.00  0.00    -0.289 N 
ATOM     18  H   LIG    1       24.071 -20.250   7.873  0.00  0.00    +0.255 HD
ATOM     19  H   LIG    1       25.013 -20.798   6.633  0.00  0.00    +0.255 HD
ENDBRANCH  14  17
ENDBRANCH  12  14
ENDBRANCH   2  12
BRANCH   4  20
ATOM     20  C   LIG    1       23.971 -15.109   4.549  0.00  0.00    +0.372 C 
ATOM     21  O   LIG    1       24.910 -14.542   3.981  0.00  0.00    -0.242 OA
BRANCH  20  22
ATOM     22  O   LIG    1       23.139 -14.479   5.400  0.00  0.00    -0.475 OA
ATOM     23  H   LIG    1       23.424 -14.619   6.329  0.00  0.00    +0.295 HD
ENDBRANCH  20  22
ENDBRANCH   4  20
BRANCH   6  24
ATOM     24  C   LIG    1       25.115 -19.652   3.720  0.00  0.00    +0.188 C 
BRANCH  24  25
ATOM     25  O   LIG    1       25.093 -20.857   2.934  0.00  0.00    -0.385 OA
ATOM     26  H   LIG    1       26.013 -21.175   2.862  0.00  0.00    +0.210 HD
ENDBRANCH  24  25
BRANCH  24  27
ATOM     27  C   LIG    1       26.534 -19.025   3.710  0.00  0.00    +0.172 C 
BRANCH  27  28
ATOM     28  O   LIG    1       26.474 -17.613   3.514  0.00  0.00    -0.387 OA
ATOM     29  H   LIG    1       25.584 -17.327   3.803  0.00  0.00    +0.210 HD
ENDBRANCH  27  28
BRANCH  27  30
ATOM     30  C   LIG    1       27.361 -19.340   4.961  0.00  0.00    +0.190 C 
BRANCH  30  31
ATOM     31  O   LIG    1       26.745 -20.445   5.623  0.00  0.00    -0.392 OA
ATOM     32  H   LIG    1       27.452 -21.063   5.875  0.00  0.00    +0.209 HD
ENDBRANCH  30  31
ENDBRANCH  27  30
ENDBRANCH  24  27
ENDBRANCH   6  24
TORSDOF 12
ENDMDL
MODEL 3
REMARK VINA RESULT:       3.7      2.040      4.488
REMARK  Name = *****
REMARK                            x       y       z     vdW  Elec       q    Type
REMARK                         _______ _______ _______ _____ _____    ______ ____
ROOT
ATOM      1  C   LIG    1       26.624 -14.405   4.183  0.00  0.00    +0.157 C 
ATOM      2  C   LIG    1       25.804 -13.696   5.282  0.00  0.00    +0.196 C 
ATOM      3  C   LIG    1       24.527 -14.416   5.528  0.00  0.00    +0.068 C 
ATOM      4  C   LIG    1       23.932 -15.181   4.604  0.00  0.00    +0.204 C 
ATOM      5  O   LIG    1       24.425 -15.380   3.329  0.00  0.00    -0.477 OA
ATOM      6  C   LIG    1       25.738 -14.843   2.982  0.00  0.00    +0.228 C 
ENDROOT
BRANCH   1   9
ATOM      7  C   LIG    1       28.194 -17.856   4.806  0.00  0.00    +0.109 C 
ATOM      8  C   LIG    1       27.379 -16.809   4.094  0.00  0.00    +0.210 C 
ATOM      9  N   LIG    1       27.389 -15.572   4.712  0.00  0.00    -0.305 N 
ATOM     10  H   LIG    1       27.872 -15.479   5.596  0.00  0.00    +0.149 HD
ATOM     11  O   LIG    1       26.760 -17.062   3.066  0.00  0.00    -0.276 OA
ENDBRANCH   1   9
BRANCH   2  12
ATOM     12  N   LIG    1       25.485 -12.301   4.972  0.00  0.00    -0.268 N 
ATOM     13  H   LIG    1       26.185 -11.664   5.371  0.00  0.00    +0.259 HD
BRANCH  12  14
ATOM     14  C   LIG    1       24.239 -11.785   5.075  0.00  0.00    +0.377 C 
ATOM     15  N   LIG    1       23.613 -11.447   6.142  0.00  0.00    -0.130 NA
ATOM     16  H   LIG    1       24.193 -11.646   6.953  0.00  0.00    +0.306 HD
BRANCH  14  17
ATOM     17  N   LIG    1       23.594 -11.647   3.900  0.00  0.00    -0.289 N 
ATOM     18  H   LIG    1       23.420 -10.654   3.758  0.00  0.00    +0.255 HD
ATOM     19  H   LIG    1       22.710 -12.139   3.871  0.00  0.00    +0.255 HD
ENDBRANCH  14  17
ENDBRANCH  12  14
ENDBRANCH   2  12
BRANCH   4  20
ATOM     20  C   LIG    1       22.661 -15.875   4.981  0.00  0.00    +0.372 C 
ATOM     21  O   LIG    1       22.251 -16.927   4.479  0.00  0.00    -0.242 OA
BRANCH  20  22
ATOM     22  O   LIG    1       21.977 -15.193   5.919  0.00  0.00    -0.475 OA
ATOM     23  H   LIG    1       21.137 -15.653   6.137  0.00  0.00    +0.295 HD
ENDBRANCH  20  22
ENDBRANCH   4  20
BRANCH   6  24
ATOM     24  C   LIG    1       25.573 -13.781   1.856  0.00  0.00    +0.188 C 
BRANCH  24  25
ATOM     25  O   LIG    1       24.256 -13.205   1.910  0.00  0.00    -0.385 OA
ATOM     26  H   LIG    1       23.895 -13.219   1.003  0.00  0.00    +0.210 HD
ENDBRANCH  24  25
BRANCH  24  27
ATOM     27  C   LIG    1       26.652 -12.666   1.846  0.00  0.00    +0.172 C 
BRANCH  27  28
ATOM     28  O   LIG    1       26.142 -11.448   2.386  0.00  0.00    -0.387 OA
ATOM     29  H   LIG    1       26.538 -11.349   3.276  0.00  0.00    +0.210 HD
ENDBRANCH  27  28
BRANCH  27  30
ATOM     30  C   LIG    1       27.949 -13.049   2.567  0.00  0.00    +0.190 C 
BRANCH  30  31
ATOM     31  O   LIG    1       28.348 -11.934   3.366  0.00  0.00    -0.392 OA
ATOM     32  H   LIG    1       29.281 -12.071   3.606  0.00  0.00    +0.209 HD
ENDBRANCH  30  31
ENDBRANCH  27  30
ENDBRANCH  24  27
ENDBRANCH   6  24
TORSDOF 12
ENDMDL
MODEL 4
REMARK VINA RESULT:       4.0      3.403      6.893
REMARK  Name = *****
REMARK                            x       y       z     vdW  Elec       q    Type
REMARK                         _______ _______ _______ _____ _____    ______ ____
ROOT
ATOM      1  C   LIG    1       25.483 -19.378   4.769  0.00  0.00    +0.157 C 
ATOM      2  C   LIG    1       25.888 -19.238   3.287  0.00  0.00    +0.196 C 
ATOM      3  C   LIG    1       26.010 -17.805   2.910  0.00  0.00    +0.068 C 
ATOM      4  C   LIG    1       25.351 -16.826   3.544  0.00  0.00    +0.204 C 
ATOM      5  O   LIG    1       24.486 -17.033   4.601  0.00  0.00    -0.477 OA
ATOM      6  C   LIG    1       24.363 -18.374   5.167  0.00  0.00    +0.228 C 
ENDROOT
BRANCH   1   9
ATOM      7  C   LIG    1       28.516 -19.968   7.053  0.00  0.00    +0.109 C 
ATOM      8  C   LIG    1       27.402 -20.324   6.105  0.00  0.00    +0.210 C 
ATOM      9  N   LIG    1       26.650 -19.240   5.689  0.00  0.00    -0.305 N 
ATOM     10  H   LIG    1       26.855 -18.331   6.084  0.00  0.00    +0.149 HD
ATOM     11  O   LIG    1       27.193 -21.481   5.759  0.00  0.00    -0.276 OA
ENDBRANCH   1   9
BRANCH   2  12
ATOM     12  N   LIG    1       24.951 -19.871   2.357  0.00  0.00    -0.268 N 
ATOM     13  H   LIG    1       24.338 -19.174   1.917  0.00  0.00    +0.259 HD
BRANCH  12  14
ATOM     14  C   LIG    1       24.272 -21.005   2.646  0.00  0.00    +0.377 C 
ATOM     15  N   LIG    1       23.353 -21.571   1.953  0.00  0.00    -0.130 NA
ATOM     16  H   LIG    1       23.171 -21.020   1.118  0.00  0.00    +0.306 HD
BRANCH  14  17
ATOM     17  N   LIG    1       24.602 -21.568   3.825  0.00  0.00    -0.289 N 
ATOM     18  H   LIG    1       24.904 -20.823   4.449  0.00  0.00    +0.255 HD
ATOM     19  H   LIG    1       25.347 -22.249   3.747  0.00  0.00    +0.255 HD
ENDBRANCH  14  17
ENDBRANCH  12  14
ENDBRANCH   2  12
BRANCH   4  20
ATOM     20  C   LIG    1       25.577 -15.419   3.087  0.00  0.00    +0.372 C 
ATOM     21  O   LIG    1       26.424 -15.069   2.259  0.00  0.00    -0.242 OA
BRANCH  20  22
ATOM     22  O   LIG    1       24.765 -14.551   3.719  0.00  0.00    -0.475 OA
ATOM     23  H   LIG    1       25.053 -13.627   3.555  0.00  0.00    +0.295 HD
ENDBRANCH  20  22
ENDBRANCH   4  20
BRANCH   6  24
ATOM     24  C   LIG    1       22.908 -18.885   4.958  0.00  0.00    +0.188 C 
BRANCH  24  25
ATOM     25  O   LIG    1       22.693 -19.207   3.572  0.00  0.00    -0.385 OA
ATOM     26  H   LIG    1       21.728 -19.247   3.429  0.00  0.00    +0.210 HD
ENDBRANCH  24  25
BRANCH  24  27
ATOM     27  C   LIG    1       22.498 -20.078   5.861  0.00  0.00    +0.172 C 
BRANCH  27  28
ATOM     28  O   LIG    1       22.296 -21.263   5.093  0.00  0.00    -0.387 OA
ATOM     29  H   LIG    1       21.568 -21.756   5.525  0.00  0.00    +0.210 HD
ENDBRANCH  27  28
BRANCH  27  30
ATOM     30  C   LIG    1       23.483 -20.362   7.001  0.00  0.00    +0.190 C 
BRANCH  30  31
ATOM     31  O   LIG    1       24.313 -21.452   6.598  0.00  0.00    -0.392 OA
ATOM     32  H   LIG    1       23.818 -21.961   5.934  0.00  0.00    +0.209 HD
ENDBRANCH  30  31
ENDBRANCH  27  30
ENDBRANCH  24  27
ENDBRANCH   6  24
TORSDOF 12
ENDMDL
