MODEL 1
REMARK VINA RESULT:      -5.8      0.000      0.000
REMARK  Name = *****
REMARK                            x       y       z     vdW  Elec       q    Type
REMARK                         _______ _______ _______ _____ _____    ______ ____
ROOT
ATOM      1  C   LIG    1       24.149 -18.410   3.980  0.00  0.00    -0.033 A 
ATOM      2  C   LIG    1       24.575 -17.084   3.772  0.00  0.00    +0.016 A 
ATOM      3  C   LIG    1       23.715 -16.004   4.022  0.00  0.00    +0.022 A 
ATOM      4  C   LIG    1       22.434 -16.244   4.530  0.00  0.00    +0.012 A 
ATOM      5  C   LIG    1       22.008 -17.551   4.760  0.00  0.00    +0.001 A 
ATOM      6  C   LIG    1       22.860 -18.622   4.491  0.00  0.00    +0.004 A 
ENDROOT
BRANCH   1   8
ATOM      7  C   LIG    1       24.355 -20.781   3.091  0.00  0.00    +0.024 C 
ATOM      8  C   LIG    1       25.094 -19.570   3.681  0.00  0.00    +0.124 C 
BRANCH   8   9
ATOM      9  C   LIG    1       25.950 -20.050   4.853  0.00  0.00    +0.312 C 
ATOM     10  O   LIG    1       25.468 -20.546   5.859  0.00  0.00    -0.250 OA
BRANCH   9  11
ATOM     11  O   LIG    1       27.289 -19.913   4.723  0.00  0.00    -0.480 OA
ATOM     12  H   LIG    1       27.835 -20.539   5.233  0.00  0.00    +0.295 HD
ENDBRANCH   9  11
ENDBRANCH   8   9
ENDBRANCH   1   8
BRANCH   3  13
ATOM     13  C   LIG    1       24.141 -14.592   3.813  0.00  0.00    +0.193 C 
ATOM     14  O   LIG    1       23.286 -13.744   3.576  0.00  0.00    -0.287 OA
BRANCH  13  15
ATOM     15  C   LIG    1       25.569 -14.183   3.906  0.00  0.00    +0.022 A 
ATOM     16  C   LIG    1       26.348 -14.200   2.742  0.00  0.00    +0.012 A 
ATOM     17  C   LIG    1       27.686 -13.805   2.788  0.00  0.00    +0.001 A 
ATOM     18  C   LIG    1       28.253 -13.398   3.997  0.00  0.00    +0.000 A 
ATOM     19  C   LIG    1       27.489 -13.403   5.163  0.00  0.00    +0.001 A 
ATOM     20  C   LIG    1       26.154 -13.810   5.122  0.00  0.00    +0.012 A 
ENDBRANCH  13  15
ENDBRANCH   3  13
TORSDOF 5
ENDMDL
MODEL 2
REMARK VINA RESULT:      -5.8      0.037      1.110
REMARK  Name = *****
REMARK                            x       y       z     vdW  Elec       q    Type
REMARK                         _______ _______ _______ _____ _____    ______ ____
ROOT
ATOM      1  C   LIG    1       24.159 -18.423   3.975  0.00  0.00    -0.033 A 
ATOM      2  C   LIG    1       24.575 -17.094   3.769  0.00  0.00    +0.016 A 
ATOM      3  C   LIG    1       23.705 -16.021   4.021  0.00  0.00    +0.022 A 
ATOM      4  C   LIG    1       22.426 -16.273   4.528  0.00  0.00    +0.012 A 
ATOM      5  C   LIG    1       22.011 -17.583   4.755  0.00  0.00    +0.001 A 
ATOM      6  C   LIG    1       22.872 -18.647   4.485  0.00  0.00    +0.004 A 
ENDROOT
BRANCH   1   8
ATOM      7  C   LIG    1       24.387 -20.788   3.076  0.00  0.00    +0.024 C 
ATOM      8  C   LIG    1       25.114 -19.575   3.674  0.00  0.00    +0.124 C 
BRANCH   8   9
ATOM      9  C   LIG    1       25.970 -20.053   4.846  0.00  0.00    +0.312 C 
ATOM     10  O   LIG    1       25.488 -20.547   5.854  0.00  0.00    -0.250 OA
BRANCH   9  11
ATOM     11  O   LIG    1       27.309 -19.917   4.716  0.00  0.00    -0.480 OA
ATOM     12  H   LIG    1       27.666 -19.022   4.869  0.00  0.00    +0.295 HD
ENDBRANCH   9  11
ENDBRANCH   8   9
ENDBRANCH   1   8
BRANCH   3  13
ATOM     13  C   LIG    1       24.120 -14.605   3.815  0.00  0.00    +0.193 C 
ATOM     14  O   LIG    1       23.255 -13.756   3.622  0.00  0.00    -0.287 OA
BRANCH  13  15
ATOM     15  C   LIG    1       25.550 -14.193   3.861  0.00  0.00    +0.022 A 
ATOM     16  C   LIG    1       26.091 -13.788   5.087  0.00  0.00    +0.012 A 
ATOM     17  C   LIG    1       27.434 -13.412   5.170  0.00  0.00    +0.001 A 
ATOM     18  C   LIG    1       28.237 -13.436   4.029  0.00  0.00    +0.000 A 
ATOM     19  C   LIG    1       27.697 -13.816   2.802  0.00  0.00    +0.001 A 
ATOM     20  C   LIG    1       26.352 -14.178   2.713  0.00  0.00    +0.012 A 
ENDBRANCH  13  15
ENDBRANCH   3  13
TORSDOF 5
ENDMDL
MODEL 3
REMARK VINA RESULT:      -5.7      1.917      5.660
REMARK  Name = *****
REMARK                            x       y       z     vdW  Elec       q    Type
REMARK                         _______ _______ _______ _____ _____    ______ ____
ROOT
ATOM      1  C   LIG    1       24.268 -15.682   4.019  0.00  0.00    -0.033 A 
ATOM      2  C   LIG    1       24.889 -16.935   3.854  0.00  0.00    +0.016 A 
ATOM      3  C   LIG    1       24.174 -18.126   4.054  0.00  0.00    +0.022 A 
ATOM      4  C   LIG    1       22.813 -18.068   4.375  0.00  0.00    +0.012 A 
ATOM      5  C   LIG    1       22.182 -16.835   4.521  0.00  0.00    +0.001 A 
ATOM      6  C   LIG    1       22.903 -15.654   4.340  0.00  0.00    +0.004 A 
ENDROOT
BRANCH   1   8
ATOM      7  C   LIG    1       24.245 -13.301   3.134  0.00  0.00    +0.024 C 
ATOM      8  C   LIG    1       25.070 -14.400   3.818  0.00  0.00    +0.124 C 
BRANCH   8   9
ATOM      9  C   LIG    1       26.391 -14.554   3.063  0.00  0.00    +0.312 C 
ATOM     10  O   LIG    1       26.474 -14.423   1.852  0.00  0.00    -0.250 OA
BRANCH   9  11
ATOM     11  O   LIG    1       27.486 -14.832   3.805  0.00  0.00    -0.480 OA
ATOM     12  H   LIG    1       27.923 -14.070   4.228  0.00  0.00    +0.295 HD
ENDBRANCH   9  11
ENDBRANCH   8   9
ENDBRANCH   1   8
BRANCH   3  13
ATOM     13  C   LIG    1       24.806 -19.463   3.883  0.00  0.00    +0.193 C 
ATOM     14  O   LIG    1       24.643 -20.065   2.825  0.00  0.00    -0.287 OA
BRANCH  13  15
ATOM     15  C   LIG    1       25.643 -20.076   4.950  0.00  0.00    +0.022 A 
ATOM     16  C   LIG    1       26.983 -19.686   5.057  0.00  0.00    +0.012 A 
ATOM     17  C   LIG    1       27.793 -20.226   6.058  0.00  0.00    +0.001 A 
ATOM     18  C   LIG    1       27.269 -21.161   6.951  0.00  0.00    +0.000 A 
ATOM     19  C   LIG    1       25.942 -21.572   6.833  0.00  0.00    +0.001 A 
ATOM     20  C   LIG    1       25.133 -21.043   5.825  0.00  0.00    +0.012 A 
ENDBRANCH  13  15
ENDBRANCH   3  13
TORSDOF 5
ENDMDL
MODEL 4
REMARK VINA RESULT:      -5.5      1.750      2.138
REMARK  Name = *****
REMARK                            x       y       z     vdW  Elec       q    Type
REMARK                         _______ _______ _______ _____ _____    ______ ____
ROOT
ATOM      1  C   LIG    1       24.385 -19.002   4.051  0.00  0.00    -0.033 A 
ATOM      2  C   LIG    1       25.180 -17.895   3.700  0.00  0.00    +0.016 A 
ATOM      3  C   LIG    1       24.644 -16.598   3.688  0.00  0.00    +0.022 A 
ATOM      4  C   LIG    1       23.315 -16.396   4.076  0.00  0.00    +0.012 A 
ATOM      5  C   LIG    1       22.524 -17.482   4.445  0.00  0.00    +0.001 A 
ATOM      6  C   LIG    1       23.056 -18.771   4.437  0.00  0.00    +0.004 A 
ENDROOT
BRANCH   1   8
ATOM      7  C   LIG    1       23.905 -21.493   3.922  0.00  0.00    +0.024 C 
ATOM      8  C   LIG    1       24.982 -20.406   4.037  0.00  0.00    +0.124 C 
BRANCH   8   9
ATOM      9  C   LIG    1       25.896 -20.752   5.212  0.00  0.00    +0.312 C 
ATOM     10  O   LIG    1       25.514 -21.405   6.171  0.00  0.00    -0.250 OA
BRANCH   9  11
ATOM     11  O   LIG    1       27.172 -20.310   5.142  0.00  0.00    -0.480 OA
ATOM     12  H   LIG    1       27.581 -20.044   5.986  0.00  0.00    +0.295 HD
ENDBRANCH   9  11
ENDBRANCH   8   9
ENDBRANCH   1   8
BRANCH   3  13
ATOM     13  C   LIG    1       25.464 -15.409   3.324  0.00  0.00    +0.193 C 
ATOM     14  O   LIG    1       26.627 -15.577   2.969  0.00  0.00    -0.287 OA
BRANCH  13  15
ATOM     15  C   LIG    1       24.903 -14.030   3.359  0.00  0.00    +0.022 A 
ATOM     16  C   LIG    1       24.818 -13.312   2.160  0.00  0.00    +0.012 A 
ATOM     17  C   LIG    1       24.280 -12.023   2.153  0.00  0.00    +0.001 A 
ATOM     18  C   LIG    1       23.831 -11.447   3.342  0.00  0.00    +0.000 A 
ATOM     19  C   LIG    1       23.937 -12.149   4.541  0.00  0.00    +0.001 A 
ATOM     20  C   LIG    1       24.487 -13.432   4.554  0.00  0.00    +0.012 A 
ENDBRANCH  13  15
ENDBRANCH   3  13
TORSDOF 5
ENDMDL
MODEL 5
REMARK VINA RESULT:      -5.5      2.168      6.013
REMARK  Name = *****
REMARK                            x       y       z     vdW  Elec       q    Type
REMARK                         _______ _______ _______ _____ _____    ______ ____
ROOT
ATOM      1  C   LIG    1       25.334 -15.620   3.636  0.00  0.00    -0.033 A 
ATOM      2  C   LIG    1       25.050 -16.999   3.620  0.00  0.00    +0.016 A 
ATOM      3  C   LIG    1       23.801 -17.481   4.040  0.00  0.00    +0.022 A 
ATOM      4  C   LIG    1       22.809 -16.577   4.434  0.00  0.00    +0.012 A 
ATOM      5  C   LIG    1       23.071 -15.210   4.434  0.00  0.00    +0.001 A 
ATOM      6  C   LIG    1       24.321 -14.736   4.035  0.00  0.00    +0.004 A 
ENDROOT
BRANCH   1   8
ATOM      7  C   LIG    1       27.733 -15.163   4.337  0.00  0.00    +0.024 C 
ATOM      8  C   LIG    1       26.707 -15.119   3.196  0.00  0.00    +0.124 C 
BRANCH   8   9
ATOM      9  C   LIG    1       26.737 -13.724   2.571  0.00  0.00    +0.312 C 
ATOM     10  O   LIG    1       25.867 -13.326   1.812  0.00  0.00    -0.250 OA
BRANCH   9  11
ATOM     11  O   LIG    1       27.777 -12.929   2.909  0.00  0.00    -0.480 OA
ATOM     12  H   LIG    1       28.296 -13.209   3.685  0.00  0.00    +0.295 HD
ENDBRANCH   9  11
ENDBRANCH   8   9
ENDBRANCH   1   8
BRANCH   3  13
ATOM     13  C   LIG    1       23.473 -18.934   4.030  0.00  0.00    +0.193 C 
ATOM     14  O   LIG    1       22.786 -19.381   3.116  0.00  0.00    -0.287 OA
BRANCH  13  15
ATOM     15  C   LIG    1       23.974 -19.857   5.086  0.00  0.00    +0.022 A 
ATOM     16  C   LIG    1       25.325 -20.223   5.069  0.00  0.00    +0.012 A 
ATOM     17  C   LIG    1       25.833 -21.072   6.054  0.00  0.00    +0.001 A 
ATOM     18  C   LIG    1       24.993 -21.562   7.055  0.00  0.00    +0.000 A 
ATOM     19  C   LIG    1       23.642 -21.220   7.062  0.00  0.00    +0.001 A 
ATOM     20  C   LIG    1       23.128 -20.382   6.070  0.00  0.00    +0.012 A 
ENDBRANCH  13  15
ENDBRANCH   3  13
TORSDOF 5
ENDMDL
MODEL 6
REMARK VINA RESULT:      -5.3      1.904      6.476
REMARK  Name = *****
REMARK                            x       y       z     vdW  Elec       q    Type
REMARK                         _______ _______ _______ _____ _____    ______ ____
ROOT
ATOM      1  C   LIG    1       25.328 -14.455   3.575  0.00  0.00    -0.033 A 
ATOM      2  C   LIG    1       24.946 -15.791   3.351  0.00  0.00    +0.016 A 
ATOM      3  C   LIG    1       25.892 -16.827   3.397  0.00  0.00    +0.022 A 
ATOM      4  C   LIG    1       27.222 -16.535   3.717  0.00  0.00    +0.012 A 
ATOM      5  C   LIG    1       27.608 -15.219   3.961  0.00  0.00    +0.001 A 
ATOM      6  C   LIG    1       26.668 -14.190   3.894  0.00  0.00    +0.004 A 
ENDROOT
BRANCH   1   8
ATOM      7  C   LIG    1       24.357 -12.573   2.171  0.00  0.00    +0.024 C 
ATOM      8  C   LIG    1       24.288 -13.341   3.499  0.00  0.00    +0.124 C 
BRANCH   8   9
ATOM      9  C   LIG    1       24.311 -12.330   4.645  0.00  0.00    +0.312 C 
ATOM     10  O   LIG    1       23.474 -11.447   4.759  0.00  0.00    -0.250 OA
BRANCH   9  11
ATOM     11  O   LIG    1       25.304 -12.461   5.552  0.00  0.00    -0.480 OA
ATOM     12  H   LIG    1       25.851 -13.264   5.476  0.00  0.00    +0.295 HD
ENDBRANCH   9  11
ENDBRANCH   8   9
ENDBRANCH   1   8
BRANCH   3  13
ATOM     13  C   LIG    1       25.515 -18.250   3.167  0.00  0.00    +0.193 C 
ATOM     14  O   LIG    1       26.021 -18.853   2.226  0.00  0.00    -0.287 OA
BRANCH  13  15
ATOM     15  C   LIG    1       24.559 -18.961   4.060  0.00  0.00    +0.022 A 
ATOM     16  C   LIG    1       25.040 -20.003   4.861  0.00  0.00    +0.012 A 
ATOM     17  C   LIG    1       24.176 -20.680   5.724  0.00  0.00    +0.001 A 
ATOM     18  C   LIG    1       22.829 -20.321   5.786  0.00  0.00    +0.000 A 
ATOM     19  C   LIG    1       22.340 -19.300   4.972  0.00  0.00    +0.001 A 
ATOM     20  C   LIG    1       23.199 -18.631   4.099  0.00  0.00    +0.012 A 
ENDBRANCH  13  15
ENDBRANCH   3  13
TORSDOF 5
ENDMDL
MODEL 7
REMARK VINA RESULT:      -5.2      1.556      6.033
REMARK  Name = *****
REMARK                            x       y       z     vdW  Elec       q    Type
REMARK                         _______ _______ _______ _____ _____    ______ ____
ROOT
ATOM      1  C   LIG    1       24.305 -15.662   3.772  0.00  0.00    -0.033 A 
ATOM      2  C   LIG    1       24.905 -16.929   3.636  0.00  0.00    +0.016 A 
ATOM      3  C   LIG    1       24.213 -18.096   3.997  0.00  0.00    +0.022 A 
ATOM      4  C   LIG    1       22.893 -18.003   4.452  0.00  0.00    +0.012 A 
ATOM      5  C   LIG    1       22.282 -16.757   4.571  0.00  0.00    +0.001 A 
ATOM      6  C   LIG    1       22.980 -15.599   4.229  0.00  0.00    +0.004 A 
ENDROOT
BRANCH   1   8
ATOM      7  C   LIG    1       26.456 -14.347   4.078  0.00  0.00    +0.024 C 
ATOM      8  C   LIG    1       25.083 -14.406   3.394  0.00  0.00    +0.124 C 
BRANCH   8   9
ATOM      9  C   LIG    1       24.363 -13.079   3.637  0.00  0.00    +0.312 C 
ATOM     10  O   LIG    1       24.294 -12.562   4.741  0.00  0.00    -0.250 OA
BRANCH   9  11
ATOM     11  O   LIG    1       23.807 -12.483   2.559  0.00  0.00    -0.480 OA
ATOM     12  H   LIG    1       24.416 -12.254   1.833  0.00  0.00    +0.295 HD
ENDBRANCH   9  11
ENDBRANCH   8   9
ENDBRANCH   1   8
BRANCH   3  13
ATOM     13  C   LIG    1       24.822 -19.448   3.861  0.00  0.00    +0.193 C 
ATOM     14  O   LIG    1       24.699 -20.050   2.799  0.00  0.00    -0.287 OA
BRANCH  13  15
ATOM     15  C   LIG    1       25.593 -20.074   4.970  0.00  0.00    +0.022 A 
ATOM     16  C   LIG    1       24.918 -20.918   5.861  0.00  0.00    +0.012 A 
ATOM     17  C   LIG    1       25.613 -21.538   6.902  0.00  0.00    +0.001 A 
ATOM     18  C   LIG    1       26.981 -21.313   7.059  0.00  0.00    +0.000 A 
ATOM     19  C   LIG    1       27.652 -20.454   6.190  0.00  0.00    +0.001 A 
ATOM     20  C   LIG    1       26.958 -19.822   5.156  0.00  0.00    +0.012 A 
ENDBRANCH  13  15
ENDBRANCH   3  13
TORSDOF 5
ENDMDL
MODEL 8
REMARK VINA RESULT:      -5.1      2.092      3.203
REMARK  Name = *****
REMARK                            x       y       z     vdW  Elec       q    Type
REMARK                         _______ _______ _______ _____ _____    ______ ____
ROOT
ATOM      1  C   LIG    1       24.876 -18.218   3.745  0.00  0.00    -0.033 A 
ATOM      2  C   LIG    1       24.947 -16.888   3.290  0.00  0.00    +0.016 A 
ATOM      3  C   LIG    1       26.163 -16.186   3.305  0.00  0.00    +0.022 A 
ATOM      4  C   LIG    1       27.328 -16.832   3.733  0.00  0.00    +0.012 A 
ATOM      5  C   LIG    1       27.273 -18.154   4.167  0.00  0.00    +0.001 A 
ATOM      6  C   LIG    1       26.059 -18.841   4.169  0.00  0.00    +0.004 A 
ENDROOT
BRANCH   1   8
ATOM      7  C   LIG    1       22.407 -18.106   4.335  0.00  0.00    +0.024 C 
ATOM      8  C   LIG    1       23.540 -18.955   3.740  0.00  0.00    +0.124 C 
BRANCH   8   9
ATOM      9  C   LIG    1       23.531 -20.322   4.426  0.00  0.00    +0.312 C 
ATOM     10  O   LIG    1       23.285 -20.459   5.614  0.00  0.00    -0.250 OA
BRANCH   9  11
ATOM     11  O   LIG    1       23.799 -21.394   3.648  0.00  0.00    -0.480 OA
ATOM     12  H   LIG    1       23.614 -21.290   2.696  0.00  0.00    +0.295 HD
ENDBRANCH   9  11
ENDBRANCH   8   9
ENDBRANCH   1   8
BRANCH   3  13
ATOM     13  C   LIG    1       26.267 -14.780   2.826  0.00  0.00    +0.193 C 
ATOM     14  O   LIG    1       27.087 -14.510   1.953  0.00  0.00    -0.287 OA
BRANCH  13  15
ATOM     15  C   LIG    1       25.390 -13.703   3.362  0.00  0.00    +0.022 A 
ATOM     16  C   LIG    1       24.725 -12.868   2.455  0.00  0.00    +0.012 A 
ATOM     17  C   LIG    1       23.880 -11.859   2.922  0.00  0.00    +0.001 A 
ATOM     18  C   LIG    1       23.700 -11.678   4.294  0.00  0.00    +0.000 A 
ATOM     19  C   LIG    1       24.380 -12.491   5.201  0.00  0.00    +0.001 A 
ATOM     20  C   LIG    1       25.235 -13.491   4.737  0.00  0.00    +0.012 A 
ENDBRANCH  13  15
ENDBRANCH   3  13
TORSDOF 5
ENDMDL
MODEL 9
REMARK VINA RESULT:      -4.8      2.373      5.718
REMARK  Name = *****
REMARK                            x       y       z     vdW  Elec       q    Type
REMARK                         _______ _______ _______ _____ _____    ______ ____
ROOT
ATOM      1  C   LIG    1       25.995 -14.439   3.538  0.00  0.00    -0.033 A 
ATOM      2  C   LIG    1       25.161 -15.476   3.995  0.00  0.00    +0.016 A 
ATOM      3  C   LIG    1       23.771 -15.299   4.080  0.00  0.00    +0.022 A 
ATOM      4  C   LIG    1       23.202 -14.091   3.659  0.00  0.00    +0.012 A 
ATOM      5  C   LIG    1       24.016 -13.064   3.186  0.00  0.00    +0.001 A 
ATOM      6  C   LIG    1       25.398 -13.239   3.123  0.00  0.00    +0.004 A 
ENDROOT
BRANCH   1   8
ATOM      7  C   LIG    1       27.947 -15.916   4.216  0.00  0.00    +0.024 C 
ATOM      8  C   LIG    1       27.505 -14.646   3.475  0.00  0.00    +0.124 C 
BRANCH   8   9
ATOM      9  C   LIG    1       28.359 -13.477   3.966  0.00  0.00    +0.312 C 
ATOM     10  O   LIG    1       28.069 -12.822   4.955  0.00  0.00    -0.250 OA
BRANCH   9  11
ATOM     11  O   LIG    1       29.475 -13.198   3.256  0.00  0.00    -0.480 OA
ATOM     12  H   LIG    1       29.453 -13.437   2.310  0.00  0.00    +0.295 HD
ENDBRANCH   9  11
ENDBRANCH   8   9
ENDBRANCH   1   8
BRANCH   3  13
ATOM     13  C   LIG    1       22.865 -16.381   4.556  0.00  0.00    +0.193 C 
ATOM     14  O   LIG    1       21.808 -16.073   5.099  0.00  0.00    -0.287 OA
BRANCH  13  15
ATOM     15  C   LIG    1       23.200 -17.820   4.372  0.00  0.00    +0.022 A 
ATOM     16  C   LIG    1       22.356 -18.781   4.942  0.00  0.00    +0.012 A 
ATOM     17  C   LIG    1       22.629 -20.141   4.773  0.00  0.00    +0.001 A 
ATOM     18  C   LIG    1       23.746 -20.543   4.042  0.00  0.00    +0.000 A 
ATOM     19  C   LIG    1       24.603 -19.589   3.494  0.00  0.00    +0.001 A 
ATOM     20  C   LIG    1       24.340 -18.230   3.672  0.00  0.00    +0.012 A 
ENDBRANCH  13  15
ENDBRANCH   3  13
TORSDOF 5
ENDMDL
