MODEL 1
REMARK VINA RESULT:      -8.4      0.000      0.000
REMARK  Name = *****
REMARK                            x       y       z     vdW  Elec       q    Type
REMARK                         _______ _______ _______ _____ _____    ______ ____
ROOT
ATOM      1  C   LIG    1       23.982 -20.570   5.819  0.00  0.00    -0.016 A 
ATOM      2  C   LIG    1       25.016 -20.233   4.918  0.00  0.00    +0.035 A 
ATOM      3  C   LIG    1       24.717 -19.391   3.836  0.00  0.00    +0.023 A 
ATOM      4  C   LIG    1       23.480 -18.756   3.736  0.00  0.00    +0.002 A 
ATOM      5  C   LIG    1       22.490 -19.018   4.675  0.00  0.00    +0.000 A 
ATOM      6  C   LIG    1       22.727 -19.945   5.689  0.00  0.00    +0.006 A 
ENDROOT
BRANCH   2   7
ATOM      7  N   LIG    1       26.323 -20.735   5.109  0.00  0.00    -0.312 N 
ATOM      8  H   LIG    1       26.574 -21.402   4.378  0.00  0.00    +0.152 HD
BRANCH   7   9
ATOM      9  C   LIG    1       27.484 -20.097   5.642  0.00  0.00    +0.068 A 
ATOM     10  C   LIG    1       28.089 -20.647   6.800  0.00  0.00    +0.064 A 
ATOM     11 CL   LIG    1       27.456 -22.091   7.527  0.00  0.00    -0.082 Cl
ATOM     12  C   LIG    1       29.206 -20.060   7.409  0.00  0.00    +0.022 A 
ATOM     13  C   LIG    1       29.770 -18.912   6.868  0.00  0.00    +0.003 A 
ATOM     14  C   LIG    1       29.189 -18.333   5.745  0.00  0.00    +0.022 A 
ATOM     15  C   LIG    1       28.035 -18.886   5.165  0.00  0.00    +0.064 A 
ATOM     16 CL   LIG    1       27.310 -17.899   3.936  0.00  0.00    -0.082 Cl
ENDBRANCH   7   9
ENDBRANCH   2   7
BRANCH   1  17
ATOM     17  C   LIG    1       24.195 -21.530   6.967  0.00  0.00    +0.157 C 
BRANCH  17  18
ATOM     18  C   LIG    1       23.925 -22.964   6.593  0.00  0.00    +0.312 C 
ATOM     19  O   LIG    1       22.922 -23.594   6.916  0.00  0.00    -0.251 OA
BRANCH  18  20
ATOM     20  O   LIG    1       24.928 -23.459   5.819  0.00  0.00    -0.453 OA
BRANCH  20  21
ATOM     21  C   LIG    1       25.483 -24.727   6.210  0.00  0.00    +0.352 C 
BRANCH  21  23
ATOM     22  O   LIG    1       25.794 -26.370   4.456  0.00  0.00    -0.247 OA
ATOM     23  C   LIG    1       25.040 -25.800   5.232  0.00  0.00    +0.343 C 
BRANCH  23  24
ATOM     24  O   LIG    1       23.722 -26.103   5.317  0.00  0.00    -0.478 OA
ATOM     25  H   LIG    1       23.214 -25.405   5.777  0.00  0.00    +0.295 HD
ENDBRANCH  23  24
ENDBRANCH  21  23
ENDBRANCH  20  21
ENDBRANCH  18  20
ENDBRANCH  17  18
ENDBRANCH   1  17
TORSDOF 8
ENDMDL
MODEL 2
REMARK VINA RESULT:      -8.3      3.180      6.034
REMARK  Name = *****
REMARK                            x       y       z     vdW  Elec       q    Type
REMARK                         _______ _______ _______ _____ _____    ______ ____
ROOT
ATOM      1  C   LIG    1       25.976 -22.587   6.939  0.00  0.00    -0.016 A 
ATOM      2  C   LIG    1       25.453 -22.443   5.635  0.00  0.00    +0.035 A 
ATOM      3  C   LIG    1       25.025 -23.592   4.952  0.00  0.00    +0.023 A 
ATOM      4  C   LIG    1       24.949 -24.827   5.595  0.00  0.00    +0.002 A 
ATOM      5  C   LIG    1       25.380 -24.950   6.910  0.00  0.00    +0.000 A 
ATOM      6  C   LIG    1       25.922 -23.846   7.567  0.00  0.00    +0.006 A 
ENDROOT
BRANCH   2   7
ATOM      7  N   LIG    1       25.364 -21.167   5.036  0.00  0.00    -0.312 N 
ATOM      8  H   LIG    1       26.087 -21.039   4.327  0.00  0.00    +0.152 HD
BRANCH   7   9
ATOM      9  C   LIG    1       24.220 -20.362   4.753  0.00  0.00    +0.068 A 
ATOM     10  C   LIG    1       24.401 -19.155   4.032  0.00  0.00    +0.064 A 
ATOM     11 CL   LIG    1       25.975 -18.689   3.468  0.00  0.00    -0.082 Cl
ATOM     12  C   LIG    1       23.336 -18.289   3.748  0.00  0.00    +0.022 A 
ATOM     13  C   LIG    1       22.048 -18.611   4.157  0.00  0.00    +0.003 A 
ATOM     14  C   LIG    1       21.839 -19.776   4.886  0.00  0.00    +0.022 A 
ATOM     15  C   LIG    1       22.911 -20.619   5.223  0.00  0.00    +0.064 A 
ATOM     16 CL   LIG    1       22.504 -21.884   6.338  0.00  0.00    -0.082 Cl
ENDBRANCH   7   9
ENDBRANCH   2   7
BRANCH   1  17
ATOM     17  C   LIG    1       26.530 -21.416   7.718  0.00  0.00    +0.157 C 
BRANCH  17  18
ATOM     18  C   LIG    1       27.949 -21.078   7.343  0.00  0.00    +0.312 C 
ATOM     19  O   LIG    1       28.286 -20.539   6.292  0.00  0.00    -0.251 OA
BRANCH  18  20
ATOM     20  O   LIG    1       28.808 -21.420   8.342  0.00  0.00    -0.453 OA
BRANCH  20  21
ATOM     21  C   LIG    1       30.199 -21.123   8.130  0.00  0.00    +0.352 C 
BRANCH  21  23
ATOM     22  O   LIG    1       30.718 -22.099  10.286  0.00  0.00    -0.247 OA
ATOM     23  C   LIG    1       31.042 -21.900   9.124  0.00  0.00    +0.343 C 
BRANCH  23  24
ATOM     24  O   LIG    1       32.188 -22.394   8.597  0.00  0.00    -0.478 OA
ATOM     25  H   LIG    1       32.658 -22.980   9.225  0.00  0.00    +0.295 HD
ENDBRANCH  23  24
ENDBRANCH  21  23
ENDBRANCH  20  21
ENDBRANCH  18  20
ENDBRANCH  17  18
ENDBRANCH   1  17
TORSDOF 8
ENDMDL
MODEL 3
REMARK VINA RESULT:      -8.1      2.167      2.971
REMARK  Name = *****
REMARK                            x       y       z     vdW  Elec       q    Type
REMARK                         _______ _______ _______ _____ _____    ______ ____
ROOT
ATOM      1  C   LIG    1       25.236 -23.185   6.866  0.00  0.00    -0.016 A 
ATOM      2  C   LIG    1       25.912 -21.978   7.149  0.00  0.00    +0.035 A 
ATOM      3  C   LIG    1       25.152 -20.832   7.426  0.00  0.00    +0.023 A 
ATOM      4  C   LIG    1       23.770 -20.905   7.594  0.00  0.00    +0.002 A 
ATOM      5  C   LIG    1       23.113 -22.115   7.405  0.00  0.00    +0.000 A 
ATOM      6  C   LIG    1       23.836 -23.240   7.010  0.00  0.00    +0.006 A 
ENDROOT
BRANCH   2   7
ATOM      7  N   LIG    1       27.324 -21.932   7.151  0.00  0.00    -0.312 N 
ATOM      8  H   LIG    1       27.725 -22.843   6.925  0.00  0.00    +0.152 HD
BRANCH   7   9
ATOM      9  C   LIG    1       28.210 -20.875   6.780  0.00  0.00    +0.068 A 
ATOM     10  C   LIG    1       29.392 -20.683   7.537  0.00  0.00    +0.064 A 
ATOM     11 CL   LIG    1       29.775 -21.739   8.861  0.00  0.00    -0.082 Cl
ATOM     12  C   LIG    1       30.293 -19.645   7.264  0.00  0.00    +0.022 A 
ATOM     13  C   LIG    1       30.053 -18.776   6.208  0.00  0.00    +0.003 A 
ATOM     14  C   LIG    1       28.892 -18.922   5.458  0.00  0.00    +0.022 A 
ATOM     15  C   LIG    1       27.957 -19.924   5.764  0.00  0.00    +0.064 A 
ATOM     16 CL   LIG    1       26.464 -19.801   4.890  0.00  0.00    -0.082 Cl
ENDBRANCH   7   9
ENDBRANCH   2   7
BRANCH   1  17
ATOM     17  C   LIG    1       25.971 -24.449   6.482  0.00  0.00    +0.157 C 
BRANCH  17  18
ATOM     18  C   LIG    1       25.199 -25.309   5.516  0.00  0.00    +0.312 C 
ATOM     19  O   LIG    1       25.037 -25.052   4.326  0.00  0.00    -0.251 OA
BRANCH  18  20
ATOM     20  O   LIG    1       24.733 -26.429   6.132  0.00  0.00    -0.453 OA
BRANCH  20  21
ATOM     21  C   LIG    1       24.947 -27.678   5.452  0.00  0.00    +0.352 C 
BRANCH  21  23
ATOM     22  O   LIG    1       24.361 -29.111   7.316  0.00  0.00    -0.247 OA
ATOM     23  C   LIG    1       24.173 -28.779   6.155  0.00  0.00    +0.343 C 
BRANCH  23  24
ATOM     24  O   LIG    1       23.214 -29.347   5.385  0.00  0.00    -0.478 OA
ATOM     25  H   LIG    1       22.570 -28.689   5.055  0.00  0.00    +0.295 HD
ENDBRANCH  23  24
ENDBRANCH  21  23
ENDBRANCH  20  21
ENDBRANCH  18  20
ENDBRANCH  17  18
ENDBRANCH   1  17
TORSDOF 8
ENDMDL
MODEL 4
REMARK VINA RESULT:      -8.1      2.085      3.338
REMARK  Name = *****
REMARK                            x       y       z     vdW  Elec       q    Type
REMARK                         _______ _______ _______ _____ _____    ______ ____
ROOT
ATOM      1  C   LIG    1       25.121 -23.166   6.838  0.00  0.00    -0.016 A 
ATOM      2  C   LIG    1       25.819 -21.947   6.986  0.00  0.00    +0.035 A 
ATOM      3  C   LIG    1       25.082 -20.773   7.203  0.00  0.00    +0.023 A 
ATOM      4  C   LIG    1       23.709 -20.817   7.443  0.00  0.00    +0.002 A 
ATOM      5  C   LIG    1       23.036 -22.031   7.386  0.00  0.00    +0.000 A 
ATOM      6  C   LIG    1       23.730 -23.193   7.052  0.00  0.00    +0.006 A 
ENDROOT
BRANCH   2   7
ATOM      7  N   LIG    1       27.230 -21.917   6.918  0.00  0.00    -0.312 N 
ATOM      8  H   LIG    1       27.597 -22.756   6.469  0.00  0.00    +0.152 HD
BRANCH   7   9
ATOM      9  C   LIG    1       28.118 -20.813   6.745  0.00  0.00    +0.068 A 
ATOM     10  C   LIG    1       27.863 -19.895   5.695  0.00  0.00    +0.064 A 
ATOM     11 CL   LIG    1       26.476 -20.088   4.670  0.00  0.00    -0.082 Cl
ATOM     12  C   LIG    1       28.708 -18.808   5.432  0.00  0.00    +0.022 A 
ATOM     13  C   LIG    1       29.827 -18.589   6.225  0.00  0.00    +0.003 A 
ATOM     14  C   LIG    1       30.119 -19.482   7.250  0.00  0.00    +0.022 A 
ATOM     15  C   LIG    1       29.307 -20.604   7.481  0.00  0.00    +0.064 A 
ATOM     16 CL   LIG    1       29.957 -21.733   8.627  0.00  0.00    -0.082 Cl
ENDBRANCH   7   9
ENDBRANCH   2   7
BRANCH   1  17
ATOM     17  C   LIG    1       25.828 -24.465   6.526  0.00  0.00    +0.157 C 
BRANCH  17  18
ATOM     18  C   LIG    1       25.107 -25.296   5.497  0.00  0.00    +0.312 C 
ATOM     19  O   LIG    1       25.031 -25.020   4.303  0.00  0.00    -0.251 OA
BRANCH  18  20
ATOM     20  O   LIG    1       24.577 -26.414   6.063  0.00  0.00    -0.453 OA
BRANCH  20  21
ATOM     21  C   LIG    1       24.878 -27.667   5.425  0.00  0.00    +0.352 C 
BRANCH  21  23
ATOM     22  O   LIG    1       24.380 -29.087   7.325  0.00  0.00    -0.247 OA
ATOM     23  C   LIG    1       24.170 -28.793   6.157  0.00  0.00    +0.343 C 
BRANCH  23  24
ATOM     24  O   LIG    1       23.244 -29.434   5.403  0.00  0.00    -0.478 OA
ATOM     25  H   LIG    1       23.579 -30.285   5.056  0.00  0.00    +0.295 HD
ENDBRANCH  23  24
ENDBRANCH  21  23
ENDBRANCH  20  21
ENDBRANCH  18  20
ENDBRANCH  17  18
ENDBRANCH   1  17
TORSDOF 8
ENDMDL
MODEL 5
REMARK VINA RESULT:      -8.0      4.517      7.425
REMARK  Name = *****
REMARK                            x       y       z     vdW  Elec       q    Type
REMARK                         _______ _______ _______ _____ _____    ______ ____
ROOT
ATOM      1  C   LIG    1       29.229 -20.757   7.350  0.00  0.00    -0.016 A 
ATOM      2  C   LIG    1       27.942 -21.069   6.861  0.00  0.00    +0.035 A 
ATOM      3  C   LIG    1       27.378 -20.241   5.879  0.00  0.00    +0.023 A 
ATOM      4  C   LIG    1       28.126 -19.235   5.266  0.00  0.00    +0.002 A 
ATOM      5  C   LIG    1       29.426 -18.988   5.686  0.00  0.00    +0.000 A 
ATOM      6  C   LIG    1       29.963 -19.720   6.744  0.00  0.00    +0.006 A 
ENDROOT
BRANCH   2   7
ATOM      7  N   LIG    1       27.241 -22.193   7.353  0.00  0.00    -0.312 N 
ATOM      8  H   LIG    1       27.578 -22.464   8.277  0.00  0.00    +0.152 HD
BRANCH   7   9
ATOM      9  C   LIG    1       25.879 -22.579   7.170  0.00  0.00    +0.068 A 
ATOM     10  C   LIG    1       24.860 -21.728   7.669  0.00  0.00    +0.064 A 
ATOM     11 CL   LIG    1       25.262 -20.229   8.446  0.00  0.00    -0.082 Cl
ATOM     12  C   LIG    1       23.500 -22.053   7.567  0.00  0.00    +0.022 A 
ATOM     13  C   LIG    1       23.111 -23.231   6.943  0.00  0.00    +0.003 A 
ATOM     14  C   LIG    1       24.085 -24.099   6.461  0.00  0.00    +0.022 A 
ATOM     15  C   LIG    1       25.450 -23.805   6.613  0.00  0.00    +0.064 A 
ATOM     16 CL   LIG    1       26.514 -25.106   6.181  0.00  0.00    -0.082 Cl
ENDBRANCH   7   9
ENDBRANCH   2   7
BRANCH   1  17
ATOM     17  C   LIG    1       29.881 -21.549   8.461  0.00  0.00    +0.157 C 
BRANCH  17  18
ATOM     18  C   LIG    1       30.979 -20.790   9.159  0.00  0.00    +0.312 C 
ATOM     19  O   LIG    1       32.162 -21.121   9.167  0.00  0.00    -0.251 OA
BRANCH  18  20
ATOM     20  O   LIG    1       30.491 -19.667   9.752  0.00  0.00    -0.453 OA
BRANCH  20  21
ATOM     21  C   LIG    1       31.322 -18.495   9.704  0.00  0.00    +0.352 C 
BRANCH  21  23
ATOM     22  O   LIG    1       30.139 -16.564  10.566  0.00  0.00    -0.247 OA
ATOM     23  C   LIG    1       30.880 -17.514  10.774  0.00  0.00    +0.343 C 
BRANCH  23  24
ATOM     24  O   LIG    1       31.356 -17.805  12.009  0.00  0.00    -0.478 OA
ATOM     25  H   LIG    1       31.654 -17.003  12.486  0.00  0.00    +0.295 HD
ENDBRANCH  23  24
ENDBRANCH  21  23
ENDBRANCH  20  21
ENDBRANCH  18  20
ENDBRANCH  17  18
ENDBRANCH   1  17
TORSDOF 8
ENDMDL
MODEL 6
REMARK VINA RESULT:      -7.9      1.655      4.642
REMARK  Name = *****
REMARK                            x       y       z     vdW  Elec       q    Type
REMARK                         _______ _______ _______ _____ _____    ______ ____
ROOT
ATOM      1  C   LIG    1       26.633 -21.829   7.078  0.00  0.00    -0.016 A 
ATOM      2  C   LIG    1       26.593 -20.931   5.989  0.00  0.00    +0.035 A 
ATOM      3  C   LIG    1       27.570 -19.928   5.909  0.00  0.00    +0.023 A 
ATOM      4  C   LIG    1       28.661 -19.912   6.777  0.00  0.00    +0.002 A 
ATOM      5  C   LIG    1       28.748 -20.853   7.795  0.00  0.00    +0.000 A 
ATOM      6  C   LIG    1       27.724 -21.784   7.966  0.00  0.00    +0.006 A 
ENDROOT
BRANCH   2   7
ATOM      7  N   LIG    1       25.587 -21.045   5.003  0.00  0.00    -0.312 N 
ATOM      8  H   LIG    1       25.436 -22.020   4.740  0.00  0.00    +0.152 HD
BRANCH   7   9
ATOM      9  C   LIG    1       24.405 -20.271   4.802  0.00  0.00    +0.068 A 
ATOM     10  C   LIG    1       24.474 -19.134   3.958  0.00  0.00    +0.064 A 
ATOM     11 CL   LIG    1       25.955 -18.720   3.152  0.00  0.00    -0.082 Cl
ATOM     12  C   LIG    1       23.371 -18.297   3.739  0.00  0.00    +0.022 A 
ATOM     13  C   LIG    1       22.152 -18.582   4.342  0.00  0.00    +0.003 A 
ATOM     14  C   LIG    1       22.055 -19.677   5.194  0.00  0.00    +0.022 A 
ATOM     15  C   LIG    1       23.172 -20.484   5.461  0.00  0.00    +0.064 A 
ATOM     16 CL   LIG    1       22.931 -21.643   6.729  0.00  0.00    -0.082 Cl
ENDBRANCH   7   9
ENDBRANCH   2   7
BRANCH   1  17
ATOM     17  C   LIG    1       25.577 -22.891   7.285  0.00  0.00    +0.157 C 
BRANCH  17  18
ATOM     18  C   LIG    1       25.593 -23.953   6.218  0.00  0.00    +0.312 C 
ATOM     19  O   LIG    1       24.960 -23.897   5.166  0.00  0.00    -0.251 OA
BRANCH  18  20
ATOM     20  O   LIG    1       26.429 -24.970   6.559  0.00  0.00    -0.453 OA
BRANCH  20  21
ATOM     21  C   LIG    1       25.837 -26.272   6.710  0.00  0.00    +0.352 C 
BRANCH  21  23
ATOM     22  O   LIG    1       25.250 -27.685   4.831  0.00  0.00    -0.247 OA
ATOM     23  C   LIG    1       26.115 -27.104   5.471  0.00  0.00    +0.343 C 
BRANCH  23  24
ATOM     24  O   LIG    1       27.420 -27.119   5.107  0.00  0.00    -0.478 OA
ATOM     25  H   LIG    1       27.547 -26.814   4.186  0.00  0.00    +0.295 HD
ENDBRANCH  23  24
ENDBRANCH  21  23
ENDBRANCH  20  21
ENDBRANCH  18  20
ENDBRANCH  17  18
ENDBRANCH   1  17
TORSDOF 8
ENDMDL
MODEL 7
REMARK VINA RESULT:      -7.8      0.187      1.919
REMARK  Name = *****
REMARK                            x       y       z     vdW  Elec       q    Type
REMARK                         _______ _______ _______ _____ _____    ______ ____
ROOT
ATOM      1  C   LIG    1       24.054 -20.570   5.830  0.00  0.00    -0.016 A 
ATOM      2  C   LIG    1       25.039 -20.158   4.905  0.00  0.00    +0.035 A 
ATOM      3  C   LIG    1       24.666 -19.291   3.867  0.00  0.00    +0.023 A 
ATOM      4  C   LIG    1       23.401 -18.703   3.837  0.00  0.00    +0.002 A 
ATOM      5  C   LIG    1       22.460 -19.039   4.802  0.00  0.00    +0.000 A 
ATOM      6  C   LIG    1       22.771 -19.992   5.771  0.00  0.00    +0.006 A 
ENDROOT
BRANCH   2   7
ATOM      7  N   LIG    1       26.371 -20.613   5.028  0.00  0.00    -0.312 N 
ATOM      8  H   LIG    1       26.711 -21.006   4.149  0.00  0.00    +0.152 HD
BRANCH   7   9
ATOM      9  C   LIG    1       27.449 -20.100   5.811  0.00  0.00    +0.068 A 
ATOM     10  C   LIG    1       28.106 -18.923   5.372  0.00  0.00    +0.064 A 
ATOM     11 CL   LIG    1       27.581 -18.100   3.937  0.00  0.00    -0.082 Cl
ATOM     12  C   LIG    1       29.198 -18.376   6.061  0.00  0.00    +0.022 A 
ATOM     13  C   LIG    1       29.657 -18.978   7.225  0.00  0.00    +0.003 A 
ATOM     14  C   LIG    1       29.050 -20.146   7.672  0.00  0.00    +0.022 A 
ATOM     15  C   LIG    1       27.993 -20.729   6.954  0.00  0.00    +0.064 A 
ATOM     16 CL   LIG    1       27.528 -22.303   7.517  0.00  0.00    -0.082 Cl
ENDBRANCH   7   9
ENDBRANCH   2   7
BRANCH   1  17
ATOM     17  C   LIG    1       24.349 -21.561   6.932  0.00  0.00    +0.157 C 
BRANCH  17  18
ATOM     18  C   LIG    1       24.007 -22.978   6.556  0.00  0.00    +0.312 C 
ATOM     19  O   LIG    1       22.995 -23.573   6.917  0.00  0.00    -0.251 OA
BRANCH  18  20
ATOM     20  O   LIG    1       24.955 -23.503   5.733  0.00  0.00    -0.453 OA
BRANCH  20  21
ATOM     21  C   LIG    1       25.529 -24.762   6.126  0.00  0.00    +0.352 C 
BRANCH  21  23
ATOM     22  O   LIG    1       25.798 -26.467   4.425  0.00  0.00    -0.247 OA
ATOM     23  C   LIG    1       25.058 -25.852   5.180  0.00  0.00    +0.343 C 
BRANCH  23  24
ATOM     24  O   LIG    1       23.733 -26.116   5.271  0.00  0.00    -0.478 OA
ATOM     25  H   LIG    1       23.504 -26.567   6.109  0.00  0.00    +0.295 HD
ENDBRANCH  23  24
ENDBRANCH  21  23
ENDBRANCH  20  21
ENDBRANCH  18  20
ENDBRANCH  17  18
ENDBRANCH   1  17
TORSDOF 8
ENDMDL
MODEL 8
REMARK VINA RESULT:      -7.8      1.772      4.370
REMARK  Name = *****
REMARK                            x       y       z     vdW  Elec       q    Type
REMARK                         _______ _______ _______ _____ _____    ______ ____
ROOT
ATOM      1  C   LIG    1       26.546 -21.963   7.038  0.00  0.00    -0.016 A 
ATOM      2  C   LIG    1       26.408 -21.022   5.993  0.00  0.00    +0.035 A 
ATOM      3  C   LIG    1       27.349 -19.986   5.894  0.00  0.00    +0.023 A 
ATOM      4  C   LIG    1       28.494 -19.972   6.690  0.00  0.00    +0.002 A 
ATOM      5  C   LIG    1       28.674 -20.951   7.658  0.00  0.00    +0.000 A 
ATOM      6  C   LIG    1       27.692 -21.920   7.855  0.00  0.00    +0.006 A 
ENDROOT
BRANCH   2   7
ATOM      7  N   LIG    1       25.343 -21.128   5.070  0.00  0.00    -0.312 N 
ATOM      8  H   LIG    1       25.038 -22.096   4.966  0.00  0.00    +0.152 HD
BRANCH   7   9
ATOM      9  C   LIG    1       24.277 -20.221   4.790  0.00  0.00    +0.068 A 
ATOM     10  C   LIG    1       22.969 -20.556   5.225  0.00  0.00    +0.064 A 
ATOM     11 CL   LIG    1       22.682 -22.017   6.117  0.00  0.00    -0.082 Cl
ATOM     12  C   LIG    1       21.861 -19.741   4.955  0.00  0.00    +0.022 A 
ATOM     13  C   LIG    1       22.026 -18.551   4.259  0.00  0.00    +0.003 A 
ATOM     14  C   LIG    1       23.291 -18.202   3.799  0.00  0.00    +0.022 A 
ATOM     15  C   LIG    1       24.395 -19.044   4.016  0.00  0.00    +0.064 A 
ATOM     16 CL   LIG    1       25.830 -18.575   3.163  0.00  0.00    -0.082 Cl
ENDBRANCH   7   9
ENDBRANCH   2   7
BRANCH   1  17
ATOM     17  C   LIG    1       25.537 -23.065   7.266  0.00  0.00    +0.157 C 
BRANCH  17  18
ATOM     18  C   LIG    1       25.586 -24.137   6.209  0.00  0.00    +0.312 C 
ATOM     19  O   LIG    1       25.046 -24.059   5.109  0.00  0.00    -0.251 OA
BRANCH  18  20
ATOM     20  O   LIG    1       26.339 -25.191   6.624  0.00  0.00    -0.453 OA
BRANCH  20  21
ATOM     21  C   LIG    1       25.680 -26.467   6.704  0.00  0.00    +0.352 C 
BRANCH  21  23
ATOM     22  O   LIG    1       25.191 -28.001   4.892  0.00  0.00    -0.247 OA
ATOM     23  C   LIG    1       25.999 -27.284   5.465  0.00  0.00    +0.343 C 
BRANCH  23  24
ATOM     24  O   LIG    1       27.268 -27.121   5.019  0.00  0.00    -0.478 OA
ATOM     25  H   LIG    1       27.580 -26.200   5.126  0.00  0.00    +0.295 HD
ENDBRANCH  23  24
ENDBRANCH  21  23
ENDBRANCH  20  21
ENDBRANCH  18  20
ENDBRANCH  17  18
ENDBRANCH   1  17
TORSDOF 8
ENDMDL
MODEL 9
REMARK VINA RESULT:      -7.4      3.307      5.888
REMARK  Name = *****
REMARK                            x       y       z     vdW  Elec       q    Type
REMARK                         _______ _______ _______ _____ _____    ______ ____
ROOT
ATOM      1  C   LIG    1       25.934 -21.779   6.571  0.00  0.00    -0.016 A 
ATOM      2  C   LIG    1       25.266 -22.210   5.404  0.00  0.00    +0.035 A 
ATOM      3  C   LIG    1       24.927 -23.566   5.286  0.00  0.00    +0.023 A 
ATOM      4  C   LIG    1       25.083 -24.446   6.357  0.00  0.00    +0.002 A 
ATOM      5  C   LIG    1       25.659 -23.999   7.540  0.00  0.00    +0.000 A 
ATOM      6  C   LIG    1       26.113 -22.684   7.635  0.00  0.00    +0.006 A 
ENDROOT
BRANCH   2   7
ATOM      7  N   LIG    1       24.947 -21.290   4.381  0.00  0.00    -0.312 N 
ATOM      8  H   LIG    1       24.921 -21.745   3.468  0.00  0.00    +0.152 HD
BRANCH   7   9
ATOM      9  C   LIG    1       24.094 -20.145   4.408  0.00  0.00    +0.068 A 
ATOM     10  C   LIG    1       22.751 -20.309   4.833  0.00  0.00    +0.064 A 
ATOM     11 CL   LIG    1       22.171 -21.861   5.351  0.00  0.00    -0.082 Cl
ATOM     12  C   LIG    1       21.839 -19.245   4.850  0.00  0.00    +0.022 A 
ATOM     13  C   LIG    1       22.244 -17.975   4.462  0.00  0.00    +0.003 A 
ATOM     14  C   LIG    1       23.548 -17.783   4.019  0.00  0.00    +0.022 A 
ATOM     15  C   LIG    1       24.449 -18.857   3.945  0.00  0.00    +0.064 A 
ATOM     16 CL   LIG    1       25.940 -18.486   3.140  0.00  0.00    -0.082 Cl
ENDBRANCH   7   9
ENDBRANCH   2   7
BRANCH   1  17
ATOM     17  C   LIG    1       26.404 -20.354   6.750  0.00  0.00    +0.157 C 
BRANCH  17  18
ATOM     18  C   LIG    1       27.904 -20.222   6.736  0.00  0.00    +0.312 C 
ATOM     19  O   LIG    1       28.577 -19.994   5.735  0.00  0.00    -0.251 OA
BRANCH  18  20
ATOM     20  O   LIG    1       28.413 -20.355   7.991  0.00  0.00    -0.453 OA
BRANCH  20  21
ATOM     21  C   LIG    1       29.554 -21.218   8.139  0.00  0.00    +0.352 C 
BRANCH  21  23
ATOM     22  O   LIG    1       31.209 -20.080   9.494  0.00  0.00    -0.247 OA
ATOM     23  C   LIG    1       30.796 -20.382   8.384  0.00  0.00    +0.343 C 
BRANCH  23  24
ATOM     24  O   LIG    1       31.442 -20.021   7.248  0.00  0.00    -0.478 OA
ATOM     25  H   LIG    1       32.131 -19.347   7.416  0.00  0.00    +0.295 HD
ENDBRANCH  23  24
ENDBRANCH  21  23
ENDBRANCH  20  21
ENDBRANCH  18  20
ENDBRANCH  17  18
ENDBRANCH   1  17
TORSDOF 8
ENDMDL
