MODEL 1
REMARK VINA RESULT:      -5.5      0.000      0.000
REMARK  Name = *****
REMARK                            x       y       z     vdW  Elec       q    Type
REMARK                         _______ _______ _______ _____ _____    ______ ____
ROOT
ATOM      1  C   LIG    1       25.349 -31.019   9.768  0.00  0.00    +0.145 C 
ATOM      2  C   LIG    1       25.989 -30.096  10.537  0.00  0.00    +0.076 C 
ATOM      3  S   LIG    1       26.117 -30.264  12.290  0.00  0.00    -0.107 S 
ATOM      4  C   LIG    1       25.994 -28.477  12.667  0.00  0.00    +0.093 C 
ATOM      5  C   LIG    1       26.847 -27.782  11.601  0.00  0.00    +0.094 C 
ATOM      6  S   LIG    1       26.611 -28.561   9.969  0.00  0.00    -0.114 S 
ENDROOT
BRANCH   4   7
ATOM      7  C   LIG    1       24.540 -28.029  12.819  0.00  0.00    -0.015 A 
ATOM      8  C   LIG    1       24.218 -26.757  13.344  0.00  0.00    +0.047 A 
ATOM      9 CL   LIG    1       25.434 -25.626  13.832  0.00  0.00    -0.083 Cl
ATOM     10  C   LIG    1       22.887 -26.342  13.489  0.00  0.00    +0.040 A 
ATOM     11  C   LIG    1       21.853 -27.194  13.125  0.00  0.00    +0.042 A 
ATOM     12 CL   LIG    1       20.219 -26.687  13.298  0.00  0.00    -0.084 Cl
ATOM     13  C   LIG    1       22.134 -28.454  12.618  0.00  0.00    +0.020 A 
ATOM     14  C   LIG    1       23.462 -28.865  12.464  0.00  0.00    +0.007 A 
ENDBRANCH   4   7
BRANCH   1  15
ATOM     15  N   LIG    1       25.086 -30.922   8.379  0.00  0.00    -0.296 N 
ATOM     16  C   LIG    1       24.058 -30.284   7.705  0.00  0.00    +0.204 A 
ATOM     17  N   LIG    1       24.086 -30.471   6.406  0.00  0.00    -0.244 NA
ATOM     18  C   LIG    1       25.200 -31.218   6.180  0.00  0.00    +0.130 A 
ATOM     19  C   LIG    1       25.855 -31.471   7.359  0.00  0.00    +0.113 A 
ENDBRANCH   1  15
BRANCH   1  21
ATOM     20  N   LIG    1       24.503 -33.154  10.892  0.00  0.00    -0.189 NA
ATOM     21  C   LIG    1       24.884 -32.193  10.386  0.00  0.00    +0.119 C 
ENDBRANCH   1  21
TORSDOF 3
ENDMDL
MODEL 2
REMARK VINA RESULT:      -5.4      8.626     10.280
REMARK  Name = *****
REMARK                            x       y       z     vdW  Elec       q    Type
REMARK                         _______ _______ _______ _____ _____    ______ ____
ROOT
ATOM      1  C   LIG    1       26.724 -20.390   7.372  0.00  0.00    +0.145 C 
ATOM      2  C   LIG    1       25.800 -20.422   6.373  0.00  0.00    +0.076 C 
ATOM      3  S   LIG    1       24.085 -20.694   6.691  0.00  0.00    -0.107 S 
ATOM      4  C   LIG    1       23.753 -21.651   5.166  0.00  0.00    +0.093 C 
ATOM      5  C   LIG    1       24.527 -20.928   4.060  0.00  0.00    +0.094 C 
ATOM      6  S   LIG    1       26.161 -20.382   4.660  0.00  0.00    -0.114 S 
ENDROOT
BRANCH   4   7
ATOM      7  C   LIG    1       24.023 -23.143   5.365  0.00  0.00    -0.015 A 
ATOM      8  C   LIG    1       23.336 -23.886   6.351  0.00  0.00    +0.047 A 
ATOM      9 CL   LIG    1       22.142 -23.170   7.380  0.00  0.00    -0.083 Cl
ATOM     10  C   LIG    1       23.583 -25.252   6.541  0.00  0.00    +0.040 A 
ATOM     11  C   LIG    1       24.530 -25.900   5.759  0.00  0.00    +0.042 A 
ATOM     12 CL   LIG    1       24.832 -27.577   5.986  0.00  0.00    -0.084 Cl
ATOM     13  C   LIG    1       25.232 -25.197   4.790  0.00  0.00    +0.020 A 
ATOM     14  C   LIG    1       24.978 -23.836   4.594  0.00  0.00    +0.007 A 
ENDBRANCH   4   7
BRANCH   1  15
ATOM     15  N   LIG    1       28.129 -20.300   7.219  0.00  0.00    -0.296 N 
ATOM     16  C   LIG    1       29.139 -21.091   7.741  0.00  0.00    +0.204 A 
ATOM     17  N   LIG    1       30.345 -20.662   7.451  0.00  0.00    -0.244 NA
ATOM     18  C   LIG    1       30.153 -19.572   6.660  0.00  0.00    +0.130 A 
ATOM     19  C   LIG    1       28.812 -19.353   6.464  0.00  0.00    +0.113 A 
ENDBRANCH   1  15
BRANCH   1  21
ATOM     20  N   LIG    1       25.897 -20.515   9.789  0.00  0.00    -0.189 NA
ATOM     21  C   LIG    1       26.269 -20.459   8.701  0.00  0.00    +0.119 C 
ENDBRANCH   1  21
TORSDOF 3
ENDMDL
MODEL 3
REMARK VINA RESULT:      -5.3      1.503      1.795
REMARK  Name = *****
REMARK                            x       y       z     vdW  Elec       q    Type
REMARK                         _______ _______ _______ _____ _____    ______ ____
ROOT
ATOM      1  C   LIG    1       24.795 -30.122   8.235  0.00  0.00    +0.145 C 
ATOM      2  C   LIG    1       25.516 -29.915   9.370  0.00  0.00    +0.076 C 
ATOM      3  S   LIG    1       25.314 -30.924  10.805  0.00  0.00    -0.107 S 
ATOM      4  C   LIG    1       25.588 -29.587  12.025  0.00  0.00    +0.093 C 
ATOM      5  C   LIG    1       26.749 -28.761  11.462  0.00  0.00    +0.094 C 
ATOM      6  S   LIG    1       26.589 -28.560   9.656  0.00  0.00    -0.114 S 
ENDROOT
BRANCH   4   7
ATOM      7  C   LIG    1       24.290 -28.852  12.362  0.00  0.00    -0.015 A 
ATOM      8  C   LIG    1       24.305 -27.624  13.060  0.00  0.00    +0.047 A 
ATOM      9 CL   LIG    1       25.778 -26.867  13.563  0.00  0.00    -0.083 Cl
ATOM     10  C   LIG    1       23.119 -26.948  13.376  0.00  0.00    +0.040 A 
ATOM     11  C   LIG    1       21.894 -27.493  13.012  0.00  0.00    +0.042 A 
ATOM     12 CL   LIG    1       20.437 -26.664  13.393  0.00  0.00    -0.084 Cl
ATOM     13  C   LIG    1       21.843 -28.703  12.337  0.00  0.00    +0.020 A 
ATOM     14  C   LIG    1       23.028 -29.373  12.013  0.00  0.00    +0.007 A 
ENDBRANCH   4   7
BRANCH   1  15
ATOM     15  N   LIG    1       24.792 -29.304   7.078  0.00  0.00    -0.296 N 
ATOM     16  C   LIG    1       24.579 -27.942   6.945  0.00  0.00    +0.204 A 
ATOM     17  N   LIG    1       24.570 -27.531   5.698  0.00  0.00    -0.244 NA
ATOM     18  C   LIG    1       24.840 -28.640   4.958  0.00  0.00    +0.130 A 
ATOM     19  C   LIG    1       25.024 -29.727   5.774  0.00  0.00    +0.113 A 
ENDBRANCH   1  15
BRANCH   1  21
ATOM     20  N   LIG    1       23.268 -32.169   8.127  0.00  0.00    -0.189 NA
ATOM     21  C   LIG    1       23.955 -31.248   8.175  0.00  0.00    +0.119 C 
ENDBRANCH   1  21
TORSDOF 3
ENDMDL
MODEL 4
REMARK VINA RESULT:      -5.2      4.115      6.549
REMARK  Name = *****
REMARK                            x       y       z     vdW  Elec       q    Type
REMARK                         _______ _______ _______ _____ _____    ______ ____
ROOT
ATOM      1  C   LIG    1       26.426 -29.149  11.772  0.00  0.00    +0.145 C 
ATOM      2  C   LIG    1       25.532 -29.932  11.109  0.00  0.00    +0.076 C 
ATOM      3  S   LIG    1       26.043 -31.148   9.935  0.00  0.00    -0.107 S 
ATOM      4  C   LIG    1       24.619 -30.940   8.804  0.00  0.00    +0.093 C 
ATOM      5  C   LIG    1       23.398 -30.792   9.718  0.00  0.00    +0.094 C 
ATOM      6  S   LIG    1       23.791 -29.753  11.165  0.00  0.00    -0.114 S 
ENDROOT
BRANCH   4   7
ATOM      7  C   LIG    1       24.871 -29.841   7.771  0.00  0.00    -0.015 A 
ATOM      8  C   LIG    1       24.508 -30.012   6.417  0.00  0.00    +0.047 A 
ATOM      9 CL   LIG    1       23.746 -31.456   5.843  0.00  0.00    -0.083 Cl
ATOM     10  C   LIG    1       24.741 -29.010   5.465  0.00  0.00    +0.040 A 
ATOM     11  C   LIG    1       25.353 -27.823   5.845  0.00  0.00    +0.042 A 
ATOM     12 CL   LIG    1       25.636 -26.590   4.681  0.00  0.00    -0.084 Cl
ATOM     13  C   LIG    1       25.734 -27.628   7.164  0.00  0.00    +0.020 A 
ATOM     14  C   LIG    1       25.493 -28.623   8.116  0.00  0.00    +0.007 A 
ENDBRANCH   4   7
BRANCH   1  15
ATOM     15  N   LIG    1       26.120 -28.070  12.638  0.00  0.00    -0.296 N 
ATOM     16  C   LIG    1       25.334 -28.031  13.778  0.00  0.00    +0.204 A 
ATOM     17  N   LIG    1       25.209 -26.828  14.288  0.00  0.00    -0.244 NA
ATOM     18  C   LIG    1       25.978 -26.028  13.502  0.00  0.00    +0.130 A 
ATOM     19  C   LIG    1       26.582 -26.764  12.514  0.00  0.00    +0.113 A 
ENDBRANCH   1  15
BRANCH   1  21
ATOM     20  N   LIG    1       28.919 -29.619  11.453  0.00  0.00    -0.189 NA
ATOM     21  C   LIG    1       27.796 -29.407  11.597  0.00  0.00    +0.119 C 
ENDBRANCH   1  21
TORSDOF 3
ENDMDL
MODEL 5
REMARK VINA RESULT:      -4.9      2.926      3.984
REMARK  Name = *****
REMARK                            x       y       z     vdW  Elec       q    Type
REMARK                         _______ _______ _______ _____ _____    ______ ____
ROOT
ATOM      1  C   LIG    1       25.078 -28.754   7.255  0.00  0.00    +0.145 C 
ATOM      2  C   LIG    1       25.661 -29.289   8.362  0.00  0.00    +0.076 C 
ATOM      3  S   LIG    1       25.204 -30.875   8.989  0.00  0.00    -0.107 S 
ATOM      4  C   LIG    1       25.418 -30.456  10.758  0.00  0.00    +0.093 C 
ATOM      5  C   LIG    1       26.698 -29.617  10.820  0.00  0.00    +0.094 C 
ATOM      6  S   LIG    1       26.785 -28.456   9.416  0.00  0.00    -0.114 S 
ENDROOT
BRANCH   4   7
ATOM      7  C   LIG    1       24.144 -29.855  11.356  0.00  0.00    -0.015 A 
ATOM      8  C   LIG    1       22.877 -30.424  11.096  0.00  0.00    +0.047 A 
ATOM      9 CL   LIG    1       22.682 -31.831  10.108  0.00  0.00    -0.083 Cl
ATOM     10  C   LIG    1       21.706 -29.875  11.637  0.00  0.00    +0.040 A 
ATOM     11  C   LIG    1       21.777 -28.742  12.437  0.00  0.00    +0.042 A 
ATOM     12 CL   LIG    1       20.344 -28.069  13.105  0.00  0.00    -0.084 Cl
ATOM     13  C   LIG    1       23.005 -28.152  12.700  0.00  0.00    +0.020 A 
ATOM     14  C   LIG    1       24.174 -28.705  12.169  0.00  0.00    +0.007 A 
ENDBRANCH   4   7
BRANCH   1  15
ATOM     15  N   LIG    1       25.282 -27.450   6.741  0.00  0.00    -0.296 N 
ATOM     16  C   LIG    1       26.455 -26.791   6.412  0.00  0.00    +0.204 A 
ATOM     17  N   LIG    1       26.271 -25.548   6.034  0.00  0.00    -0.244 NA
ATOM     18  C   LIG    1       24.923 -25.368   6.054  0.00  0.00    +0.130 A 
ATOM     19  C   LIG    1       24.291 -26.524   6.438  0.00  0.00    +0.113 A 
ENDBRANCH   1  15
BRANCH   1  21
ATOM     20  N   LIG    1       23.431 -30.200   5.937  0.00  0.00    -0.189 NA
ATOM     21  C   LIG    1       24.172 -29.549   6.530  0.00  0.00    +0.119 C 
ENDBRANCH   1  21
TORSDOF 3
ENDMDL
MODEL 6
REMARK VINA RESULT:      -4.7      4.020      6.488
REMARK  Name = *****
REMARK                            x       y       z     vdW  Elec       q    Type
REMARK                         _______ _______ _______ _____ _____    ______ ____
ROOT
ATOM      1  C   LIG    1       24.338 -28.902  12.128  0.00  0.00    +0.145 C 
ATOM      2  C   LIG    1       24.263 -29.925  11.234  0.00  0.00    +0.076 C 
ATOM      3  S   LIG    1       25.705 -30.667  10.536  0.00  0.00    -0.107 S 
ATOM      4  C   LIG    1       24.981 -30.990   8.886  0.00  0.00    +0.093 C 
ATOM      5  C   LIG    1       23.558 -31.486   9.162  0.00  0.00    +0.094 C 
ATOM      6  S   LIG    1       22.787 -30.534  10.514  0.00  0.00    -0.114 S 
ENDROOT
BRANCH   4   7
ATOM      7  C   LIG    1       25.148 -29.792   7.950  0.00  0.00    -0.015 A 
ATOM      8  C   LIG    1       24.685 -29.836   6.616  0.00  0.00    +0.047 A 
ATOM      9 CL   LIG    1       23.893 -31.229   5.961  0.00  0.00    -0.083 Cl
ATOM     10  C   LIG    1       24.839 -28.743   5.753  0.00  0.00    +0.040 A 
ATOM     11  C   LIG    1       25.469 -27.590   6.201  0.00  0.00    +0.042 A 
ATOM     12 CL   LIG    1       25.656 -26.246   5.146  0.00  0.00    -0.084 Cl
ATOM     13  C   LIG    1       25.947 -27.518   7.501  0.00  0.00    +0.020 A 
ATOM     14  C   LIG    1       25.784 -28.605   8.366  0.00  0.00    +0.007 A 
ENDBRANCH   4   7
BRANCH   1  15
ATOM     15  N   LIG    1       23.251 -28.161  12.653  0.00  0.00    -0.296 N 
ATOM     16  C   LIG    1       21.895 -28.442  12.660  0.00  0.00    +0.204 A 
ATOM     17  N   LIG    1       21.162 -27.480  13.170  0.00  0.00    -0.244 NA
ATOM     18  C   LIG    1       22.050 -26.533  13.573  0.00  0.00    +0.130 A 
ATOM     19  C   LIG    1       23.335 -26.939  13.312  0.00  0.00    +0.113 A 
ENDBRANCH   1  15
BRANCH   1  21
ATOM     20  N   LIG    1       26.647 -28.197  12.970  0.00  0.00    -0.189 NA
ATOM     21  C   LIG    1       25.608 -28.514  12.591  0.00  0.00    +0.119 C 
ENDBRANCH   1  21
TORSDOF 3
ENDMDL
MODEL 7
REMARK VINA RESULT:      -4.7      4.815      5.995
REMARK  Name = *****
REMARK                            x       y       z     vdW  Elec       q    Type
REMARK                         _______ _______ _______ _____ _____    ______ ____
ROOT
ATOM      1  C   LIG    1       25.331 -33.166   5.040  0.00  0.00    +0.145 C 
ATOM      2  C   LIG    1       25.627 -32.752   6.303  0.00  0.00    +0.076 C 
ATOM      3  S   LIG    1       24.372 -32.326   7.468  0.00  0.00    -0.107 S 
ATOM      4  C   LIG    1       25.307 -30.979   8.281  0.00  0.00    +0.093 C 
ATOM      5  C   LIG    1       26.740 -31.504   8.408  0.00  0.00    +0.094 C 
ATOM      6  S   LIG    1       27.237 -32.411   6.905  0.00  0.00    -0.114 S 
ENDROOT
BRANCH   4   7
ATOM      7  C   LIG    1       25.100 -29.639   7.572  0.00  0.00    -0.015 A 
ATOM      8  C   LIG    1       25.714 -28.458   8.048  0.00  0.00    +0.047 A 
ATOM      9 CL   LIG    1       26.741 -28.450   9.441  0.00  0.00    -0.083 Cl
ATOM     10  C   LIG    1       25.525 -27.227   7.406  0.00  0.00    +0.040 A 
ATOM     11  C   LIG    1       24.710 -27.149   6.285  0.00  0.00    +0.042 A 
ATOM     12 CL   LIG    1       24.479 -25.641   5.492  0.00  0.00    -0.084 Cl
ATOM     13  C   LIG    1       24.082 -28.287   5.799  0.00  0.00    +0.020 A 
ATOM     14  C   LIG    1       24.279 -29.518   6.433  0.00  0.00    +0.007 A 
ENDBRANCH   4   7
BRANCH   1  15
ATOM     15  N   LIG    1       26.256 -33.415   3.996  0.00  0.00    -0.296 N 
ATOM     16  C   LIG    1       27.600 -33.746   4.050  0.00  0.00    +0.204 A 
ATOM     17  N   LIG    1       28.168 -33.825   2.870  0.00  0.00    -0.244 NA
ATOM     18  C   LIG    1       27.168 -33.593   1.978  0.00  0.00    +0.130 A 
ATOM     19  C   LIG    1       25.981 -33.384   2.633  0.00  0.00    +0.113 A 
ENDBRANCH   1  15
BRANCH   1  21
ATOM     20  N   LIG    1       22.875 -33.535   4.433  0.00  0.00    -0.189 NA
ATOM     21  C   LIG    1       23.981 -33.369   4.706  0.00  0.00    +0.119 C 
ENDBRANCH   1  21
TORSDOF 3
ENDMDL
MODEL 8
REMARK VINA RESULT:      -4.6      3.821      5.812
REMARK  Name = *****
REMARK                            x       y       z     vdW  Elec       q    Type
REMARK                         _______ _______ _______ _____ _____    ______ ____
ROOT
ATOM      1  C   LIG    1       22.544 -31.366  10.563  0.00  0.00    +0.145 C 
ATOM      2  C   LIG    1       23.542 -31.821   9.758  0.00  0.00    +0.076 C 
ATOM      3  S   LIG    1       25.211 -31.274   9.934  0.00  0.00    -0.107 S 
ATOM      4  C   LIG    1       25.619 -31.309   8.150  0.00  0.00    +0.093 C 
ATOM      5  C   LIG    1       24.971 -32.590   7.615  0.00  0.00    +0.094 C 
ATOM      6  S   LIG    1       23.322 -32.843   8.352  0.00  0.00    -0.114 S 
ENDROOT
BRANCH   4   7
ATOM      7  C   LIG    1       25.263 -29.990   7.462  0.00  0.00    -0.015 A 
ATOM      8  C   LIG    1       25.768 -28.759   7.935  0.00  0.00    +0.047 A 
ATOM      9 CL   LIG    1       26.827 -28.660   9.301  0.00  0.00    -0.083 Cl
ATOM     10  C   LIG    1       25.442 -27.547   7.311  0.00  0.00    +0.040 A 
ATOM     11  C   LIG    1       24.593 -27.541   6.212  0.00  0.00    +0.042 A 
ATOM     12 CL   LIG    1       24.194 -26.057   5.442  0.00  0.00    -0.084 Cl
ATOM     13  C   LIG    1       24.069 -28.731   5.730  0.00  0.00    +0.020 A 
ATOM     14  C   LIG    1       24.403 -29.941   6.345  0.00  0.00    +0.007 A 
ENDBRANCH   4   7
BRANCH   1  15
ATOM     15  N   LIG    1       21.162 -31.645  10.432  0.00  0.00    -0.296 N 
ATOM     16  C   LIG    1       20.507 -32.846  10.212  0.00  0.00    +0.204 A 
ATOM     17  N   LIG    1       19.210 -32.717  10.063  0.00  0.00    -0.244 NA
ATOM     18  C   LIG    1       18.962 -31.391  10.241  0.00  0.00    +0.130 A 
ATOM     19  C   LIG    1       20.127 -30.719  10.512  0.00  0.00    +0.113 A 
ENDBRANCH   1  15
BRANCH   1  21
ATOM     20  N   LIG    1       23.168 -29.841  12.519  0.00  0.00    -0.189 NA
ATOM     21  C   LIG    1       22.887 -30.527  11.639  0.00  0.00    +0.119 C 
ENDBRANCH   1  21
TORSDOF 3
ENDMDL
MODEL 9
REMARK VINA RESULT:      -4.5      3.796      5.800
REMARK  Name = *****
REMARK                            x       y       z     vdW  Elec       q    Type
REMARK                         _______ _______ _______ _____ _____    ______ ____
ROOT
ATOM      1  C   LIG    1       21.511 -30.180  12.028  0.00  0.00    +0.145 C 
ATOM      2  C   LIG    1       22.728 -30.787  11.964  0.00  0.00    +0.076 C 
ATOM      3  S   LIG    1       24.224 -29.929  12.339  0.00  0.00    -0.107 S 
ATOM      4  C   LIG    1       25.260 -30.788  11.098  0.00  0.00    +0.093 C 
ATOM      5  C   LIG    1       24.831 -32.257  11.165  0.00  0.00    +0.094 C 
ATOM      6  S   LIG    1       23.022 -32.401  11.349  0.00  0.00    -0.114 S 
ENDROOT
BRANCH   4   7
ATOM      7  C   LIG    1       25.206 -30.093   9.737  0.00  0.00    -0.015 A 
ATOM      8  C   LIG    1       26.016 -28.970   9.457  0.00  0.00    +0.047 A 
ATOM      9 CL   LIG    1       27.125 -28.321  10.617  0.00  0.00    -0.083 Cl
ATOM     10  C   LIG    1       25.968 -28.325   8.214  0.00  0.00    +0.040 A 
ATOM     11  C   LIG    1       25.100 -28.782   7.231  0.00  0.00    +0.042 A 
ATOM     12 CL   LIG    1       25.041 -27.997   5.702  0.00  0.00    -0.084 Cl
ATOM     13  C   LIG    1       24.281 -29.874   7.477  0.00  0.00    +0.020 A 
ATOM     14  C   LIG    1       24.336 -30.524   8.714  0.00  0.00    +0.007 A 
ENDBRANCH   4   7
BRANCH   1  15
ATOM     15  N   LIG    1       20.270 -30.736  11.635  0.00  0.00    -0.296 N 
ATOM     16  C   LIG    1       19.743 -30.947  10.371  0.00  0.00    +0.204 A 
ATOM     17  N   LIG    1       18.517 -31.415  10.385  0.00  0.00    -0.244 NA
ATOM     18  C   LIG    1       18.215 -31.581  11.700  0.00  0.00    +0.130 A 
ATOM     19  C   LIG    1       19.281 -31.218  12.485  0.00  0.00    +0.113 A 
ENDBRANCH   1  15
BRANCH   1  21
ATOM     20  N   LIG    1       21.399 -27.789  12.929  0.00  0.00    -0.189 NA
ATOM     21  C   LIG    1       21.449 -28.865  12.523  0.00  0.00    +0.119 C 
ENDBRANCH   1  21
TORSDOF 3
ENDMDL
