MODEL 1
REMARK VINA RESULT:      -7.5      0.000      0.000
REMARK  Name = *****
REMARK                            x       y       z     vdW  Elec       q    Type
REMARK                         _______ _______ _______ _____ _____    ______ ____
ROOT
ATOM      1  C   LIG    1       25.702 -24.096   7.196  0.00  0.00    +0.027 C 
ATOM      2  C   LIG    1       25.743 -22.771   6.419  0.00  0.00    +0.084 C 
ATOM      3  C   LIG    1       24.438 -21.942   6.670  0.00  0.00    +0.165 C 
ATOM      4  O   LIG    1       24.432 -21.427   8.022  0.00  0.00    -0.369 OA
ATOM      5  C   LIG    1       25.600 -20.648   8.308  0.00  0.00    +0.176 C 
ATOM      6  C   LIG    1       26.889 -21.452   8.099  0.00  0.00    +0.109 C 
ATOM      7  N   LIG    1       26.987 -22.028   6.745  0.00  0.00    -0.309 NA
ATOM      8  H   LIG    1       27.064 -21.247   6.090  0.00  0.00    +0.122 HD
ENDROOT
BRANCH   3   9
ATOM      9  C   LIG    1       24.086 -20.831   5.682  0.00  0.00    -0.017 A 
ATOM     10  C   LIG    1       22.841 -20.186   5.817  0.00  0.00    +0.006 A 
ATOM     11  C   LIG    1       22.449 -19.176   4.937  0.00  0.00    +0.000 A 
ATOM     12  C   LIG    1       23.289 -18.799   3.896  0.00  0.00    +0.000 A 
ATOM     13  C   LIG    1       24.519 -19.432   3.735  0.00  0.00    +0.000 A 
ATOM     14  C   LIG    1       24.912 -20.444   4.618  0.00  0.00    +0.006 A 
ENDBRANCH   3   9
TORSDOF 1
ENDMDL
MODEL 2
REMARK VINA RESULT:      -6.9      2.052      3.982
REMARK  Name = *****
REMARK                            x       y       z     vdW  Elec       q    Type
REMARK                         _______ _______ _______ _____ _____    ______ ____
ROOT
ATOM      1  C   LIG    1       22.809 -21.371   5.917  0.00  0.00    +0.027 C 
ATOM      2  C   LIG    1       24.311 -21.267   5.608  0.00  0.00    +0.084 C 
ATOM      3  C   LIG    1       25.133 -21.064   6.924  0.00  0.00    +0.165 C 
ATOM      4  O   LIG    1       25.132 -22.284   7.701  0.00  0.00    -0.369 OA
ATOM      5  C   LIG    1       25.627 -23.401   6.953  0.00  0.00    +0.176 C 
ATOM      6  C   LIG    1       24.814 -23.637   5.674  0.00  0.00    +0.109 C 
ATOM      7  N   LIG    1       24.749 -22.442   4.812  0.00  0.00    -0.309 NA
ATOM      8  H   LIG    1       25.697 -22.257   4.481  0.00  0.00    +0.122 HD
ENDROOT
BRANCH   3   9
ATOM      9  C   LIG    1       26.554 -20.512   6.812  0.00  0.00    -0.017 A 
ATOM     10  C   LIG    1       27.318 -20.387   7.987  0.00  0.00    +0.006 A 
ATOM     11  C   LIG    1       28.616 -19.873   7.958  0.00  0.00    +0.000 A 
ATOM     12  C   LIG    1       29.171 -19.462   6.751  0.00  0.00    +0.000 A 
ATOM     13  C   LIG    1       28.428 -19.564   5.578  0.00  0.00    +0.000 A 
ATOM     14  C   LIG    1       27.128 -20.080   5.608  0.00  0.00    +0.006 A 
ENDBRANCH   3   9
TORSDOF 1
ENDMDL
MODEL 3
REMARK VINA RESULT:      -6.8      1.693      4.706
REMARK  Name = *****
REMARK                            x       y       z     vdW  Elec       q    Type
REMARK                         _______ _______ _______ _____ _____    ______ ____
ROOT
ATOM      1  C   LIG    1       25.842 -20.613   8.445  0.00  0.00    +0.027 C 
ATOM      2  C   LIG    1       26.039 -21.780   7.465  0.00  0.00    +0.084 C 
ATOM      3  C   LIG    1       24.733 -22.636   7.355  0.00  0.00    +0.165 C 
ATOM      4  O   LIG    1       23.714 -21.894   6.644  0.00  0.00    -0.369 OA
ATOM      5  C   LIG    1       24.161 -21.468   5.350  0.00  0.00    +0.176 C 
ATOM      6  C   LIG    1       25.422 -20.600   5.439  0.00  0.00    +0.109 C 
ATOM      7  N   LIG    1       26.524 -21.269   6.157  0.00  0.00    -0.309 NA
ATOM      8  H   LIG    1       26.806 -22.074   5.594  0.00  0.00    +0.122 HD
ENDROOT
BRANCH   3   9
ATOM      9  C   LIG    1       24.841 -24.052   6.793  0.00  0.00    -0.017 A 
ATOM     10  C   LIG    1       26.121 -24.627   6.669  0.00  0.00    +0.006 A 
ATOM     11  C   LIG    1       26.292 -25.910   6.146  0.00  0.00    +0.000 A 
ATOM     12  C   LIG    1       25.186 -26.640   5.725  0.00  0.00    +0.000 A 
ATOM     13  C   LIG    1       23.913 -26.086   5.825  0.00  0.00    +0.000 A 
ATOM     14  C   LIG    1       23.741 -24.800   6.349  0.00  0.00    +0.006 A 
ENDBRANCH   3   9
TORSDOF 1
ENDMDL
MODEL 4
REMARK VINA RESULT:      -6.6      1.398      2.266
REMARK  Name = *****
REMARK                            x       y       z     vdW  Elec       q    Type
REMARK                         _______ _______ _______ _____ _____    ______ ____
ROOT
ATOM      1  C   LIG    1       28.331 -21.134   7.010  0.00  0.00    +0.027 C 
ATOM      2  C   LIG    1       26.943 -20.479   6.930  0.00  0.00    +0.084 C 
ATOM      3  C   LIG    1       26.063 -21.181   5.841  0.00  0.00    +0.165 C 
ATOM      4  O   LIG    1       25.681 -22.502   6.290  0.00  0.00    -0.369 OA
ATOM      5  C   LIG    1       25.005 -22.468   7.554  0.00  0.00    +0.176 C 
ATOM      6  C   LIG    1       25.863 -21.813   8.643  0.00  0.00    +0.109 C 
ATOM      7  N   LIG    1       26.313 -20.457   8.275  0.00  0.00    -0.309 NA
ATOM      8  H   LIG    1       25.479 -19.868   8.218  0.00  0.00    +0.122 HD
ENDROOT
BRANCH   3   9
ATOM      9  C   LIG    1       24.844 -20.433   5.305  0.00  0.00    -0.017 A 
ATOM     10  C   LIG    1       24.983 -19.691   4.116  0.00  0.00    +0.006 A 
ATOM     11  C   LIG    1       23.914 -18.969   3.582  0.00  0.00    +0.000 A 
ATOM     12  C   LIG    1       22.685 -18.967   4.233  0.00  0.00    +0.000 A 
ATOM     13  C   LIG    1       22.529 -19.683   5.417  0.00  0.00    +0.000 A 
ATOM     14  C   LIG    1       23.600 -20.406   5.952  0.00  0.00    +0.006 A 
ENDBRANCH   3   9
TORSDOF 1
ENDMDL
MODEL 5
REMARK VINA RESULT:      -6.4      2.327      4.424
REMARK  Name = *****
REMARK                            x       y       z     vdW  Elec       q    Type
REMARK                         _______ _______ _______ _____ _____    ______ ____
ROOT
ATOM      1  C   LIG    1       21.594 -21.362   4.724  0.00  0.00    +0.027 C 
ATOM      2  C   LIG    1       22.663 -20.619   5.541  0.00  0.00    +0.084 C 
ATOM      3  C   LIG    1       24.095 -21.134   5.176  0.00  0.00    +0.165 C 
ATOM      4  O   LIG    1       24.457 -20.690   3.847  0.00  0.00    -0.369 OA
ATOM      5  C   LIG    1       24.372 -19.265   3.713  0.00  0.00    +0.176 C 
ATOM      6  C   LIG    1       22.967 -18.744   4.035  0.00  0.00    +0.109 C 
ATOM      7  N   LIG    1       22.501 -19.152   5.374  0.00  0.00    -0.309 NA
ATOM      8  H   LIG    1       23.107 -18.693   6.057  0.00  0.00    +0.122 HD
ENDROOT
BRANCH   3   9
ATOM      9  C   LIG    1       25.236 -20.854   6.153  0.00  0.00    -0.017 A 
ATOM     10  C   LIG    1       24.959 -20.892   7.533  0.00  0.00    +0.006 A 
ATOM     11  C   LIG    1       25.951 -20.627   8.480  0.00  0.00    +0.000 A 
ATOM     12  C   LIG    1       27.238 -20.307   8.063  0.00  0.00    +0.000 A 
ATOM     13  C   LIG    1       27.531 -20.250   6.703  0.00  0.00    +0.000 A 
ATOM     14  C   LIG    1       26.537 -20.516   5.755  0.00  0.00    +0.006 A 
ENDBRANCH   3   9
TORSDOF 1
ENDMDL
MODEL 6
REMARK VINA RESULT:      -6.4      1.797      4.056
REMARK  Name = *****
REMARK                            x       y       z     vdW  Elec       q    Type
REMARK                         _______ _______ _______ _____ _____    ______ ____
ROOT
ATOM      1  C   LIG    1       27.537 -20.189   8.400  0.00  0.00    +0.027 C 
ATOM      2  C   LIG    1       27.169 -21.368   7.486  0.00  0.00    +0.084 C 
ATOM      3  C   LIG    1       25.637 -21.679   7.575  0.00  0.00    +0.165 C 
ATOM      4  O   LIG    1       24.880 -20.629   6.928  0.00  0.00    -0.369 OA
ATOM      5  C   LIG    1       25.287 -20.431   5.568  0.00  0.00    +0.176 C 
ATOM      6  C   LIG    1       26.779 -20.093   5.462  0.00  0.00    +0.109 C 
ATOM      7  N   LIG    1       27.639 -21.106   6.102  0.00  0.00    -0.309 NA
ATOM      8  H   LIG    1       27.534 -21.971   5.569  0.00  0.00    +0.122 HD
ENDROOT
BRANCH   3   9
ATOM      9  C   LIG    1       25.148 -23.048   7.104  0.00  0.00    -0.017 A 
ATOM     10  C   LIG    1       23.764 -23.239   6.926  0.00  0.00    +0.006 A 
ATOM     11  C   LIG    1       23.249 -24.470   6.515  0.00  0.00    +0.000 A 
ATOM     12  C   LIG    1       24.108 -25.539   6.285  0.00  0.00    +0.000 A 
ATOM     13  C   LIG    1       25.478 -25.376   6.467  0.00  0.00    +0.000 A 
ATOM     14  C   LIG    1       25.995 -24.142   6.879  0.00  0.00    +0.006 A 
ENDBRANCH   3   9
TORSDOF 1
ENDMDL
MODEL 7
REMARK VINA RESULT:      -6.3      2.214      4.151
REMARK  Name = *****
REMARK                            x       y       z     vdW  Elec       q    Type
REMARK                         _______ _______ _______ _____ _____    ______ ____
ROOT
ATOM      1  C   LIG    1       23.284 -23.148   6.861  0.00  0.00    +0.027 C 
ATOM      2  C   LIG    1       24.191 -21.954   7.203  0.00  0.00    +0.084 C 
ATOM      3  C   LIG    1       25.330 -21.804   6.139  0.00  0.00    +0.165 C 
ATOM      4  O   LIG    1       24.778 -21.335   4.887  0.00  0.00    -0.369 OA
ATOM      5  C   LIG    1       24.053 -20.109   5.041  0.00  0.00    +0.176 C 
ATOM      6  C   LIG    1       22.911 -20.244   6.056  0.00  0.00    +0.109 C 
ATOM      7  N   LIG    1       23.373 -20.726   7.372  0.00  0.00    -0.309 NA
ATOM      8  H   LIG    1       23.977 -20.002   7.763  0.00  0.00    +0.122 HD
ENDROOT
BRANCH   3   9
ATOM      9  C   LIG    1       26.563 -20.982   6.512  0.00  0.00    -0.017 A 
ATOM     10  C   LIG    1       27.245 -20.297   5.488  0.00  0.00    +0.006 A 
ATOM     11  C   LIG    1       28.389 -19.544   5.757  0.00  0.00    +0.000 A 
ATOM     12  C   LIG    1       28.881 -19.469   7.055  0.00  0.00    +0.000 A 
ATOM     13  C   LIG    1       28.230 -20.150   8.081  0.00  0.00    +0.000 A 
ATOM     14  C   LIG    1       27.083 -20.904   7.811  0.00  0.00    +0.006 A 
ENDBRANCH   3   9
TORSDOF 1
ENDMDL
MODEL 8
REMARK VINA RESULT:      -6.3      2.034      4.906
REMARK  Name = *****
REMARK                            x       y       z     vdW  Elec       q    Type
REMARK                         _______ _______ _______ _____ _____    ______ ____
ROOT
ATOM      1  C   LIG    1       25.330 -20.051   4.802  0.00  0.00    +0.027 C 
ATOM      2  C   LIG    1       24.835 -21.505   4.744  0.00  0.00    +0.084 C 
ATOM      3  C   LIG    1       25.329 -22.307   5.995  0.00  0.00    +0.165 C 
ATOM      4  O   LIG    1       24.627 -21.860   7.178  0.00  0.00    -0.369 OA
ATOM      5  C   LIG    1       23.205 -21.961   7.032  0.00  0.00    +0.176 C 
ATOM      6  C   LIG    1       22.696 -21.156   5.830  0.00  0.00    +0.109 C 
ATOM      7  N   LIG    1       23.360 -21.534   4.568  0.00  0.00    -0.309 NA
ATOM      8  H   LIG    1       23.091 -22.498   4.363  0.00  0.00    +0.122 HD
ENDROOT
BRANCH   3   9
ATOM      9  C   LIG    1       25.324 -23.833   5.924  0.00  0.00    -0.017 A 
ATOM     10  C   LIG    1       25.820 -24.556   7.027  0.00  0.00    +0.006 A 
ATOM     11  C   LIG    1       25.861 -25.951   7.019  0.00  0.00    +0.000 A 
ATOM     12  C   LIG    1       25.417 -26.652   5.904  0.00  0.00    +0.000 A 
ATOM     13  C   LIG    1       24.936 -25.958   4.797  0.00  0.00    +0.000 A 
ATOM     14  C   LIG    1       24.894 -24.559   4.805  0.00  0.00    +0.006 A 
ENDBRANCH   3   9
TORSDOF 1
ENDMDL
MODEL 9
REMARK VINA RESULT:      -6.2      3.572      4.822
REMARK  Name = *****
REMARK                            x       y       z     vdW  Elec       q    Type
REMARK                         _______ _______ _______ _____ _____    ______ ____
ROOT
ATOM      1  C   LIG    1       31.469 -21.355   9.174  0.00  0.00    +0.027 C 
ATOM      2  C   LIG    1       30.575 -20.957   7.988  0.00  0.00    +0.084 C 
ATOM      3  C   LIG    1       29.212 -20.376   8.494  0.00  0.00    +0.165 C 
ATOM      4  O   LIG    1       29.420 -19.072   9.087  0.00  0.00    -0.369 OA
ATOM      5  C   LIG    1       30.062 -18.165   8.182  0.00  0.00    +0.176 C 
ATOM      6  C   LIG    1       31.415 -18.701   7.700  0.00  0.00    +0.109 C 
ATOM      7  N   LIG    1       31.311 -20.037   7.083  0.00  0.00    -0.309 NA
ATOM      8  H   LIG    1       30.758 -19.933   6.230  0.00  0.00    +0.122 HD
ENDROOT
BRANCH   3   9
ATOM      9  C   LIG    1       28.038 -20.329   7.518  0.00  0.00    -0.017 A 
ATOM     10  C   LIG    1       26.747 -20.597   8.010  0.00  0.00    +0.006 A 
ATOM     11  C   LIG    1       25.633 -20.590   7.168  0.00  0.00    +0.000 A 
ATOM     12  C   LIG    1       25.792 -20.325   5.812  0.00  0.00    +0.000 A 
ATOM     13  C   LIG    1       27.061 -20.071   5.301  0.00  0.00    +0.000 A 
ATOM     14  C   LIG    1       28.177 -20.078   6.145  0.00  0.00    +0.006 A 
ENDBRANCH   3   9
TORSDOF 1
ENDMDL
