MODEL 1
REMARK VINA RESULT:      15.8      0.000      0.000
REMARK  Name = *****
REMARK                            x       y       z     vdW  Elec       q    Type
REMARK                         _______ _______ _______ _____ _____    ______ ____
ROOT
ATOM      1  N   LIG    1       27.513 -19.087   4.208  0.00  0.00    -0.282 N 
ATOM      2  H   LIG    1       28.311 -19.542   3.785  0.00  0.00    +0.155 HD
ENDROOT
BRANCH   1   3
ATOM      3  C   LIG    1       27.697 -17.681   4.312  0.00  0.00    +0.126 A 
ATOM      4  N   LIG    1       26.981 -16.812   3.552  0.00  0.00    -0.213 NA
ATOM      5  C   LIG    1       27.250 -15.482   3.605  0.00  0.00    +0.174 A 
ATOM      6  N   LIG    1       26.492 -14.548   2.842  0.00  0.00    -0.225 N 
ATOM      7  C   LIG    1       26.859 -13.192   2.805  0.00  0.00    +0.266 C 
ATOM      8  C   LIG    1       28.289 -12.910   3.345  0.00  0.00    +0.181 C 
ATOM      9  O   LIG    1       28.655 -13.680   4.489  0.00  0.00    -0.474 OA
ATOM     10  C   LIG    1       28.398 -11.449   3.796  0.00  0.00    +0.066 C 
ATOM     11  C   LIG    1       29.292 -13.152   2.205  0.00  0.00    +0.066 C 
ATOM     12  O   LIG    1       26.173 -12.321   2.300  0.00  0.00    -0.271 OA
ATOM     13  C   LIG    1       28.271 -14.988   4.423  0.00  0.00    +0.162 A 
ATOM     14  C   LIG    1       28.941 -15.860   5.271  0.00  0.00    +0.052 A 
ATOM     15  C   LIG    1       28.653 -17.219   5.217  0.00  0.00    +0.047 A 
BRANCH   6  16
ATOM     16  C   LIG    1       25.157 -14.861   2.351  0.00  0.00    +0.289 C 
BRANCH  16  17
ATOM     17  O   LIG    1       24.149 -14.490   3.252  0.00  0.00    -0.267 OA
BRANCH  17  18
ATOM     18  P   LIG    1       24.593 -13.648   4.525  0.00  0.00    +0.474 P 
ATOM     19  O   LIG    1       25.659 -14.273   5.354  0.00  0.00    -0.228 OA
BRANCH  18  20
ATOM     20  O   LIG    1       23.276 -13.346   5.371  0.00  0.00    -0.303 OA
ATOM     21  H   LIG    1       23.140 -14.000   6.081  0.00  0.00    +0.222 HD
ENDBRANCH  18  20
BRANCH  18  22
ATOM     22  O   LIG    1       25.028 -12.200   4.016  0.00  0.00    -0.303 OA
ATOM     23  H   LIG    1       25.571 -12.275   3.210  0.00  0.00    +0.222 HD
ENDBRANCH  18  22
ENDBRANCH  17  18
ENDBRANCH  16  17
ENDBRANCH   6  16
ENDBRANCH   1   3
BRANCH   1  26
ATOM     24  C   LIG    1       25.068 -20.903   6.173  0.00  0.00    +0.221 A 
ATOM     25  N   LIG    1       25.580 -20.043   5.257  0.00  0.00    -0.196 NA
ATOM     26  C   LIG    1       26.938 -19.918   5.202  0.00  0.00    +0.165 A 
ATOM     27  C   LIG    1       27.753 -20.532   6.138  0.00  0.00    +0.181 A 
ATOM     28  F   LIG    1       29.066 -20.277   6.233  0.00  0.00    -0.200 F 
ATOM     29  C   LIG    1       27.144 -21.355   7.042  0.00  0.00    +0.156 A 
ATOM     30  N   LIG    1       25.820 -21.572   7.062  0.00  0.00    -0.220 NA
BRANCH  24  31
ATOM     31  N   LIG    1       23.683 -21.070   6.262  0.00  0.00    -0.283 N 
ATOM     32  H   LIG    1       23.395 -21.543   7.104  0.00  0.00    +0.155 HD
BRANCH  31  37
ATOM     33  C   LIG    1       21.776 -18.430   4.450  0.00  0.00    +0.167 A 
ATOM     34  C   LIG    1       20.611 -19.121   4.051  0.00  0.00    +0.204 A 
ATOM     35  C   LIG    1       20.515 -20.495   4.329  0.00  0.00    +0.167 A 
ATOM     36  C   LIG    1       21.521 -21.117   5.092  0.00  0.00    +0.073 A 
ATOM     37  C   LIG    1       22.675 -20.440   5.504  0.00  0.00    +0.041 A 
ATOM     38  C   LIG    1       22.781 -19.087   5.182  0.00  0.00    +0.073 A 
BRANCH  33  40
ATOM     39  C   LIG    1       22.254 -16.229   5.190  0.00  0.00    +0.277 C 
ATOM     40  O   LIG    1       21.852 -17.091   4.129  0.00  0.00    -0.491 OA
ENDBRANCH  33  40
BRANCH  34  41
ATOM     41  O   LIG    1       19.699 -18.385   3.328  0.00  0.00    -0.488 OA
ATOM     42  C   LIG    1       20.197 -17.628   2.229  0.00  0.00    +0.277 C 
ENDBRANCH  34  41
BRANCH  35  43
ATOM     43  O   LIG    1       19.439 -21.198   3.844  0.00  0.00    -0.491 OA
ATOM     44  C   LIG    1       19.399 -21.346   2.428  0.00  0.00    +0.277 C 
ENDBRANCH  35  43
ENDBRANCH  31  37
ENDBRANCH  24  31
ENDBRANCH   1  26
TORSDOF 12
ENDMDL
MODEL 2
REMARK VINA RESULT:      18.5      3.167      6.792
REMARK  Name = *****
REMARK                            x       y       z     vdW  Elec       q    Type
REMARK                         _______ _______ _______ _____ _____    ______ ____
ROOT
ATOM      1  N   LIG    1       22.434 -19.690   3.987  0.00  0.00    -0.282 N 
ATOM      2  H   LIG    1       21.933 -20.569   4.006  0.00  0.00    +0.155 HD
ENDROOT
BRANCH   1   3
ATOM      3  C   LIG    1       23.653 -19.760   4.715  0.00  0.00    +0.126 A 
ATOM      4  N   LIG    1       24.800 -19.211   4.236  0.00  0.00    -0.213 NA
ATOM      5  C   LIG    1       25.967 -19.380   4.909  0.00  0.00    +0.174 A 
ATOM      6  N   LIG    1       27.176 -18.787   4.445  0.00  0.00    -0.225 N 
ATOM      7  C   LIG    1       28.399 -19.072   5.075  0.00  0.00    +0.266 C 
ATOM      8  C   LIG    1       28.348 -20.299   6.027  0.00  0.00    +0.181 C 
ATOM      9  O   LIG    1       27.148 -20.408   6.793  0.00  0.00    -0.474 OA
ATOM     10  C   LIG    1       29.475 -20.206   7.062  0.00  0.00    +0.066 C 
ATOM     11  C   LIG    1       28.551 -21.571   5.187  0.00  0.00    +0.066 C 
ATOM     12  O   LIG    1       29.438 -18.487   4.827  0.00  0.00    -0.271 OA
ATOM     13  C   LIG    1       26.014 -20.130   6.089  0.00  0.00    +0.162 A 
ATOM     14  C   LIG    1       24.830 -20.612   6.631  0.00  0.00    +0.052 A 
ATOM     15  C   LIG    1       23.638 -20.427   5.939  0.00  0.00    +0.047 A 
BRANCH   6  16
ATOM     16  C   LIG    1       27.173 -17.640   3.546  0.00  0.00    +0.289 C 
BRANCH  16  17
ATOM     17  O   LIG    1       26.641 -16.488   4.143  0.00  0.00    -0.267 OA
BRANCH  17  18
ATOM     18  P   LIG    1       27.674 -15.373   4.606  0.00  0.00    +0.474 P 
ATOM     19  O   LIG    1       28.034 -14.374   3.563  0.00  0.00    -0.228 OA
BRANCH  18  20
ATOM     20  O   LIG    1       28.956 -16.130   5.176  0.00  0.00    -0.303 OA
ATOM     21  H   LIG    1       29.786 -15.766   4.816  0.00  0.00    +0.222 HD
ENDBRANCH  18  20
BRANCH  18  22
ATOM     22  O   LIG    1       27.072 -14.667   5.903  0.00  0.00    -0.303 OA
ATOM     23  H   LIG    1       26.943 -13.715   5.740  0.00  0.00    +0.222 HD
ENDBRANCH  18  22
ENDBRANCH  17  18
ENDBRANCH  16  17
ENDBRANCH   6  16
ENDBRANCH   1   3
BRANCH   1  26
ATOM     24  C   LIG    1       21.084 -16.352   4.387  0.00  0.00    +0.221 A 
ATOM     25  N   LIG    1       21.956 -17.388   4.455  0.00  0.00    -0.196 NA
ATOM     26  C   LIG    1       21.527 -18.602   4.002  0.00  0.00    +0.165 A 
ATOM     27  C   LIG    1       20.209 -18.801   3.623  0.00  0.00    +0.181 A 
ATOM     28  F   LIG    1       19.708 -20.017   3.361  0.00  0.00    -0.200 F 
ATOM     29  C   LIG    1       19.397 -17.704   3.617  0.00  0.00    +0.156 A 
ATOM     30  N   LIG    1       19.815 -16.478   3.968  0.00  0.00    -0.220 NA
BRANCH  24  31
ATOM     31  N   LIG    1       21.480 -15.087   4.833  0.00  0.00    -0.283 N 
ATOM     32  H   LIG    1       20.984 -14.783   5.655  0.00  0.00    +0.155 HD
BRANCH  31  37
ATOM     33  C   LIG    1       24.182 -12.520   4.903  0.00  0.00    +0.167 A 
ATOM     34  C   LIG    1       24.881 -12.787   3.705  0.00  0.00    +0.204 A 
ATOM     35  C   LIG    1       24.482 -13.883   2.922  0.00  0.00    +0.167 A 
ATOM     36  C   LIG    1       23.334 -14.611   3.289  0.00  0.00    +0.073 A 
ATOM     37  C   LIG    1       22.625 -14.350   4.467  0.00  0.00    +0.041 A 
ATOM     38  C   LIG    1       23.059 -13.288   5.260  0.00  0.00    +0.073 A 
BRANCH  33  40
ATOM     39  C   LIG    1       25.548 -11.790   6.696  0.00  0.00    +0.277 C 
ATOM     40  O   LIG    1       24.624 -11.459   5.664  0.00  0.00    -0.491 OA
ENDBRANCH  33  40
BRANCH  34  41
ATOM     41  O   LIG    1       25.972 -11.984   3.460  0.00  0.00    -0.488 OA
ATOM     42  C   LIG    1       26.205 -11.594   2.110  0.00  0.00    +0.277 C 
ENDBRANCH  34  41
BRANCH  35  43
ATOM     43  O   LIG    1       25.227 -14.218   1.818  0.00  0.00    -0.491 OA
ATOM     44  C   LIG    1       26.633 -14.035   1.956  0.00  0.00    +0.277 C 
ENDBRANCH  35  43
ENDBRANCH  31  37
ENDBRANCH  24  31
ENDBRANCH   1  26
TORSDOF 12
ENDMDL
MODEL 3
REMARK VINA RESULT:      18.8      1.769      6.635
REMARK  Name = *****
REMARK                            x       y       z     vdW  Elec       q    Type
REMARK                         _______ _______ _______ _____ _____    ______ ____
ROOT
ATOM      1  N   LIG    1       25.520 -19.816   6.382  0.00  0.00    -0.282 N 
ATOM      2  H   LIG    1       25.460 -20.650   6.951  0.00  0.00    +0.155 HD
ENDROOT
BRANCH   1   3
ATOM      3  C   LIG    1       24.425 -19.709   5.481  0.00  0.00    +0.126 A 
ATOM      4  N   LIG    1       24.020 -18.508   4.992  0.00  0.00    -0.213 NA
ATOM      5  C   LIG    1       22.911 -18.430   4.212  0.00  0.00    +0.174 A 
ATOM      6  N   LIG    1       22.485 -17.187   3.662  0.00  0.00    -0.225 N 
ATOM      7  C   LIG    1       21.269 -17.095   2.964  0.00  0.00    +0.266 C 
ATOM      8  C   LIG    1       20.333 -18.319   3.162  0.00  0.00    +0.181 C 
ATOM      9  O   LIG    1       21.002 -19.580   3.196  0.00  0.00    -0.474 OA
ATOM     10  C   LIG    1       19.350 -18.421   1.990  0.00  0.00    +0.066 C 
ATOM     11  C   LIG    1       19.536 -18.113   4.460  0.00  0.00    +0.066 C 
ATOM     12  O   LIG    1       20.921 -16.107   2.343  0.00  0.00    -0.271 OA
ATOM     13  C   LIG    1       22.162 -19.573   3.913  0.00  0.00    +0.162 A 
ATOM     14  C   LIG    1       22.625 -20.814   4.331  0.00  0.00    +0.052 A 
ATOM     15  C   LIG    1       23.766 -20.885   5.122  0.00  0.00    +0.047 A 
BRANCH   6  16
ATOM     16  C   LIG    1       23.399 -16.064   3.503  0.00  0.00    +0.289 C 
BRANCH  16  17
ATOM     17  O   LIG    1       22.833 -14.846   3.906  0.00  0.00    -0.267 OA
BRANCH  17  18
ATOM     18  P   LIG    1       22.732 -14.579   5.469  0.00  0.00    +0.474 P 
ATOM     19  O   LIG    1       21.854 -13.443   5.861  0.00  0.00    -0.228 OA
BRANCH  18  20
ATOM     20  O   LIG    1       24.221 -14.397   6.010  0.00  0.00    -0.303 OA
ATOM     21  H   LIG    1       24.868 -14.897   5.478  0.00  0.00    +0.222 HD
ENDBRANCH  18  20
BRANCH  18  22
ATOM     22  O   LIG    1       22.267 -15.939   6.161  0.00  0.00    -0.303 OA
ATOM     23  H   LIG    1       22.115 -16.625   5.486  0.00  0.00    +0.222 HD
ENDBRANCH  18  22
ENDBRANCH  17  18
ENDBRANCH  16  17
ENDBRANCH   6  16
ENDBRANCH   1   3
BRANCH   1  26
ATOM     24  C   LIG    1       28.461 -18.129   5.101  0.00  0.00    +0.221 A 
ATOM     25  N   LIG    1       27.153 -18.422   5.315  0.00  0.00    -0.196 NA
ATOM     26  C   LIG    1       26.872 -19.521   6.074  0.00  0.00    +0.165 A 
ATOM     27  C   LIG    1       27.873 -20.384   6.487  0.00  0.00    +0.181 A 
ATOM     28  F   LIG    1       27.617 -21.568   7.062  0.00  0.00    -0.200 F 
ATOM     29  C   LIG    1       29.158 -20.021   6.198  0.00  0.00    +0.156 A 
ATOM     30  N   LIG    1       29.472 -18.898   5.535  0.00  0.00    -0.220 NA
BRANCH  24  31
ATOM     31  N   LIG    1       28.799 -17.009   4.337  0.00  0.00    -0.283 N 
ATOM     32  H   LIG    1       29.527 -17.194   3.665  0.00  0.00    +0.155 HD
BRANCH  31  37
ATOM     33  C   LIG    1       27.523 -13.578   5.040  0.00  0.00    +0.167 A 
ATOM     34  C   LIG    1       26.603 -13.379   3.989  0.00  0.00    +0.204 A 
ATOM     35  C   LIG    1       26.478 -14.374   3.005  0.00  0.00    +0.167 A 
ATOM     36  C   LIG    1       27.183 -15.583   3.153  0.00  0.00    +0.073 A 
ATOM     37  C   LIG    1       28.091 -15.798   4.197  0.00  0.00    +0.041 A 
ATOM     38  C   LIG    1       28.240 -14.784   5.142  0.00  0.00    +0.073 A 
BRANCH  33  40
ATOM     39  C   LIG    1       28.750 -11.687   5.771  0.00  0.00    +0.277 C 
ATOM     40  O   LIG    1       27.646 -12.565   5.968  0.00  0.00    -0.491 OA
ENDBRANCH  33  40
BRANCH  34  41
ATOM     41  O   LIG    1       25.966 -12.158   3.976  0.00  0.00    -0.488 OA
ATOM     42  C   LIG    1       25.066 -11.881   5.044  0.00  0.00    +0.277 C 
ENDBRANCH  34  41
BRANCH  35  43
ATOM     43  O   LIG    1       25.670 -14.138   1.919  0.00  0.00    -0.491 OA
ATOM     44  C   LIG    1       24.416 -13.532   2.215  0.00  0.00    +0.277 C 
ENDBRANCH  35  43
ENDBRANCH  31  37
ENDBRANCH  24  31
ENDBRANCH   1  26
TORSDOF 12
ENDMDL
