MODEL 1
REMARK VINA RESULT:      -4.8      0.000      0.000
REMARK  Name = *****
REMARK                            x       y       z     vdW  Elec       q    Type
REMARK                         _______ _______ _______ _____ _____    ______ ____
ROOT
ATOM      1  C   LIG    1       25.177 -20.945   6.068  0.00  0.00    +0.186 A 
ATOM      2  C   LIG    1       24.206 -20.384   5.255  0.00  0.00    +0.171 A 
ATOM      3  N   LIG    1       22.930 -20.635   5.768  0.00  0.00    -0.229 NA
ATOM      4  C   LIG    1       23.132 -21.352   6.849  0.00  0.00    +0.199 A 
ATOM      5  N   LIG    1       24.459 -21.571   7.061  0.00  0.00    -0.328 N 
ATOM      6  H   LIG    1       24.878 -22.092   7.818  0.00  0.00    +0.168 HD
ENDROOT
BRANCH   2   7
ATOM      7  C   LIG    1       24.422 -19.625   4.027  0.00  0.00    +0.264 C 
ATOM      8  O   LIG    1       23.589 -18.899   3.494  0.00  0.00    -0.269 OA
ATOM      9  N   LIG    1       25.664 -19.787   3.483  0.00  0.00    -0.324 N 
ATOM     10  H   LIG    1       25.889 -19.307   2.623  0.00  0.00    +0.145 HD
ATOM     11  H   LIG    1       26.330 -20.407   3.926  0.00  0.00    +0.145 HD
ENDBRANCH   2   7
BRANCH   1  13
ATOM     12  N   LIG    1       27.096 -19.864   6.069  0.00  0.00    -0.077 NA
ATOM     13  N   LIG    1       26.532 -20.976   6.022  0.00  0.00    -0.113 NA
BRANCH  12  15
ATOM     14  C   LIG    1       29.250 -18.747   5.710  0.00  0.00    +0.153 C 
ATOM     15  N   LIG    1       28.467 -19.934   6.033  0.00  0.00    -0.243 N 
ATOM     16  C   LIG    1       29.034 -20.853   7.004  0.00  0.00    +0.153 C 
ENDBRANCH  12  15
ENDBRANCH   1  13
TORSDOF 3
ENDMDL
MODEL 2
REMARK VINA RESULT:      -4.3      1.676      2.691
REMARK  Name = *****
REMARK                            x       y       z     vdW  Elec       q    Type
REMARK                         _______ _______ _______ _____ _____    ______ ____
ROOT
ATOM      1  C   LIG    1       25.483 -19.998   4.782  0.00  0.00    +0.186 A 
ATOM      2  C   LIG    1       24.128 -20.286   4.785  0.00  0.00    +0.171 A 
ATOM      3  N   LIG    1       23.491 -19.662   3.708  0.00  0.00    -0.229 NA
ATOM      4  C   LIG    1       24.439 -18.994   3.092  0.00  0.00    +0.199 A 
ATOM      5  N   LIG    1       25.644 -19.158   3.705  0.00  0.00    -0.328 N 
ATOM      6  H   LIG    1       26.527 -18.752   3.432  0.00  0.00    +0.168 HD
ENDROOT
BRANCH   2   7
ATOM      7  C   LIG    1       23.410 -21.119   5.744  0.00  0.00    +0.264 C 
ATOM      8  O   LIG    1       23.822 -21.419   6.860  0.00  0.00    -0.269 OA
ATOM      9  N   LIG    1       22.200 -21.567   5.299  0.00  0.00    -0.324 N 
ATOM     10  H   LIG    1       21.647 -22.163   5.897  0.00  0.00    +0.145 HD
ATOM     11  H   LIG    1       21.887 -21.327   4.366  0.00  0.00    +0.145 HD
ENDBRANCH   2   7
BRANCH   1  13
ATOM     12  N   LIG    1       27.578 -19.725   5.407  0.00  0.00    -0.077 NA
ATOM     13  N   LIG    1       26.517 -20.358   5.583  0.00  0.00    -0.113 NA
BRANCH  12  15
ATOM     14  C   LIG    1       29.475 -19.098   6.829  0.00  0.00    +0.153 C 
ATOM     15  N   LIG    1       28.598 -20.105   6.243  0.00  0.00    -0.243 N 
ATOM     16  C   LIG    1       28.286 -21.263   7.062  0.00  0.00    +0.153 C 
ENDBRANCH  12  15
ENDBRANCH   1  13
TORSDOF 3
ENDMDL
MODEL 3
REMARK VINA RESULT:      -4.1      4.972      6.733
REMARK  Name = *****
REMARK                            x       y       z     vdW  Elec       q    Type
REMARK                         _______ _______ _______ _____ _____    ______ ____
ROOT
ATOM      1  C   LIG    1       26.269 -15.133   3.336  0.00  0.00    +0.186 A 
ATOM      2  C   LIG    1       26.046 -13.795   3.053  0.00  0.00    +0.171 A 
ATOM      3  N   LIG    1       27.224 -13.058   3.205  0.00  0.00    -0.229 NA
ATOM      4  C   LIG    1       28.125 -13.930   3.595  0.00  0.00    +0.199 A 
ATOM      5  N   LIG    1       27.596 -15.181   3.698  0.00  0.00    -0.328 N 
ATOM      6  H   LIG    1       28.075 -16.024   3.978  0.00  0.00    +0.168 HD
ENDROOT
BRANCH   2   7
ATOM      7  C   LIG    1       24.785 -13.183   2.647  0.00  0.00    +0.264 C 
ATOM      8  O   LIG    1       24.674 -12.291   1.812  0.00  0.00    -0.269 OA
ATOM      9  N   LIG    1       23.689 -13.686   3.288  0.00  0.00    -0.324 N 
ATOM     10  H   LIG    1       22.779 -13.305   3.075  0.00  0.00    +0.145 HD
ATOM     11  H   LIG    1       23.804 -14.406   3.990  0.00  0.00    +0.145 HD
ENDBRANCH   2   7
BRANCH   1  13
ATOM     12  N   LIG    1       26.081 -17.327   3.316  0.00  0.00    -0.077 NA
ATOM     13  N   LIG    1       25.479 -16.235   3.327  0.00  0.00    -0.113 NA
BRANCH  12  15
ATOM     14  C   LIG    1       25.768 -19.728   3.711  0.00  0.00    +0.153 C 
ATOM     15  N   LIG    1       25.251 -18.421   3.321  0.00  0.00    -0.243 N 
ATOM     16  C   LIG    1       23.882 -18.117   3.696  0.00  0.00    +0.153 C 
ENDBRANCH  12  15
ENDBRANCH   1  13
TORSDOF 3
ENDMDL
MODEL 4
REMARK VINA RESULT:      -3.8      2.939      4.257
REMARK  Name = *****
REMARK                            x       y       z     vdW  Elec       q    Type
REMARK                         _______ _______ _______ _____ _____    ______ ____
ROOT
ATOM      1  C   LIG    1       25.316 -19.118   3.751  0.00  0.00    +0.186 A 
ATOM      2  C   LIG    1       25.637 -20.112   4.661  0.00  0.00    +0.171 A 
ATOM      3  N   LIG    1       24.746 -21.183   4.555  0.00  0.00    -0.229 NA
ATOM      4  C   LIG    1       23.895 -20.827   3.620  0.00  0.00    +0.199 A 
ATOM      5  N   LIG    1       24.190 -19.595   3.119  0.00  0.00    -0.328 N 
ATOM      6  H   LIG    1       23.692 -19.095   2.398  0.00  0.00    +0.168 HD
ENDROOT
BRANCH   2   7
ATOM      7  C   LIG    1       26.739 -20.101   5.618  0.00  0.00    +0.264 C 
ATOM      8  O   LIG    1       26.634 -20.355   6.814  0.00  0.00    -0.269 OA
ATOM      9  N   LIG    1       27.947 -19.768   5.074  0.00  0.00    -0.324 N 
ATOM     10  H   LIG    1       28.758 -19.722   5.673  0.00  0.00    +0.145 HD
ATOM     11  H   LIG    1       28.009 -19.540   4.090  0.00  0.00    +0.145 HD
ENDBRANCH   2   7
BRANCH   1  13
ATOM     12  N   LIG    1       25.122 -16.926   3.654  0.00  0.00    -0.077 NA
ATOM     13  N   LIG    1       25.860 -17.912   3.452  0.00  0.00    -0.113 NA
BRANCH  12  15
ATOM     14  C   LIG    1       24.982 -14.478   3.581  0.00  0.00    +0.153 C 
ATOM     15  N   LIG    1       25.709 -15.722   3.354  0.00  0.00    -0.243 N 
ATOM     16  C   LIG    1       27.144 -15.695   3.577  0.00  0.00    +0.153 C 
ENDBRANCH  12  15
ENDBRANCH   1  13
TORSDOF 3
ENDMDL
MODEL 5
REMARK VINA RESULT:      -3.5      3.191      4.491
REMARK  Name = *****
REMARK                            x       y       z     vdW  Elec       q    Type
REMARK                         _______ _______ _______ _____ _____    ______ ____
ROOT
ATOM      1  C   LIG    1       24.779 -18.153   3.635  0.00  0.00    +0.186 A 
ATOM      2  C   LIG    1       23.635 -18.881   3.921  0.00  0.00    +0.171 A 
ATOM      3  N   LIG    1       23.911 -20.251   3.921  0.00  0.00    -0.229 NA
ATOM      4  C   LIG    1       25.185 -20.342   3.616  0.00  0.00    +0.199 A 
ATOM      5  N   LIG    1       25.742 -19.114   3.426  0.00  0.00    -0.328 N 
ATOM      6  H   LIG    1       26.699 -18.909   3.183  0.00  0.00    +0.168 HD
ENDROOT
BRANCH   2   7
ATOM      7  C   LIG    1       22.304 -18.350   4.195  0.00  0.00    +0.264 C 
ATOM      8  O   LIG    1       21.252 -18.937   3.963  0.00  0.00    -0.269 OA
ATOM      9  N   LIG    1       22.304 -17.100   4.746  0.00  0.00    -0.324 N 
ATOM     10  H   LIG    1       21.422 -16.655   4.951  0.00  0.00    +0.145 HD
ATOM     11  H   LIG    1       23.183 -16.624   4.909  0.00  0.00    +0.145 HD
ENDBRANCH   2   7
BRANCH   1  13
ATOM     12  N   LIG    1       26.234 -16.531   3.315  0.00  0.00    -0.077 NA
ATOM     13  N   LIG    1       25.041 -16.827   3.529  0.00  0.00    -0.113 NA
BRANCH  12  15
ATOM     14  C   LIG    1       25.337 -14.255   3.145  0.00  0.00    +0.153 C 
ATOM     15  N   LIG    1       26.461 -15.183   3.199  0.00  0.00    -0.243 N 
ATOM     16  C   LIG    1       27.657 -14.727   3.885  0.00  0.00    +0.153 C 
ENDBRANCH  12  15
ENDBRANCH   1  13
TORSDOF 3
ENDMDL
MODEL 6
REMARK VINA RESULT:      -3.1      3.201      4.956
REMARK  Name = *****
REMARK                            x       y       z     vdW  Elec       q    Type
REMARK                         _______ _______ _______ _____ _____    ______ ____
ROOT
ATOM      1  C   LIG    1       28.003 -18.219   4.776  0.00  0.00    +0.186 A 
ATOM      2  C   LIG    1       27.495 -19.432   5.214  0.00  0.00    +0.171 A 
ATOM      3  N   LIG    1       28.425 -20.091   6.023  0.00  0.00    -0.229 NA
ATOM      4  C   LIG    1       29.475 -19.303   6.048  0.00  0.00    +0.199 A 
ATOM      5  N   LIG    1       29.272 -18.177   5.308  0.00  0.00    -0.328 N 
ATOM      6  H   LIG    1       29.920 -17.417   5.164  0.00  0.00    +0.168 HD
ENDROOT
BRANCH   2   7
ATOM      7  C   LIG    1       26.184 -19.993   4.909  0.00  0.00    +0.264 C 
ATOM      8  O   LIG    1       25.534 -20.710   5.663  0.00  0.00    -0.269 OA
ATOM      9  N   LIG    1       25.708 -19.660   3.673  0.00  0.00    -0.324 N 
ATOM     10  H   LIG    1       24.812 -20.021   3.378  0.00  0.00    +0.145 HD
ATOM     11  H   LIG    1       26.269 -19.085   3.056  0.00  0.00    +0.145 HD
ENDBRANCH   2   7
BRANCH   1  13
ATOM     12  N   LIG    1       27.786 -16.065   4.370  0.00  0.00    -0.077 NA
ATOM     13  N   LIG    1       27.509 -17.224   3.999  0.00  0.00    -0.113 NA
BRANCH  12  15
ATOM     14  C   LIG    1       25.845 -14.991   3.325  0.00  0.00    +0.153 C 
ATOM     15  N   LIG    1       27.282 -15.084   3.553  0.00  0.00    -0.243 N 
ATOM     16  C   LIG    1       28.022 -13.835   3.608  0.00  0.00    +0.153 C 
ENDBRANCH  12  15
ENDBRANCH   1  13
TORSDOF 3
ENDMDL
MODEL 7
REMARK VINA RESULT:      -3.0      4.796      6.419
REMARK  Name = *****
REMARK                            x       y       z     vdW  Elec       q    Type
REMARK                         _______ _______ _______ _____ _____    ______ ____
ROOT
ATOM      1  C   LIG    1       25.057 -15.172   3.751  0.00  0.00    +0.186 A 
ATOM      2  C   LIG    1       26.038 -14.207   3.918  0.00  0.00    +0.171 A 
ATOM      3  N   LIG    1       25.463 -12.964   4.194  0.00  0.00    -0.229 NA
ATOM      4  C   LIG    1       24.167 -13.174   4.166  0.00  0.00    +0.199 A 
ATOM      5  N   LIG    1       23.878 -14.477   3.894  0.00  0.00    -0.328 N 
ATOM      6  H   LIG    1       22.963 -14.895   3.815  0.00  0.00    +0.168 HD
ENDROOT
BRANCH   2   7
ATOM      7  C   LIG    1       27.482 -14.402   3.834  0.00  0.00    +0.264 C 
ATOM      8  O   LIG    1       28.293 -13.528   3.549  0.00  0.00    -0.269 OA
ATOM      9  N   LIG    1       27.889 -15.678   4.100  0.00  0.00    -0.324 N 
ATOM     10  H   LIG    1       28.872 -15.900   4.048  0.00  0.00    +0.145 HD
ATOM     11  H   LIG    1       27.202 -16.391   4.312  0.00  0.00    +0.145 HD
ENDBRANCH   2   7
BRANCH   1  13
ATOM     12  N   LIG    1       24.143 -17.165   3.957  0.00  0.00    -0.077 NA
ATOM     13  N   LIG    1       25.089 -16.502   3.486  0.00  0.00    -0.113 NA
BRANCH  12  15
ATOM     14  C   LIG    1       25.483 -19.195   3.644  0.00  0.00    +0.153 C 
ATOM     15  N   LIG    1       24.199 -18.504   3.659  0.00  0.00    -0.243 N 
ATOM     16  C   LIG    1       23.051 -19.259   4.127  0.00  0.00    +0.153 C 
ENDBRANCH  12  15
ENDBRANCH   1  13
TORSDOF 3
ENDMDL
MODEL 8
REMARK VINA RESULT:      -3.0      2.044      4.583
REMARK  Name = *****
REMARK                            x       y       z     vdW  Elec       q    Type
REMARK                         _______ _______ _______ _____ _____    ______ ____
ROOT
ATOM      1  C   LIG    1       27.424 -19.672   5.247  0.00  0.00    +0.186 A 
ATOM      2  C   LIG    1       27.969 -18.453   4.875  0.00  0.00    +0.171 A 
ATOM      3  N   LIG    1       29.257 -18.310   5.399  0.00  0.00    -0.229 NA
ATOM      4  C   LIG    1       29.468 -19.407   6.089  0.00  0.00    +0.199 A 
ATOM      5  N   LIG    1       28.395 -20.245   6.035  0.00  0.00    -0.328 N 
ATOM      6  H   LIG    1       28.302 -21.146   6.480  0.00  0.00    +0.168 HD
ENDROOT
BRANCH   2   7
ATOM      7  C   LIG    1       27.338 -17.425   4.054  0.00  0.00    +0.264 C 
ATOM      8  O   LIG    1       27.698 -16.253   3.995  0.00  0.00    -0.269 OA
ATOM      9  N   LIG    1       26.270 -17.868   3.328  0.00  0.00    -0.324 N 
ATOM     10  H   LIG    1       25.768 -17.215   2.745  0.00  0.00    +0.145 HD
ATOM     11  H   LIG    1       25.974 -18.833   3.408  0.00  0.00    +0.145 HD
ENDBRANCH   2   7
BRANCH   1  13
ATOM     12  N   LIG    1       25.532 -20.513   5.999  0.00  0.00    -0.077 NA
ATOM     13  N   LIG    1       26.238 -20.281   4.996  0.00  0.00    -0.113 NA
BRANCH  12  15
ATOM     14  C   LIG    1       23.195 -20.949   6.602  0.00  0.00    +0.153 C 
ATOM     15  N   LIG    1       24.335 -21.117   5.708  0.00  0.00    -0.243 N 
ATOM     16  C   LIG    1       24.049 -21.201   4.286  0.00  0.00    +0.153 C 
ENDBRANCH  12  15
ENDBRANCH   1  13
TORSDOF 3
ENDMDL
MODEL 9
REMARK VINA RESULT:      -2.9      5.176      6.809
REMARK  Name = *****
REMARK                            x       y       z     vdW  Elec       q    Type
REMARK                         _______ _______ _______ _____ _____    ______ ____
ROOT
ATOM      1  C   LIG    1       25.383 -14.667   3.340  0.00  0.00    +0.186 A 
ATOM      2  C   LIG    1       26.468 -13.804   3.322  0.00  0.00    +0.171 A 
ATOM      3  N   LIG    1       26.087 -12.546   2.847  0.00  0.00    -0.229 NA
ATOM      4  C   LIG    1       24.810 -12.660   2.563  0.00  0.00    +0.199 A 
ATOM      5  N   LIG    1       24.349 -13.913   2.832  0.00  0.00    -0.328 N 
ATOM      6  H   LIG    1       23.410 -14.259   2.701  0.00  0.00    +0.168 HD
ENDROOT
BRANCH   2   7
ATOM      7  C   LIG    1       27.835 -14.108   3.730  0.00  0.00    +0.264 C 
ATOM      8  O   LIG    1       28.768 -13.312   3.707  0.00  0.00    -0.269 OA
ATOM      9  N   LIG    1       28.019 -15.393   4.153  0.00  0.00    -0.324 N 
ATOM     10  H   LIG    1       28.941 -15.688   4.439  0.00  0.00    +0.145 HD
ATOM     11  H   LIG    1       27.241 -16.041   4.144  0.00  0.00    +0.145 HD
ENDBRANCH   2   7
BRANCH   1  13
ATOM     12  N   LIG    1       25.759 -16.805   2.968  0.00  0.00    -0.077 NA
ATOM     13  N   LIG    1       25.223 -15.960   3.714  0.00  0.00    -0.113 NA
BRANCH  12  15
ATOM     14  C   LIG    1       26.627 -18.759   4.169  0.00  0.00    +0.153 C 
ATOM     15  N   LIG    1       25.589 -18.102   3.383  0.00  0.00    -0.243 N 
ATOM     16  C   LIG    1       24.213 -18.443   3.695  0.00  0.00    +0.153 C 
ENDBRANCH  12  15
ENDBRANCH   1  13
TORSDOF 3
ENDMDL
