MODEL 1
REMARK VINA RESULT:      -8.7      0.000      0.000
REMARK  Name = *****
REMARK                            x       y       z     vdW  Elec       q    Type
REMARK                         _______ _______ _______ _____ _____    ______ ____
ROOT
ATOM      1  C   LIG    1       23.673 -21.002   6.390  0.00  0.00    +0.216 A 
ATOM      2  N   LIG    1       23.205 -22.249   6.230  0.00  0.00    -0.213 NA
ATOM      3  C   LIG    1       24.036 -23.278   6.384  0.00  0.00    +0.075 A 
ATOM      4  C   LIG    1       25.411 -23.143   6.697  0.00  0.00    +0.013 A 
ATOM      5  C   LIG    1       26.154 -24.344   6.876  0.00  0.00    +0.011 A 
ATOM      6  C   LIG    1       25.576 -25.603   6.702  0.00  0.00    +0.001 A 
ATOM      7  C   LIG    1       24.231 -25.703   6.388  0.00  0.00    +0.002 A 
ATOM      8  C   LIG    1       25.889 -21.807   6.832  0.00  0.00    +0.051 A 
ATOM      9  C   LIG    1       23.479 -24.541   6.241  0.00  0.00    +0.028 A 
ATOM     10  C   LIG    1       24.998 -20.731   6.670  0.00  0.00    +0.081 A 
ENDROOT
BRANCH   8  11
ATOM     11  C   LIG    1       27.287 -21.417   7.219  0.00  0.00    +0.245 C 
ATOM     12  N   LIG    1       28.062 -20.719   6.315  0.00  0.00    -0.310 N 
ATOM     13  H   LIG    1       27.656 -20.383   5.456  0.00  0.00    +0.149 HD
ATOM     14  O   LIG    1       27.685 -21.679   8.353  0.00  0.00    -0.270 OA
BRANCH  12  15
ATOM     15  C   LIG    1       29.413 -20.269   6.637  0.00  0.00    +0.120 C 
BRANCH  15  16
ATOM     16  C   LIG    1       29.515 -19.215   7.771  0.00  0.00    +0.103 C 
BRANCH  16  17
ATOM     17  N   LIG    1       30.372 -19.545   8.940  0.00  0.00    -0.301 NA
BRANCH  17  18
ATOM     18  C   LIG    1       31.032 -18.323   9.454  0.00  0.00    +0.081 C 
ATOM     19  C   LIG    1       30.336 -17.576  10.593  0.00  0.00    +0.020 C 
ENDBRANCH  17  18
BRANCH  17  20
ATOM     20  C   LIG    1       31.316 -20.638   8.647  0.00  0.00    +0.081 C 
ATOM     21  C   LIG    1       31.020 -21.957   9.365  0.00  0.00    +0.020 C 
ENDBRANCH  17  20
ENDBRANCH  16  17
ENDBRANCH  15  16
ENDBRANCH  12  15
ENDBRANCH   8  11
BRANCH   1  22
ATOM     22  O   LIG    1       22.806 -19.927   6.292  0.00  0.00    -0.476 OA
BRANCH  22  23
ATOM     23  C   LIG    1       22.192 -19.824   4.997  0.00  0.00    +0.231 C 
BRANCH  23  24
ATOM     24  C   LIG    1       22.918 -18.752   4.179  0.00  0.00    +0.041 C 
BRANCH  24  26
ATOM     25  C   LIG    1       25.380 -18.538   3.521  0.00  0.00    +0.004 C 
ATOM     26  C   LIG    1       24.077 -19.306   3.343  0.00  0.00    +0.000 C 
ENDBRANCH  24  26
ENDBRANCH  23  24
ENDBRANCH  22  23
ENDBRANCH   1  22
TORSDOF 10
ENDMDL
MODEL 2
REMARK VINA RESULT:      -8.1      1.722      4.698
REMARK  Name = *****
REMARK                            x       y       z     vdW  Elec       q    Type
REMARK                         _______ _______ _______ _____ _____    ______ ____
ROOT
ATOM      1  C   LIG    1       25.593 -23.211   6.650  0.00  0.00    +0.216 A 
ATOM      2  N   LIG    1       24.782 -22.884   5.633  0.00  0.00    -0.213 NA
ATOM      3  C   LIG    1       24.904 -21.685   5.066  0.00  0.00    +0.075 A 
ATOM      4  C   LIG    1       25.840 -20.706   5.483  0.00  0.00    +0.013 A 
ATOM      5  C   LIG    1       25.879 -19.492   4.742  0.00  0.00    +0.011 A 
ATOM      6  C   LIG    1       25.001 -19.244   3.684  0.00  0.00    +0.001 A 
ATOM      7  C   LIG    1       24.091 -20.216   3.305  0.00  0.00    +0.002 A 
ATOM      8  C   LIG    1       26.669 -21.069   6.584  0.00  0.00    +0.051 A 
ATOM      9  C   LIG    1       24.060 -21.425   3.996  0.00  0.00    +0.028 A 
ATOM     10  C   LIG    1       26.531 -22.340   7.169  0.00  0.00    +0.081 A 
ENDROOT
BRANCH   8  11
ATOM     11  C   LIG    1       27.771 -20.225   7.159  0.00  0.00    +0.245 C 
ATOM     12  N   LIG    1       28.675 -19.629   6.303  0.00  0.00    -0.310 N 
ATOM     13  H   LIG    1       28.529 -19.672   5.306  0.00  0.00    +0.149 HD
ATOM     14  O   LIG    1       27.805 -20.038   8.374  0.00  0.00    -0.270 OA
BRANCH  12  15
ATOM     15  C   LIG    1       29.744 -18.761   6.785  0.00  0.00    +0.120 C 
BRANCH  15  16
ATOM     16  C   LIG    1       31.129 -19.438   6.959  0.00  0.00    +0.103 C 
BRANCH  16  17
ATOM     17  N   LIG    1       31.817 -19.270   8.267  0.00  0.00    -0.301 NA
BRANCH  17  18
ATOM     18  C   LIG    1       31.228 -20.180   9.277  0.00  0.00    +0.081 C 
ATOM     19  C   LIG    1       31.055 -21.648   8.882  0.00  0.00    +0.020 C 
ENDBRANCH  17  18
BRANCH  17  20
ATOM     20  C   LIG    1       31.852 -17.862   8.699  0.00  0.00    +0.081 C 
ATOM     21  C   LIG    1       31.194 -17.586  10.053  0.00  0.00    +0.020 C 
ENDBRANCH  17  20
ENDBRANCH  16  17
ENDBRANCH  15  16
ENDBRANCH  12  15
ENDBRANCH   8  11
BRANCH   1  22
ATOM     22  O   LIG    1       25.516 -24.476   7.208  0.00  0.00    -0.476 OA
BRANCH  22  23
ATOM     23  C   LIG    1       25.671 -25.523   6.237  0.00  0.00    +0.231 C 
BRANCH  23  24
ATOM     24  C   LIG    1       24.346 -26.280   6.097  0.00  0.00    +0.041 C 
BRANCH  24  26
ATOM     25  C   LIG    1       24.914 -28.596   5.173  0.00  0.00    +0.004 C 
ATOM     26  C   LIG    1       24.471 -27.781   6.381  0.00  0.00    +0.000 C 
ENDBRANCH  24  26
ENDBRANCH  23  24
ENDBRANCH  22  23
ENDBRANCH   1  22
TORSDOF 10
ENDMDL
MODEL 3
REMARK VINA RESULT:      -7.7      2.041      6.530
REMARK  Name = *****
REMARK                            x       y       z     vdW  Elec       q    Type
REMARK                         _______ _______ _______ _____ _____    ______ ____
ROOT
ATOM      1  C   LIG    1       26.650 -19.606   4.964  0.00  0.00    +0.216 A 
ATOM      2  N   LIG    1       27.865 -19.096   5.218  0.00  0.00    -0.213 NA
ATOM      3  C   LIG    1       28.621 -19.662   6.157  0.00  0.00    +0.075 A 
ATOM      4  C   LIG    1       28.217 -20.776   6.932  0.00  0.00    +0.013 A 
ATOM      5  C   LIG    1       29.161 -21.294   7.863  0.00  0.00    +0.011 A 
ATOM      6  C   LIG    1       30.414 -20.705   8.049  0.00  0.00    +0.001 A 
ATOM      7  C   LIG    1       30.778 -19.611   7.282  0.00  0.00    +0.002 A 
ATOM      8  C   LIG    1       26.910 -21.278   6.663  0.00  0.00    +0.051 A 
ATOM      9  C   LIG    1       29.881 -19.109   6.343  0.00  0.00    +0.028 A 
ATOM     10  C   LIG    1       26.125 -20.673   5.665  0.00  0.00    +0.081 A 
ENDROOT
BRANCH   8  11
ATOM     11  C   LIG    1       26.290 -22.483   7.311  0.00  0.00    +0.245 C 
ATOM     12  N   LIG    1       25.975 -23.576   6.528  0.00  0.00    -0.310 N 
ATOM     13  H   LIG    1       26.258 -23.603   5.562  0.00  0.00    +0.149 HD
ATOM     14  O   LIG    1       26.133 -22.489   8.531  0.00  0.00    -0.270 OA
BRANCH  12  15
ATOM     15  C   LIG    1       25.411 -24.798   7.094  0.00  0.00    +0.120 C 
BRANCH  15  16
ATOM     16  C   LIG    1       24.192 -25.386   6.336  0.00  0.00    +0.103 C 
BRANCH  16  17
ATOM     17  N   LIG    1       24.407 -26.629   5.548  0.00  0.00    -0.301 NA
BRANCH  17  18
ATOM     18  C   LIG    1       24.578 -27.788   6.455  0.00  0.00    +0.081 C 
ATOM     19  C   LIG    1       24.063 -29.143   5.964  0.00  0.00    +0.020 C 
ENDBRANCH  17  18
BRANCH  17  20
ATOM     20  C   LIG    1       25.501 -26.486   4.572  0.00  0.00    +0.081 C 
ATOM     21  C   LIG    1       26.804 -27.191   4.955  0.00  0.00    +0.020 C 
ENDBRANCH  17  20
ENDBRANCH  16  17
ENDBRANCH  15  16
ENDBRANCH  12  15
ENDBRANCH   8  11
BRANCH   1  22
ATOM     22  O   LIG    1       25.879 -19.064   3.950  0.00  0.00    -0.476 OA
BRANCH  22  23
ATOM     23  C   LIG    1       24.686 -19.823   3.692  0.00  0.00    +0.231 C 
BRANCH  23  24
ATOM     24  C   LIG    1       23.475 -18.885   3.731  0.00  0.00    +0.041 C 
BRANCH  24  26
ATOM     25  C   LIG    1       22.420 -20.721   5.165  0.00  0.00    +0.004 C 
ATOM     26  C   LIG    1       22.471 -19.235   4.835  0.00  0.00    +0.000 C 
ENDBRANCH  24  26
ENDBRANCH  23  24
ENDBRANCH  22  23
ENDBRANCH   1  22
TORSDOF 10
ENDMDL
MODEL 4
REMARK VINA RESULT:      -7.7      1.590      4.242
REMARK  Name = *****
REMARK                            x       y       z     vdW  Elec       q    Type
REMARK                         _______ _______ _______ _____ _____    ______ ____
ROOT
ATOM      1  C   LIG    1       25.339 -22.986   6.437  0.00  0.00    +0.216 A 
ATOM      2  N   LIG    1       24.560 -22.603   5.413  0.00  0.00    -0.213 NA
ATOM      3  C   LIG    1       24.770 -21.415   4.849  0.00  0.00    +0.075 A 
ATOM      4  C   LIG    1       25.767 -20.504   5.274  0.00  0.00    +0.013 A 
ATOM      5  C   LIG    1       25.895 -19.294   4.535  0.00  0.00    +0.011 A 
ATOM      6  C   LIG    1       25.046 -18.986   3.469  0.00  0.00    +0.001 A 
ATOM      7  C   LIG    1       24.075 -19.894   3.082  0.00  0.00    +0.002 A 
ATOM      8  C   LIG    1       26.560 -20.923   6.382  0.00  0.00    +0.051 A 
ATOM      9  C   LIG    1       23.955 -21.097   3.772  0.00  0.00    +0.028 A 
ATOM     10  C   LIG    1       26.329 -22.182   6.964  0.00  0.00    +0.081 A 
ENDROOT
BRANCH   8  11
ATOM     11  C   LIG    1       27.712 -20.157   6.967  0.00  0.00    +0.245 C 
ATOM     12  N   LIG    1       28.650 -19.604   6.118  0.00  0.00    -0.310 N 
ATOM     13  H   LIG    1       28.500 -19.623   5.121  0.00  0.00    +0.149 HD
ATOM     14  O   LIG    1       27.760 -19.992   8.185  0.00  0.00    -0.270 OA
BRANCH  12  15
ATOM     15  C   LIG    1       29.771 -18.812   6.611  0.00  0.00    +0.120 C 
BRANCH  15  16
ATOM     16  C   LIG    1       30.919 -19.616   7.276  0.00  0.00    +0.103 C 
BRANCH  16  17
ATOM     17  N   LIG    1       30.952 -19.666   8.762  0.00  0.00    -0.301 NA
BRANCH  17  18
ATOM     18  C   LIG    1       31.525 -18.412   9.305  0.00  0.00    +0.081 C 
ATOM     19  C   LIG    1       30.868 -17.825  10.555  0.00  0.00    +0.020 C 
ENDBRANCH  17  18
BRANCH  17  20
ATOM     20  C   LIG    1       31.621 -20.879   9.263  0.00  0.00    +0.081 C 
ATOM     21  C   LIG    1       30.803 -22.166   9.139  0.00  0.00    +0.020 C 
ENDBRANCH  17  20
ENDBRANCH  16  17
ENDBRANCH  15  16
ENDBRANCH  12  15
ENDBRANCH   8  11
BRANCH   1  22
ATOM     22  O   LIG    1       25.170 -24.243   6.992  0.00  0.00    -0.476 OA
BRANCH  22  23
ATOM     23  C   LIG    1       23.931 -24.860   6.607  0.00  0.00    +0.231 C 
BRANCH  23  24
ATOM     24  C   LIG    1       24.221 -26.242   6.011  0.00  0.00    +0.041 C 
BRANCH  24  26
ATOM     25  C   LIG    1       26.352 -27.118   4.901  0.00  0.00    +0.004 C 
ATOM     26  C   LIG    1       25.675 -26.691   6.196  0.00  0.00    +0.000 C 
ENDBRANCH  24  26
ENDBRANCH  23  24
ENDBRANCH  22  23
ENDBRANCH   1  22
TORSDOF 10
ENDMDL
MODEL 5
REMARK VINA RESULT:      -7.6      1.894      4.764
REMARK  Name = *****
REMARK                            x       y       z     vdW  Elec       q    Type
REMARK                         _______ _______ _______ _____ _____    ______ ____
ROOT
ATOM      1  C   LIG    1       24.717 -23.643   6.496  0.00  0.00    +0.216 A 
ATOM      2  N   LIG    1       24.232 -23.055   5.393  0.00  0.00    -0.213 NA
ATOM      3  C   LIG    1       24.697 -21.858   5.037  0.00  0.00    +0.075 A 
ATOM      4  C   LIG    1       25.678 -21.144   5.768  0.00  0.00    +0.013 A 
ATOM      5  C   LIG    1       26.105 -19.898   5.229  0.00  0.00    +0.011 A 
ATOM      6  C   LIG    1       25.551 -19.369   4.061  0.00  0.00    +0.001 A 
ATOM      7  C   LIG    1       24.588 -20.087   3.373  0.00  0.00    +0.002 A 
ATOM      8  C   LIG    1       26.155 -21.778   6.952  0.00  0.00    +0.051 A 
ATOM      9  C   LIG    1       24.180 -21.324   3.866  0.00  0.00    +0.028 A 
ATOM     10  C   LIG    1       25.656 -23.043   7.311  0.00  0.00    +0.081 A 
ENDROOT
BRANCH   8  11
ATOM     11  C   LIG    1       27.233 -21.245   7.851  0.00  0.00    +0.245 C 
ATOM     12  N   LIG    1       28.545 -21.601   7.609  0.00  0.00    -0.310 N 
ATOM     13  H   LIG    1       28.781 -22.120   6.778  0.00  0.00    +0.149 HD
ATOM     14  O   LIG    1       26.928 -20.457   8.745  0.00  0.00    -0.270 OA
BRANCH  12  15
ATOM     15  C   LIG    1       29.649 -21.088   8.413  0.00  0.00    +0.120 C 
BRANCH  15  16
ATOM     16  C   LIG    1       30.824 -20.463   7.615  0.00  0.00    +0.103 C 
BRANCH  16  17
ATOM     17  N   LIG    1       30.971 -18.984   7.654  0.00  0.00    -0.301 NA
BRANCH  17  18
ATOM     18  C   LIG    1       31.390 -18.545   9.005  0.00  0.00    +0.081 C 
ATOM     19  C   LIG    1       30.383 -17.731   9.821  0.00  0.00    +0.020 C 
ENDBRANCH  17  18
BRANCH  17  20
ATOM     20  C   LIG    1       29.767 -18.292   7.163  0.00  0.00    +0.081 C 
ATOM     21  C   LIG    1       29.433 -18.543   5.691  0.00  0.00    +0.020 C 
ENDBRANCH  17  20
ENDBRANCH  16  17
ENDBRANCH  15  16
ENDBRANCH  12  15
ENDBRANCH   8  11
BRANCH   1  22
ATOM     22  O   LIG    1       24.285 -24.912   6.843  0.00  0.00    -0.476 OA
BRANCH  22  23
ATOM     23  C   LIG    1       24.320 -25.832   5.740  0.00  0.00    +0.231 C 
BRANCH  23  24
ATOM     24  C   LIG    1       24.570 -27.247   6.273  0.00  0.00    +0.041 C 
BRANCH  24  26
ATOM     25  C   LIG    1       24.941 -29.701   5.659  0.00  0.00    +0.004 C 
ATOM     26  C   LIG    1       24.477 -28.328   5.191  0.00  0.00    +0.000 C 
ENDBRANCH  24  26
ENDBRANCH  23  24
ENDBRANCH  22  23
ENDBRANCH   1  22
TORSDOF 10
ENDMDL
MODEL 6
REMARK VINA RESULT:      -7.6      2.771      7.323
REMARK  Name = *****
REMARK                            x       y       z     vdW  Elec       q    Type
REMARK                         _______ _______ _______ _____ _____    ______ ____
ROOT
ATOM      1  C   LIG    1       27.031 -21.529   7.312  0.00  0.00    +0.216 A 
ATOM      2  N   LIG    1       26.832 -20.530   6.439  0.00  0.00    -0.213 NA
ATOM      3  C   LIG    1       25.893 -20.664   5.504  0.00  0.00    +0.075 A 
ATOM      4  C   LIG    1       25.085 -21.817   5.356  0.00  0.00    +0.013 A 
ATOM      5  C   LIG    1       24.092 -21.785   4.336  0.00  0.00    +0.011 A 
ATOM      6  C   LIG    1       23.947 -20.690   3.480  0.00  0.00    +0.001 A 
ATOM      7  C   LIG    1       24.758 -19.580   3.645  0.00  0.00    +0.002 A 
ATOM      8  C   LIG    1       25.337 -22.876   6.277  0.00  0.00    +0.051 A 
ATOM      9  C   LIG    1       25.714 -19.579   4.657  0.00  0.00    +0.028 A 
ATOM     10  C   LIG    1       26.329 -22.717   7.261  0.00  0.00    +0.081 A 
ENDROOT
BRANCH   8  11
ATOM     11  C   LIG    1       24.570 -24.164   6.354  0.00  0.00    +0.245 C 
ATOM     12  N   LIG    1       25.166 -25.327   5.908  0.00  0.00    -0.310 N 
ATOM     13  H   LIG    1       26.137 -25.325   5.639  0.00  0.00    +0.149 HD
ATOM     14  O   LIG    1       23.452 -24.162   6.867  0.00  0.00    -0.270 OA
BRANCH  12  15
ATOM     15  C   LIG    1       24.499 -26.622   5.992  0.00  0.00    +0.120 C 
BRANCH  15  16
ATOM     16  C   LIG    1       25.227 -27.697   6.841  0.00  0.00    +0.103 C 
BRANCH  16  17
ATOM     17  N   LIG    1       24.481 -28.944   7.158  0.00  0.00    -0.301 NA
BRANCH  17  18
ATOM     18  C   LIG    1       25.159 -29.684   8.247  0.00  0.00    +0.081 C 
ATOM     19  C   LIG    1       26.193 -28.920   9.077  0.00  0.00    +0.020 C 
ENDBRANCH  17  18
BRANCH  17  20
ATOM     20  C   LIG    1       24.236 -29.765   5.959  0.00  0.00    +0.081 C 
ATOM     21  C   LIG    1       25.439 -30.577   5.476  0.00  0.00    +0.020 C 
ENDBRANCH  17  20
ENDBRANCH  16  17
ENDBRANCH  15  16
ENDBRANCH  12  15
ENDBRANCH   8  11
BRANCH   1  22
ATOM     22  O   LIG    1       27.962 -21.378   8.325  0.00  0.00    -0.476 OA
BRANCH  22  23
ATOM     23  C   LIG    1       29.302 -21.218   7.830  0.00  0.00    +0.231 C 
BRANCH  23  24
ATOM     24  C   LIG    1       29.723 -19.753   7.984  0.00  0.00    +0.041 C 
BRANCH  24  26
ATOM     25  C   LIG    1       29.512 -18.497   5.767  0.00  0.00    +0.004 C 
ATOM     26  C   LIG    1       30.441 -19.194   6.751  0.00  0.00    +0.000 C 
ENDBRANCH  24  26
ENDBRANCH  23  24
ENDBRANCH  22  23
ENDBRANCH   1  22
TORSDOF 10
ENDMDL
MODEL 7
REMARK VINA RESULT:      -7.4      0.861      1.607
REMARK  Name = *****
REMARK                            x       y       z     vdW  Elec       q    Type
REMARK                         _______ _______ _______ _____ _____    ______ ____
ROOT
ATOM      1  C   LIG    1       23.163 -21.351   6.206  0.00  0.00    +0.216 A 
ATOM      2  N   LIG    1       22.964 -22.661   5.991  0.00  0.00    -0.213 NA
ATOM      3  C   LIG    1       23.932 -23.523   6.299  0.00  0.00    +0.075 A 
ATOM      4  C   LIG    1       25.188 -23.142   6.831  0.00  0.00    +0.013 A 
ATOM      5  C   LIG    1       26.098 -24.189   7.152  0.00  0.00    +0.011 A 
ATOM      6  C   LIG    1       25.797 -25.531   6.907  0.00  0.00    +0.001 A 
ATOM      7  C   LIG    1       24.563 -25.871   6.377  0.00  0.00    +0.002 A 
ATOM      8  C   LIG    1       25.385 -21.743   7.020  0.00  0.00    +0.051 A 
ATOM      9  C   LIG    1       23.646 -24.864   6.088  0.00  0.00    +0.028 A 
ATOM     10  C   LIG    1       24.351 -20.847   6.696  0.00  0.00    +0.081 A 
ENDROOT
BRANCH   8  11
ATOM     11  C   LIG    1       26.604 -21.110   7.626  0.00  0.00    +0.245 C 
ATOM     12  N   LIG    1       27.414 -20.321   6.833  0.00  0.00    -0.310 N 
ATOM     13  H   LIG    1       27.128 -20.088   5.895  0.00  0.00    +0.149 HD
ATOM     14  O   LIG    1       26.820 -21.261   8.827  0.00  0.00    -0.270 OA
BRANCH  12  15
ATOM     15  C   LIG    1       28.590 -19.638   7.362  0.00  0.00    +0.120 C 
BRANCH  15  16
ATOM     16  C   LIG    1       29.933 -20.396   7.201  0.00  0.00    +0.103 C 
BRANCH  16  17
ATOM     17  N   LIG    1       31.141 -19.797   7.829  0.00  0.00    -0.301 NA
BRANCH  17  18
ATOM     18  C   LIG    1       31.589 -20.627   8.972  0.00  0.00    +0.081 C 
ATOM     19  C   LIG    1       30.847 -21.942   9.218  0.00  0.00    +0.020 C 
ENDBRANCH  17  18
BRANCH  17  20
ATOM     20  C   LIG    1       30.940 -18.381   8.180  0.00  0.00    +0.081 C 
ATOM     21  C   LIG    1       32.006 -17.787   9.103  0.00  0.00    +0.020 C 
ENDBRANCH  17  20
ENDBRANCH  16  17
ENDBRANCH  15  16
ENDBRANCH  12  15
ENDBRANCH   8  11
BRANCH   1  22
ATOM     22  O   LIG    1       22.144 -20.452   5.947  0.00  0.00    -0.476 OA
BRANCH  22  23
ATOM     23  C   LIG    1       22.622 -19.203   5.422  0.00  0.00    +0.231 C 
BRANCH  23  24
ATOM     24  C   LIG    1       23.045 -19.399   3.963  0.00  0.00    +0.041 C 
BRANCH  24  26
ATOM     25  C   LIG    1       25.595 -19.308   3.794  0.00  0.00    +0.004 C 
ATOM     26  C   LIG    1       24.278 -18.577   3.572  0.00  0.00    +0.000 C 
ENDBRANCH  24  26
ENDBRANCH  23  24
ENDBRANCH  22  23
ENDBRANCH   1  22
TORSDOF 10
ENDMDL
MODEL 8
REMARK VINA RESULT:      -7.1      2.138      3.300
REMARK  Name = *****
REMARK                            x       y       z     vdW  Elec       q    Type
REMARK                         _______ _______ _______ _____ _____    ______ ____
ROOT
ATOM      1  C   LIG    1       25.818 -19.498   4.280  0.00  0.00    +0.216 A 
ATOM      2  N   LIG    1       24.582 -20.017   4.236  0.00  0.00    -0.213 NA
ATOM      3  C   LIG    1       24.170 -20.796   5.235  0.00  0.00    +0.075 A 
ATOM      4  C   LIG    1       24.969 -21.132   6.355  0.00  0.00    +0.013 A 
ATOM      5  C   LIG    1       24.365 -21.936   7.362  0.00  0.00    +0.011 A 
ATOM      6  C   LIG    1       23.061 -22.421   7.237  0.00  0.00    +0.001 A 
ATOM      7  C   LIG    1       22.307 -22.082   6.126  0.00  0.00    +0.002 A 
ATOM      8  C   LIG    1       26.288 -20.592   6.361  0.00  0.00    +0.051 A 
ATOM      9  C   LIG    1       22.868 -21.269   5.145  0.00  0.00    +0.028 A 
ATOM     10  C   LIG    1       26.706 -19.768   5.301  0.00  0.00    +0.081 A 
ENDROOT
BRANCH   8  11
ATOM     11  C   LIG    1       27.291 -20.758   7.467  0.00  0.00    +0.245 C 
ATOM     12  N   LIG    1       28.483 -21.402   7.198  0.00  0.00    -0.310 N 
ATOM     13  H   LIG    1       28.718 -21.655   6.252  0.00  0.00    +0.149 HD
ATOM     14  O   LIG    1       27.052 -20.266   8.568  0.00  0.00    -0.270 OA
BRANCH  12  15
ATOM     15  C   LIG    1       29.523 -21.562   8.210  0.00  0.00    +0.120 C 
BRANCH  15  16
ATOM     16  C   LIG    1       30.596 -20.442   8.251  0.00  0.00    +0.103 C 
BRANCH  16  17
ATOM     17  N   LIG    1       30.178 -19.108   8.759  0.00  0.00    -0.301 NA
BRANCH  17  18
ATOM     18  C   LIG    1       29.912 -18.189   7.628  0.00  0.00    +0.081 C 
ATOM     19  C   LIG    1       30.227 -18.699   6.221  0.00  0.00    +0.020 C 
ENDBRANCH  17  18
BRANCH  17  20
ATOM     20  C   LIG    1       31.131 -18.564   9.742  0.00  0.00    +0.081 C 
ATOM     21  C   LIG    1       30.576 -17.448  10.629  0.00  0.00    +0.020 C 
ENDBRANCH  17  20
ENDBRANCH  16  17
ENDBRANCH  15  16
ENDBRANCH  12  15
ENDBRANCH   8  11
BRANCH   1  22
ATOM     22  O   LIG    1       26.236 -18.639   3.278  0.00  0.00    -0.476 OA
BRANCH  22  23
ATOM     23  C   LIG    1       25.594 -17.355   3.340  0.00  0.00    +0.231 C 
BRANCH  23  24
ATOM     24  C   LIG    1       26.663 -16.261   3.427  0.00  0.00    +0.041 C 
BRANCH  24  26
ATOM     25  C   LIG    1       26.550 -13.923   4.456  0.00  0.00    +0.004 C 
ATOM     26  C   LIG    1       26.090 -14.843   3.333  0.00  0.00    +0.000 C 
ENDBRANCH  24  26
ENDBRANCH  23  24
ENDBRANCH  22  23
ENDBRANCH   1  22
TORSDOF 10
ENDMDL
MODEL 9
REMARK VINA RESULT:      -6.9      1.891      6.927
REMARK  Name = *****
REMARK                            x       y       z     vdW  Elec       q    Type
REMARK                         _______ _______ _______ _____ _____    ______ ____
ROOT
ATOM      1  C   LIG    1       27.384 -21.747   8.029  0.00  0.00    +0.216 A 
ATOM      2  N   LIG    1       28.606 -21.585   8.559  0.00  0.00    -0.213 NA
ATOM      3  C   LIG    1       29.450 -20.725   7.991  0.00  0.00    +0.075 A 
ATOM      4  C   LIG    1       29.145 -19.968   6.833  0.00  0.00    +0.013 A 
ATOM      5  C   LIG    1       30.139 -19.056   6.377  0.00  0.00    +0.011 A 
ATOM      6  C   LIG    1       31.382 -18.944   7.004  0.00  0.00    +0.001 A 
ATOM      7  C   LIG    1       31.654 -19.704   8.129  0.00  0.00    +0.002 A 
ATOM      8  C   LIG    1       27.852 -20.181   6.273  0.00  0.00    +0.051 A 
ATOM      9  C   LIG    1       30.683 -20.578   8.611  0.00  0.00    +0.028 A 
ATOM     10  C   LIG    1       26.971 -21.089   6.888  0.00  0.00    +0.081 A 
ENDROOT
BRANCH   8  11
ATOM     11  C   LIG    1       27.284 -19.451   5.090  0.00  0.00    +0.245 C 
ATOM     12  N   LIG    1       26.112 -19.908   4.521  0.00  0.00    -0.310 N 
ATOM     13  H   LIG    1       25.593 -20.650   4.961  0.00  0.00    +0.149 HD
ATOM     14  O   LIG    1       27.845 -18.431   4.695  0.00  0.00    -0.270 OA
BRANCH  12  15
ATOM     15  C   LIG    1       25.478 -19.225   3.398  0.00  0.00    +0.120 C 
BRANCH  15  16
ATOM     16  C   LIG    1       23.936 -19.369   3.310  0.00  0.00    +0.103 C 
BRANCH  16  17
ATOM     17  N   LIG    1       23.151 -19.123   4.549  0.00  0.00    -0.301 NA
BRANCH  17  18
ATOM     18  C   LIG    1       22.766 -20.410   5.175  0.00  0.00    +0.081 C 
ATOM     19  C   LIG    1       23.176 -20.631   6.632  0.00  0.00    +0.020 C 
ENDBRANCH  17  18
BRANCH  17  20
ATOM     20  C   LIG    1       22.009 -18.223   4.314  0.00  0.00    +0.081 C 
ATOM     21  C   LIG    1       22.232 -16.772   4.746  0.00  0.00    +0.020 C 
ENDBRANCH  17  20
ENDBRANCH  16  17
ENDBRANCH  15  16
ENDBRANCH  12  15
ENDBRANCH   8  11
BRANCH   1  22
ATOM     22  O   LIG    1       26.477 -22.592   8.645  0.00  0.00    -0.476 OA
BRANCH  22  23
ATOM     23  C   LIG    1       25.410 -22.996   7.772  0.00  0.00    +0.231 C 
BRANCH  23  24
ATOM     24  C   LIG    1       25.784 -24.321   7.100  0.00  0.00    +0.041 C 
BRANCH  24  26
ATOM     25  C   LIG    1       23.271 -24.331   6.631  0.00  0.00    +0.004 C 
ATOM     26  C   LIG    1       24.624 -24.961   6.330  0.00  0.00    +0.000 C 
ENDBRANCH  24  26
ENDBRANCH  23  24
ENDBRANCH  22  23
ENDBRANCH   1  22
TORSDOF 10
ENDMDL
