MODEL 1
REMARK VINA RESULT:      -7.1      0.000      0.000
REMARK  Name = *****
REMARK                            x       y       z     vdW  Elec       q    Type
REMARK                         _______ _______ _______ _____ _____    ______ ____
ROOT
ATOM      1  C   LIG    1       27.831 -20.549   6.798  0.00  0.00    +0.139 A 
ATOM      2  C   LIG    1       26.866 -20.591   5.794  0.00  0.00    +0.118 A 
ATOM      3  C   LIG    1       25.508 -20.580   6.115  0.00  0.00    +0.149 A 
ATOM      4  C   LIG    1       25.146 -20.603   7.471  0.00  0.00    +0.072 A 
ATOM      5  C   LIG    1       26.120 -20.639   8.476  0.00  0.00    +0.010 A 
ATOM      6  C   LIG    1       27.469 -20.615   8.142  0.00  0.00    +0.047 A 
ENDROOT
BRANCH   3   7
ATOM      7  N   LIG    1       24.485 -20.541   4.994  0.00  0.00    -0.383 NA
ATOM      8  C   LIG    1       24.968 -19.577   3.908  0.00  0.00    +0.361 C 
ATOM      9  C   LIG    1       24.325 -21.945   4.421  0.00  0.00    +0.361 C 
ATOM     10  C   LIG    1       23.131 -20.056   5.489  0.00  0.00    +0.361 C 
ENDBRANCH   3   7
BRANCH   1  11
ATOM     11  O   LIG    1       29.208 -20.467   6.513  0.00  0.00    -0.411 OA
BRANCH  11  14
ATOM     12  C   LIG    1       31.002 -20.779   8.501  0.00  0.00    +0.135 C 
ATOM     13  N   LIG    1       30.965 -19.554   7.723  0.00  0.00    -0.273 N 
ATOM     14  C   LIG    1       29.942 -19.309   6.820  0.00  0.00    +0.408 C 
ATOM     15  O   LIG    1       29.706 -18.205   6.347  0.00  0.00    -0.226 OA
ATOM     16  C   LIG    1       31.711 -18.422   8.243  0.00  0.00    +0.135 C 
ENDBRANCH  11  14
ENDBRANCH   1  11
TORSDOF 3
ENDMDL
MODEL 2
REMARK VINA RESULT:      -6.6      4.843      6.903
REMARK  Name = *****
REMARK                            x       y       z     vdW  Elec       q    Type
REMARK                         _______ _______ _______ _____ _____    ______ ____
ROOT
ATOM      1  C   LIG    1       25.349 -24.991   6.772  0.00  0.00    +0.139 A 
ATOM      2  C   LIG    1       26.079 -23.808   6.882  0.00  0.00    +0.118 A 
ATOM      3  C   LIG    1       25.426 -22.576   6.940  0.00  0.00    +0.149 A 
ATOM      4  C   LIG    1       24.028 -22.559   6.810  0.00  0.00    +0.072 A 
ATOM      5  C   LIG    1       23.307 -23.743   6.623  0.00  0.00    +0.010 A 
ATOM      6  C   LIG    1       23.967 -24.967   6.601  0.00  0.00    +0.047 A 
ENDROOT
BRANCH   3   7
ATOM      7  N   LIG    1       26.247 -21.316   7.145  0.00  0.00    -0.383 NA
ATOM      8  C   LIG    1       26.113 -20.424   5.908  0.00  0.00    +0.361 C 
ATOM      9  C   LIG    1       25.733 -20.586   8.381  0.00  0.00    +0.361 C 
ATOM     10  C   LIG    1       27.721 -21.635   7.341  0.00  0.00    +0.361 C 
ENDBRANCH   3   7
BRANCH   1  11
ATOM     11  O   LIG    1       25.964 -26.258   6.801  0.00  0.00    -0.411 OA
BRANCH  11  14
ATOM     12  C   LIG    1       25.131 -28.732   7.475  0.00  0.00    +0.135 C 
ATOM     13  N   LIG    1       25.254 -28.346   6.081  0.00  0.00    -0.273 N 
ATOM     14  C   LIG    1       25.844 -27.145   5.718  0.00  0.00    +0.408 C 
ATOM     15  O   LIG    1       26.220 -26.891   4.582  0.00  0.00    -0.226 OA
ATOM     16  C   LIG    1       25.201 -29.412   5.097  0.00  0.00    +0.135 C 
ENDBRANCH  11  14
ENDBRANCH   1  11
TORSDOF 3
ENDMDL
MODEL 3
REMARK VINA RESULT:      -6.6      1.139      1.817
REMARK  Name = *****
REMARK                            x       y       z     vdW  Elec       q    Type
REMARK                         _______ _______ _______ _____ _____    ______ ____
ROOT
ATOM      1  C   LIG    1       27.243 -20.857   6.800  0.00  0.00    +0.139 A 
ATOM      2  C   LIG    1       26.377 -20.659   5.725  0.00  0.00    +0.118 A 
ATOM      3  C   LIG    1       25.003 -20.531   5.936  0.00  0.00    +0.149 A 
ATOM      4  C   LIG    1       24.515 -20.682   7.243  0.00  0.00    +0.072 A 
ATOM      5  C   LIG    1       25.381 -20.958   8.308  0.00  0.00    +0.010 A 
ATOM      6  C   LIG    1       26.750 -21.050   8.089  0.00  0.00    +0.047 A 
ENDROOT
BRANCH   3   7
ATOM      7  N   LIG    1       24.101 -20.231   4.753  0.00  0.00    -0.383 NA
ATOM      8  C   LIG    1       23.941 -21.498   3.910  0.00  0.00    +0.361 C 
ATOM      9  C   LIG    1       22.745 -19.765   5.271  0.00  0.00    +0.361 C 
ATOM     10  C   LIG    1       24.686 -19.143   3.865  0.00  0.00    +0.361 C 
ENDBRANCH   3   7
BRANCH   1  11
ATOM     11  O   LIG    1       28.641 -20.901   6.639  0.00  0.00    -0.411 OA
BRANCH  11  14
ATOM     12  C   LIG    1       29.595 -18.472   5.961  0.00  0.00    +0.135 C 
ATOM     13  N   LIG    1       29.827 -19.015   7.287  0.00  0.00    -0.273 N 
ATOM     14  C   LIG    1       29.497 -20.326   7.594  0.00  0.00    +0.408 C 
ATOM     15  O   LIG    1       29.909 -20.915   8.585  0.00  0.00    -0.226 OA
ATOM     16  C   LIG    1       30.820 -18.345   8.107  0.00  0.00    +0.135 C 
ENDBRANCH  11  14
ENDBRANCH   1  11
TORSDOF 3
ENDMDL
MODEL 4
REMARK VINA RESULT:      -6.5      2.135      2.668
REMARK  Name = *****
REMARK                            x       y       z     vdW  Elec       q    Type
REMARK                         _______ _______ _______ _____ _____    ______ ____
ROOT
ATOM      1  C   LIG    1       27.509 -21.458   7.304  0.00  0.00    +0.139 A 
ATOM      2  C   LIG    1       26.834 -22.576   6.818  0.00  0.00    +0.118 A 
ATOM      3  C   LIG    1       25.460 -22.718   7.019  0.00  0.00    +0.149 A 
ATOM      4  C   LIG    1       24.797 -21.745   7.784  0.00  0.00    +0.072 A 
ATOM      5  C   LIG    1       25.494 -20.664   8.336  0.00  0.00    +0.010 A 
ATOM      6  C   LIG    1       26.856 -20.518   8.099  0.00  0.00    +0.047 A 
ENDROOT
BRANCH   3   7
ATOM      7  N   LIG    1       24.743 -23.905   6.402  0.00  0.00    -0.383 NA
ATOM      8  C   LIG    1       24.830 -23.808   4.878  0.00  0.00    +0.361 C 
ATOM      9  C   LIG    1       25.406 -25.190   6.889  0.00  0.00    +0.361 C 
ATOM     10  C   LIG    1       23.273 -23.935   6.791  0.00  0.00    +0.361 C 
ENDBRANCH   3   7
BRANCH   1  11
ATOM     11  O   LIG    1       28.874 -21.233   7.045  0.00  0.00    -0.411 OA
BRANCH  11  14
ATOM     12  C   LIG    1       30.267 -18.957   6.659  0.00  0.00    +0.135 C 
ATOM     13  N   LIG    1       30.332 -19.659   7.928  0.00  0.00    -0.273 N 
ATOM     14  C   LIG    1       29.765 -20.914   8.084  0.00  0.00    +0.408 C 
ATOM     15  O   LIG    1       30.017 -21.660   9.020  0.00  0.00    -0.226 OA
ATOM     16  C   LIG    1       31.381 -19.258   8.848  0.00  0.00    +0.135 C 
ENDBRANCH  11  14
ENDBRANCH   1  11
TORSDOF 3
ENDMDL
MODEL 5
REMARK VINA RESULT:      -6.5      1.732      2.563
REMARK  Name = *****
REMARK                            x       y       z     vdW  Elec       q    Type
REMARK                         _______ _______ _______ _____ _____    ______ ____
ROOT
ATOM      1  C   LIG    1       28.772 -20.069   7.566  0.00  0.00    +0.139 A 
ATOM      2  C   LIG    1       27.581 -20.783   7.689  0.00  0.00    +0.118 A 
ATOM      3  C   LIG    1       26.680 -20.846   6.625  0.00  0.00    +0.149 A 
ATOM      4  C   LIG    1       26.971 -20.112   5.464  0.00  0.00    +0.072 A 
ATOM      5  C   LIG    1       28.131 -19.334   5.375  0.00  0.00    +0.010 A 
ATOM      6  C   LIG    1       29.036 -19.308   6.429  0.00  0.00    +0.047 A 
ENDROOT
BRANCH   3   7
ATOM      7  N   LIG    1       25.434 -21.702   6.763  0.00  0.00    -0.383 NA
ATOM      8  C   LIG    1       24.854 -21.973   5.373  0.00  0.00    +0.361 C 
ATOM      9  C   LIG    1       25.809 -23.013   7.445  0.00  0.00    +0.361 C 
ATOM     10  C   LIG    1       24.367 -21.006   7.593  0.00  0.00    +0.361 C 
ENDBRANCH   3   7
BRANCH   1  11
ATOM     11  O   LIG    1       29.747 -20.055   8.582  0.00  0.00    -0.411 OA
BRANCH  11  14
ATOM     12  C   LIG    1       30.009 -17.698   9.863  0.00  0.00    +0.135 C 
ATOM     13  N   LIG    1       31.143 -18.306   9.192  0.00  0.00    -0.273 N 
ATOM     14  C   LIG    1       30.986 -19.423   8.386  0.00  0.00    +0.408 C 
ATOM     15  O   LIG    1       31.833 -19.809   7.591  0.00  0.00    -0.226 OA
ATOM     16  C   LIG    1       32.313 -17.470   8.990  0.00  0.00    +0.135 C 
ENDBRANCH  11  14
ENDBRANCH   1  11
TORSDOF 3
ENDMDL
MODEL 6
REMARK VINA RESULT:      -6.4      2.369      6.160
REMARK  Name = *****
REMARK                            x       y       z     vdW  Elec       q    Type
REMARK                         _______ _______ _______ _____ _____    ______ ____
ROOT
ATOM      1  C   LIG    1       26.742 -20.899   7.192  0.00  0.00    +0.139 A 
ATOM      2  C   LIG    1       27.978 -20.694   7.804  0.00  0.00    +0.118 A 
ATOM      3  C   LIG    1       28.953 -19.910   7.186  0.00  0.00    +0.149 A 
ATOM      4  C   LIG    1       28.683 -19.402   5.905  0.00  0.00    +0.072 A 
ATOM      5  C   LIG    1       27.470 -19.675   5.263  0.00  0.00    +0.010 A 
ATOM      6  C   LIG    1       26.494 -20.429   5.904  0.00  0.00    +0.047 A 
ENDROOT
BRANCH   3   7
ATOM      7  N   LIG    1       30.254 -19.639   7.919  0.00  0.00    -0.383 NA
ATOM      8  C   LIG    1       30.033 -18.516   8.934  0.00  0.00    +0.361 C 
ATOM      9  C   LIG    1       30.698 -20.914   8.628  0.00  0.00    +0.361 C 
ATOM     10  C   LIG    1       31.354 -19.203   6.963  0.00  0.00    +0.361 C 
ENDBRANCH   3   7
BRANCH   1  11
ATOM     11  O   LIG    1       25.700 -21.607   7.823  0.00  0.00    -0.411 OA
BRANCH  11  14
ATOM     12  C   LIG    1       23.068 -21.871   7.304  0.00  0.00    +0.135 C 
ATOM     13  N   LIG    1       23.999 -22.930   6.963  0.00  0.00    -0.273 N 
ATOM     14  C   LIG    1       25.322 -22.885   7.378  0.00  0.00    +0.408 C 
ATOM     15  O   LIG    1       26.070 -23.852   7.362  0.00  0.00    -0.226 OA
ATOM     16  C   LIG    1       23.430 -24.220   6.617  0.00  0.00    +0.135 C 
ENDBRANCH  11  14
ENDBRANCH   1  11
TORSDOF 3
ENDMDL
MODEL 7
REMARK VINA RESULT:      -6.4      3.426      4.501
REMARK  Name = *****
REMARK                            x       y       z     vdW  Elec       q    Type
REMARK                         _______ _______ _______ _____ _____    ______ ____
ROOT
ATOM      1  C   LIG    1       25.054 -22.216   6.712  0.00  0.00    +0.139 A 
ATOM      2  C   LIG    1       25.523 -23.489   6.392  0.00  0.00    +0.118 A 
ATOM      3  C   LIG    1       24.640 -24.567   6.299  0.00  0.00    +0.149 A 
ATOM      4  C   LIG    1       23.289 -24.347   6.611  0.00  0.00    +0.072 A 
ATOM      5  C   LIG    1       22.837 -23.083   7.007  0.00  0.00    +0.010 A 
ATOM      6  C   LIG    1       23.721 -22.011   7.062  0.00  0.00    +0.047 A 
ENDROOT
BRANCH   3   7
ATOM      7  N   LIG    1       25.173 -25.920   5.865  0.00  0.00    -0.383 NA
ATOM      8  C   LIG    1       25.342 -25.928   4.344  0.00  0.00    +0.361 C 
ATOM      9  C   LIG    1       26.514 -26.166   6.547  0.00  0.00    +0.361 C 
ATOM     10  C   LIG    1       24.219 -27.043   6.240  0.00  0.00    +0.361 C 
ENDBRANCH   3   7
BRANCH   1  11
ATOM     11  O   LIG    1       25.896 -21.087   6.727  0.00  0.00    -0.411 OA
BRANCH  11  14
ATOM     12  C   LIG    1       28.120 -19.921   5.744  0.00  0.00    +0.135 C 
ATOM     13  N   LIG    1       28.010 -20.232   7.158  0.00  0.00    -0.273 N 
ATOM     14  C   LIG    1       26.953 -20.986   7.647  0.00  0.00    +0.408 C 
ATOM     15  O   LIG    1       26.948 -21.505   8.755  0.00  0.00    -0.226 OA
ATOM     16  C   LIG    1       29.230 -20.166   7.942  0.00  0.00    +0.135 C 
ENDBRANCH  11  14
ENDBRANCH   1  11
TORSDOF 3
ENDMDL
MODEL 8
REMARK VINA RESULT:      -6.4      2.538      6.129
REMARK  Name = *****
REMARK                            x       y       z     vdW  Elec       q    Type
REMARK                         _______ _______ _______ _____ _____    ______ ____
ROOT
ATOM      1  C   LIG    1       27.229 -21.538   7.127  0.00  0.00    +0.139 A 
ATOM      2  C   LIG    1       28.436 -21.208   7.742  0.00  0.00    +0.118 A 
ATOM      3  C   LIG    1       29.172 -20.102   7.313  0.00  0.00    +0.149 A 
ATOM      4  C   LIG    1       28.702 -19.383   6.203  0.00  0.00    +0.072 A 
ATOM      5  C   LIG    1       27.530 -19.765   5.540  0.00  0.00    +0.010 A 
ATOM      6  C   LIG    1       26.789 -20.848   6.000  0.00  0.00    +0.047 A 
ENDROOT
BRANCH   3   7
ATOM      7  N   LIG    1       30.437 -19.723   8.061  0.00  0.00    -0.383 NA
ATOM      8  C   LIG    1       31.484 -19.233   7.058  0.00  0.00    +0.361 C 
ATOM      9  C   LIG    1       30.109 -18.622   9.063  0.00  0.00    +0.361 C 
ATOM     10  C   LIG    1       31.020 -20.911   8.811  0.00  0.00    +0.361 C 
ENDBRANCH   3   7
BRANCH   1  11
ATOM     11  O   LIG    1       26.414 -22.589   7.589  0.00  0.00    -0.411 OA
BRANCH  11  14
ATOM     12  C   LIG    1       25.066 -24.246   5.944  0.00  0.00    +0.135 C 
ATOM     13  N   LIG    1       24.360 -23.430   6.914  0.00  0.00    -0.273 N 
ATOM     14  C   LIG    1       25.017 -22.450   7.642  0.00  0.00    +0.408 C 
ATOM     15  O   LIG    1       24.441 -21.563   8.258  0.00  0.00    -0.226 OA
ATOM     16  C   LIG    1       22.920 -23.324   6.759  0.00  0.00    +0.135 C 
ENDBRANCH  11  14
ENDBRANCH   1  11
TORSDOF 3
ENDMDL
MODEL 9
REMARK VINA RESULT:      -6.1      4.159      5.933
REMARK  Name = *****
REMARK                            x       y       z     vdW  Elec       q    Type
REMARK                         _______ _______ _______ _____ _____    ______ ____
ROOT
ATOM      1  C   LIG    1       25.444 -23.399   6.360  0.00  0.00    +0.139 A 
ATOM      2  C   LIG    1       24.905 -22.572   5.376  0.00  0.00    +0.118 A 
ATOM      3  C   LIG    1       24.703 -21.213   5.624  0.00  0.00    +0.149 A 
ATOM      4  C   LIG    1       24.985 -20.724   6.909  0.00  0.00    +0.072 A 
ATOM      5  C   LIG    1       25.453 -21.574   7.917  0.00  0.00    +0.010 A 
ATOM      6  C   LIG    1       25.682 -22.919   7.646  0.00  0.00    +0.047 A 
ENDROOT
BRANCH   3   7
ATOM      7  N   LIG    1       24.194 -20.326   4.502  0.00  0.00    -0.383 NA
ATOM      8  C   LIG    1       23.883 -21.193   3.280  0.00  0.00    +0.361 C 
ATOM      9  C   LIG    1       22.936 -19.605   4.973  0.00  0.00    +0.361 C 
ATOM     10  C   LIG    1       25.230 -19.290   4.095  0.00  0.00    +0.361 C 
ENDBRANCH   3   7
BRANCH   1  11
ATOM     11  O   LIG    1       25.748 -24.753   6.120  0.00  0.00    -0.411 OA
BRANCH  11  14
ATOM     12  C   LIG    1       26.483 -27.134   5.093  0.00  0.00    +0.135 C 
ATOM     13  N   LIG    1       25.215 -26.986   5.784  0.00  0.00    -0.273 N 
ATOM     14  C   LIG    1       24.746 -25.737   6.163  0.00  0.00    +0.408 C 
ATOM     15  O   LIG    1       23.588 -25.520   6.493  0.00  0.00    -0.226 OA
ATOM     16  C   LIG    1       24.257 -28.067   5.640  0.00  0.00    +0.135 C 
ENDBRANCH  11  14
ENDBRANCH   1  11
TORSDOF 3
ENDMDL
