MODEL 1
REMARK VINA RESULT:      -7.5      0.000      0.000
REMARK  Name = *****
REMARK                            x       y       z     vdW  Elec       q    Type
REMARK                         _______ _______ _______ _____ _____    ______ ____
ROOT
ATOM      1  C   LIG    1       28.199 -19.887   6.357  0.00  0.00    -0.006 A 
ATOM      2  C   LIG    1       27.367 -19.323   5.349  0.00  0.00    +0.007 A 
ATOM      3  C   LIG    1       27.741 -18.221   4.544  0.00  0.00    +0.010 A 
ATOM      4  C   LIG    1       26.892 -17.693   3.578  0.00  0.00    +0.001 A 
ATOM      5  C   LIG    1       25.641 -18.255   3.401  0.00  0.00    +0.014 A 
ATOM      6  C   LIG    1       25.237 -19.364   4.173  0.00  0.00    +0.081 A 
ATOM      7  C   LIG    1       26.090 -19.914   5.130  0.00  0.00    +0.084 A 
ATOM      8  N   LIG    1       25.691 -20.990   5.823  0.00  0.00    -0.242 NA
ATOM      9  C   LIG    1       26.510 -21.575   6.735  0.00  0.00    +0.145 A 
ATOM     10  C   LIG    1       27.762 -21.047   7.015  0.00  0.00    +0.039 A 
ENDROOT
BRANCH   6  11
ATOM     11  C   LIG    1       23.856 -19.915   3.912  0.00  0.00    +0.419 C 
ATOM     12  F   LIG    1       23.910 -21.107   3.245  0.00  0.00    -0.166 F 
ATOM     13  F   LIG    1       23.141 -19.087   3.091  0.00  0.00    -0.166 F 
ATOM     14  F   LIG    1       23.051 -20.136   4.984  0.00  0.00    -0.166 F 
ENDBRANCH   6  11
BRANCH   9  15
ATOM     15  C   LIG    1       26.020 -22.813   7.475  0.00  0.00    +0.434 C 
ATOM     16  F   LIG    1       26.290 -22.788   8.811  0.00  0.00    -0.164 F 
ATOM     17  F   LIG    1       26.571 -23.968   6.998  0.00  0.00    -0.164 F 
ATOM     18  F   LIG    1       24.668 -22.998   7.382  0.00  0.00    -0.164 F 
ENDBRANCH   9  15
BRANCH   1  19
ATOM     19  C   LIG    1       29.541 -19.293   6.769  0.00  0.00    +0.162 C 
BRANCH  19  20
ATOM     20  C   LIG    1       29.992 -19.628   8.234  0.00  0.00    +0.087 C 
ATOM     21  N   LIG    1       31.476 -19.722   8.331  0.00  0.00    -0.311 NA
ATOM     22  H   LIG    1       31.703 -20.166   9.225  0.00  0.00    +0.122 HD
ATOM     23  C   LIG    1       32.135 -18.410   8.310  0.00  0.00    +0.081 C 
ATOM     24  C   LIG    1       31.613 -17.477   9.398  0.00  0.00    +0.015 C 
ATOM     25  C   LIG    1       30.100 -17.321   9.318  0.00  0.00    +0.003 C 
ATOM     26  C   LIG    1       29.418 -18.686   9.303  0.00  0.00    +0.021 C 
ENDBRANCH  19  20
BRANCH  19  27
ATOM     27  O   LIG    1       30.531 -19.810   5.868  0.00  0.00    -0.386 OA
ATOM     28  H   LIG    1       31.041 -19.019   5.595  0.00  0.00    +0.210 HD
ENDBRANCH  19  27
ENDBRANCH   1  19
TORSDOF 5
ENDMDL
MODEL 2
REMARK VINA RESULT:      -7.2      2.128      3.925
REMARK  Name = *****
REMARK                            x       y       z     vdW  Elec       q    Type
REMARK                         _______ _______ _______ _____ _____    ______ ____
ROOT
ATOM      1  C   LIG    1       27.507 -20.250   6.116  0.00  0.00    -0.006 A 
ATOM      2  C   LIG    1       26.355 -20.973   6.539  0.00  0.00    +0.007 A 
ATOM      3  C   LIG    1       26.355 -21.894   7.613  0.00  0.00    +0.010 A 
ATOM      4  C   LIG    1       25.209 -22.588   7.986  0.00  0.00    +0.001 A 
ATOM      5  C   LIG    1       24.036 -22.379   7.284  0.00  0.00    +0.014 A 
ATOM      6  C   LIG    1       23.993 -21.458   6.218  0.00  0.00    +0.081 A 
ATOM      7  C   LIG    1       25.132 -20.741   5.850  0.00  0.00    +0.084 A 
ATOM      8  N   LIG    1       25.050 -19.846   4.855  0.00  0.00    -0.242 NA
ATOM      9  C   LIG    1       26.128 -19.103   4.495  0.00  0.00    +0.145 A 
ATOM     10  C   LIG    1       27.359 -19.284   5.110  0.00  0.00    +0.039 A 
ENDROOT
BRANCH   6  11
ATOM     11  C   LIG    1       22.671 -21.291   5.508  0.00  0.00    +0.419 C 
ATOM     12  F   LIG    1       22.818 -21.362   4.150  0.00  0.00    -0.166 F 
ATOM     13  F   LIG    1       22.140 -20.051   5.737  0.00  0.00    -0.166 F 
ATOM     14  F   LIG    1       21.676 -22.166   5.810  0.00  0.00    -0.166 F 
ENDBRANCH   6  11
BRANCH   9  15
ATOM     15  C   LIG    1       25.975 -18.079   3.377  0.00  0.00    +0.434 C 
ATOM     16  F   LIG    1       25.976 -18.633   2.132  0.00  0.00    -0.164 F 
ATOM     17  F   LIG    1       26.969 -17.143   3.376  0.00  0.00    -0.164 F 
ATOM     18  F   LIG    1       24.812 -17.364   3.455  0.00  0.00    -0.164 F 
ENDBRANCH   9  15
BRANCH   1  19
ATOM     19  C   LIG    1       28.900 -20.476   6.692  0.00  0.00    +0.162 C 
BRANCH  19  20
ATOM     20  C   LIG    1       29.057 -20.106   8.210  0.00  0.00    +0.087 C 
ATOM     21  N   LIG    1       30.099 -20.948   8.863  0.00  0.00    -0.311 NA
ATOM     22  H   LIG    1       29.998 -20.840   9.875  0.00  0.00    +0.122 HD
ATOM     23  C   LIG    1       31.465 -20.543   8.509  0.00  0.00    +0.081 C 
ATOM     24  C   LIG    1       31.736 -19.073   8.813  0.00  0.00    +0.015 C 
ATOM     25  C   LIG    1       30.714 -18.169   8.136  0.00  0.00    +0.003 C 
ATOM     26  C   LIG    1       29.294 -18.612   8.475  0.00  0.00    +0.021 C 
ENDBRANCH  19  20
BRANCH  19  27
ATOM     27  O   LIG    1       29.206 -21.869   6.538  0.00  0.00    -0.386 OA
ATOM     28  H   LIG    1       29.301 -22.196   7.457  0.00  0.00    +0.210 HD
ENDBRANCH  19  27
ENDBRANCH   1  19
TORSDOF 5
ENDMDL
MODEL 3
REMARK VINA RESULT:      -7.0      3.424      6.214
REMARK  Name = *****
REMARK                            x       y       z     vdW  Elec       q    Type
REMARK                         _______ _______ _______ _____ _____    ______ ____
ROOT
ATOM      1  C   LIG    1       25.352 -22.741   6.547  0.00  0.00    -0.006 A 
ATOM      2  C   LIG    1       24.194 -22.120   6.001  0.00  0.00    +0.007 A 
ATOM      3  C   LIG    1       22.909 -22.713   6.000  0.00  0.00    +0.010 A 
ATOM      4  C   LIG    1       21.805 -22.076   5.444  0.00  0.00    +0.001 A 
ATOM      5  C   LIG    1       21.966 -20.829   4.869  0.00  0.00    +0.014 A 
ATOM      6  C   LIG    1       23.227 -20.198   4.863  0.00  0.00    +0.081 A 
ATOM      7  C   LIG    1       24.336 -20.821   5.438  0.00  0.00    +0.084 A 
ATOM      8  N   LIG    1       25.514 -20.180   5.449  0.00  0.00    -0.242 NA
ATOM      9  C   LIG    1       26.606 -20.738   6.033  0.00  0.00    +0.145 A 
ATOM     10  C   LIG    1       26.549 -22.009   6.588  0.00  0.00    +0.039 A 
ENDROOT
BRANCH   6  11
ATOM     11  C   LIG    1       23.312 -18.838   4.215  0.00  0.00    +0.419 C 
ATOM     12  F   LIG    1       22.585 -17.907   4.906  0.00  0.00    -0.166 F 
ATOM     13  F   LIG    1       22.761 -18.852   2.964  0.00  0.00    -0.166 F 
ATOM     14  F   LIG    1       24.544 -18.289   4.057  0.00  0.00    -0.166 F 
ENDBRANCH   6  11
BRANCH   9  15
ATOM     15  C   LIG    1       27.914 -19.958   6.044  0.00  0.00    +0.434 C 
ATOM     16  F   LIG    1       27.950 -18.948   5.128  0.00  0.00    -0.164 F 
ATOM     17  F   LIG    1       29.001 -20.742   5.786  0.00  0.00    -0.164 F 
ATOM     18  F   LIG    1       28.178 -19.365   7.247  0.00  0.00    -0.164 F 
ENDBRANCH   9  15
BRANCH   1  19
ATOM     19  C   LIG    1       25.367 -24.167   7.086  0.00  0.00    +0.162 C 
BRANCH  19  20
ATOM     20  C   LIG    1       26.051 -25.223   6.147  0.00  0.00    +0.087 C 
ATOM     21  N   LIG    1       26.370 -26.475   6.890  0.00  0.00    -0.311 NA
ATOM     22  H   LIG    1       27.013 -27.024   6.313  0.00  0.00    +0.122 HD
ATOM     23  C   LIG    1       25.187 -27.305   7.147  0.00  0.00    +0.081 C 
ATOM     24  C   LIG    1       24.429 -27.652   5.870  0.00  0.00    +0.015 C 
ATOM     25  C   LIG    1       24.048 -26.399   5.092  0.00  0.00    +0.003 C 
ATOM     26  C   LIG    1       25.272 -25.519   4.856  0.00  0.00    +0.021 C 
ENDBRANCH  19  20
BRANCH  19  27
ATOM     27  O   LIG    1       26.082 -24.147   8.329  0.00  0.00    -0.386 OA
ATOM     28  H   LIG    1       26.058 -25.077   8.634  0.00  0.00    +0.210 HD
ENDBRANCH  19  27
ENDBRANCH   1  19
TORSDOF 5
ENDMDL
MODEL 4
REMARK VINA RESULT:      -6.8      1.333      1.836
REMARK  Name = *****
REMARK                            x       y       z     vdW  Elec       q    Type
REMARK                         _______ _______ _______ _____ _____    ______ ____
ROOT
ATOM      1  C   LIG    1       27.577 -21.077   6.638  0.00  0.00    -0.006 A 
ATOM      2  C   LIG    1       26.994 -20.239   5.645  0.00  0.00    +0.007 A 
ATOM      3  C   LIG    1       27.618 -19.078   5.130  0.00  0.00    +0.010 A 
ATOM      4  C   LIG    1       27.007 -18.280   4.169  0.00  0.00    +0.001 A 
ATOM      5  C   LIG    1       25.750 -18.625   3.707  0.00  0.00    +0.014 A 
ATOM      6  C   LIG    1       25.102 -19.783   4.185  0.00  0.00    +0.081 A 
ATOM      7  C   LIG    1       25.716 -20.601   5.133  0.00  0.00    +0.084 A 
ATOM      8  N   LIG    1       25.091 -21.715   5.542  0.00  0.00    -0.242 NA
ATOM      9  C   LIG    1       25.674 -22.555   6.434  0.00  0.00    +0.145 A 
ATOM     10  C   LIG    1       26.912 -22.261   6.991  0.00  0.00    +0.039 A 
ENDROOT
BRANCH   6  11
ATOM     11  C   LIG    1       23.734 -20.084   3.625  0.00  0.00    +0.419 C 
ATOM     12  F   LIG    1       23.777 -21.107   2.718  0.00  0.00    -0.166 F 
ATOM     13  F   LIG    1       23.241 -19.018   2.924  0.00  0.00    -0.166 F 
ATOM     14  F   LIG    1       22.752 -20.420   4.502  0.00  0.00    -0.166 F 
ENDBRANCH   6  11
BRANCH   9  15
ATOM     15  C   LIG    1       24.934 -23.821   6.844  0.00  0.00    +0.434 C 
ATOM     16  F   LIG    1       24.659 -24.651   5.798  0.00  0.00    -0.164 F 
ATOM     17  F   LIG    1       23.736 -23.563   7.448  0.00  0.00    -0.164 F 
ATOM     18  F   LIG    1       25.627 -24.586   7.741  0.00  0.00    -0.164 F 
ENDBRANCH   9  15
BRANCH   1  19
ATOM     19  C   LIG    1       28.887 -20.755   7.347  0.00  0.00    +0.162 C 
BRANCH  19  20
ATOM     20  C   LIG    1       29.147 -19.227   7.596  0.00  0.00    +0.087 C 
ATOM     21  N   LIG    1       29.430 -18.958   9.034  0.00  0.00    -0.311 NA
ATOM     22  H   LIG    1       29.356 -17.948   9.183  0.00  0.00    +0.122 HD
ATOM     23  C   LIG    1       30.781 -19.367   9.438  0.00  0.00    +0.081 C 
ATOM     24  C   LIG    1       31.866 -18.725   8.578  0.00  0.00    +0.015 C 
ATOM     25  C   LIG    1       31.639 -19.004   7.098  0.00  0.00    +0.003 C 
ATOM     26  C   LIG    1       30.223 -18.612   6.688  0.00  0.00    +0.021 C 
ENDBRANCH  19  20
BRANCH  19  27
ATOM     27  O   LIG    1       28.859 -21.416   8.620  0.00  0.00    -0.386 OA
ATOM     28  H   LIG    1       27.940 -21.747   8.696  0.00  0.00    +0.210 HD
ENDBRANCH  19  27
ENDBRANCH   1  19
TORSDOF 5
ENDMDL
MODEL 5
REMARK VINA RESULT:      -6.7      1.547      2.005
REMARK  Name = *****
REMARK                            x       y       z     vdW  Elec       q    Type
REMARK                         _______ _______ _______ _____ _____    ______ ____
ROOT
ATOM      1  C   LIG    1       27.092 -20.508   5.968  0.00  0.00    -0.006 A 
ATOM      2  C   LIG    1       26.273 -19.745   5.088  0.00  0.00    +0.007 A 
ATOM      3  C   LIG    1       26.775 -18.786   4.177  0.00  0.00    +0.010 A 
ATOM      4  C   LIG    1       25.937 -18.053   3.344  0.00  0.00    +0.001 A 
ATOM      5  C   LIG    1       24.571 -18.262   3.410  0.00  0.00    +0.014 A 
ATOM      6  C   LIG    1       24.033 -19.219   4.294  0.00  0.00    +0.081 A 
ATOM      7  C   LIG    1       24.868 -19.974   5.119  0.00  0.00    +0.084 A 
ATOM      8  N   LIG    1       24.330 -20.903   5.923  0.00  0.00    -0.242 NA
ATOM      9  C   LIG    1       25.114 -21.682   6.711  0.00  0.00    +0.145 A 
ATOM     10  C   LIG    1       26.491 -21.507   6.748  0.00  0.00    +0.039 A 
ENDROOT
BRANCH   6  11
ATOM     11  C   LIG    1       22.533 -19.382   4.300  0.00  0.00    +0.419 C 
ATOM     12  F   LIG    1       21.949 -18.691   3.274  0.00  0.00    -0.166 F 
ATOM     13  F   LIG    1       21.983 -18.853   5.435  0.00  0.00    -0.166 F 
ATOM     14  F   LIG    1       22.034 -20.643   4.216  0.00  0.00    -0.166 F 
ENDBRANCH   6  11
BRANCH   9  15
ATOM     15  C   LIG    1       24.455 -22.742   7.584  0.00  0.00    +0.434 C 
ATOM     16  F   LIG    1       23.164 -22.449   7.910  0.00  0.00    -0.164 F 
ATOM     17  F   LIG    1       25.110 -22.935   8.768  0.00  0.00    -0.164 F 
ATOM     18  F   LIG    1       24.410 -23.975   6.996  0.00  0.00    -0.164 F 
ENDBRANCH   9  15
BRANCH   1  19
ATOM     19  C   LIG    1       28.594 -20.293   6.115  0.00  0.00    +0.162 C 
BRANCH  19  20
ATOM     20  C   LIG    1       29.016 -19.349   7.296  0.00  0.00    +0.087 C 
ATOM     21  N   LIG    1       29.248 -20.125   8.547  0.00  0.00    -0.311 NA
ATOM     22  H   LIG    1       29.284 -19.459   9.324  0.00  0.00    +0.122 HD
ATOM     23  C   LIG    1       30.519 -20.861   8.535  0.00  0.00    +0.081 C 
ATOM     24  C   LIG    1       31.716 -19.954   8.270  0.00  0.00    +0.015 C 
ATOM     25  C   LIG    1       31.540 -19.164   6.980  0.00  0.00    +0.003 C 
ATOM     26  C   LIG    1       30.204 -18.429   6.976  0.00  0.00    +0.021 C 
ENDBRANCH  19  20
BRANCH  19  27
ATOM     27  O   LIG    1       29.190 -21.579   6.337  0.00  0.00    -0.386 OA
ATOM     28  H   LIG    1       28.772 -21.897   7.164  0.00  0.00    +0.210 HD
ENDBRANCH  19  27
ENDBRANCH   1  19
TORSDOF 5
ENDMDL
MODEL 6
REMARK VINA RESULT:      -6.7      3.265      6.732
REMARK  Name = *****
REMARK                            x       y       z     vdW  Elec       q    Type
REMARK                         _______ _______ _______ _____ _____    ______ ____
ROOT
ATOM      1  C   LIG    1       25.853 -21.756   6.295  0.00  0.00    -0.006 A 
ATOM      2  C   LIG    1       27.133 -21.329   6.749  0.00  0.00    +0.007 A 
ATOM      3  C   LIG    1       27.888 -22.012   7.732  0.00  0.00    +0.010 A 
ATOM      4  C   LIG    1       29.130 -21.554   8.155  0.00  0.00    +0.001 A 
ATOM      5  C   LIG    1       29.643 -20.393   7.606  0.00  0.00    +0.014 A 
ATOM      6  C   LIG    1       28.928 -19.692   6.614  0.00  0.00    +0.081 A 
ATOM      7  C   LIG    1       27.690 -20.156   6.167  0.00  0.00    +0.084 A 
ATOM      8  N   LIG    1       27.051 -19.487   5.197  0.00  0.00    -0.242 NA
ATOM      9  C   LIG    1       25.863 -19.930   4.710  0.00  0.00    +0.145 A 
ATOM     10  C   LIG    1       25.249 -21.058   5.238  0.00  0.00    +0.039 A 
ENDROOT
BRANCH   6  11
ATOM     11  C   LIG    1       29.562 -18.436   6.069  0.00  0.00    +0.419 C 
ATOM     12  F   LIG    1       30.705 -18.713   5.370  0.00  0.00    -0.166 F 
ATOM     13  F   LIG    1       29.965 -17.607   7.080  0.00  0.00    -0.166 F 
ATOM     14  F   LIG    1       28.815 -17.656   5.245  0.00  0.00    -0.166 F 
ENDBRANCH   6  11
BRANCH   9  15
ATOM     15  C   LIG    1       25.192 -19.150   3.587  0.00  0.00    +0.434 C 
ATOM     16  F   LIG    1       25.024 -19.878   2.447  0.00  0.00    -0.164 F 
ATOM     17  F   LIG    1       25.891 -18.034   3.225  0.00  0.00    -0.164 F 
ATOM     18  F   LIG    1       23.944 -18.698   3.915  0.00  0.00    -0.164 F 
ENDBRANCH   9  15
BRANCH   1  19
ATOM     19  C   LIG    1       25.093 -22.930   6.902  0.00  0.00    +0.162 C 
BRANCH  19  20
ATOM     20  C   LIG    1       24.037 -23.598   5.953  0.00  0.00    +0.087 C 
ATOM     21  N   LIG    1       24.658 -24.005   4.661  0.00  0.00    -0.311 NA
ATOM     22  H   LIG    1       23.902 -24.209   4.002  0.00  0.00    +0.122 HD
ATOM     23  C   LIG    1       25.482 -25.215   4.778  0.00  0.00    +0.081 C 
ATOM     24  C   LIG    1       24.708 -26.393   5.363  0.00  0.00    +0.015 C 
ATOM     25  C   LIG    1       24.083 -26.034   6.705  0.00  0.00    +0.003 C 
ATOM     26  C   LIG    1       23.257 -24.757   6.591  0.00  0.00    +0.021 C 
ENDBRANCH  19  20
BRANCH  19  27
ATOM     27  O   LIG    1       26.062 -23.925   7.262  0.00  0.00    -0.386 OA
ATOM     28  H   LIG    1       26.919 -23.532   6.996  0.00  0.00    +0.210 HD
ENDBRANCH  19  27
ENDBRANCH   1  19
TORSDOF 5
ENDMDL
MODEL 7
REMARK VINA RESULT:      -6.5     10.011     11.784
REMARK  Name = *****
REMARK                            x       y       z     vdW  Elec       q    Type
REMARK                         _______ _______ _______ _____ _____    ______ ____
ROOT
ATOM      1  C   LIG    1       25.172 -29.000  12.073  0.00  0.00    -0.006 A 
ATOM      2  C   LIG    1       23.762 -29.155  12.198  0.00  0.00    +0.007 A 
ATOM      3  C   LIG    1       23.057 -30.310  11.783  0.00  0.00    +0.010 A 
ATOM      4  C   LIG    1       21.676 -30.415  11.913  0.00  0.00    +0.001 A 
ATOM      5  C   LIG    1       20.968 -29.358  12.455  0.00  0.00    +0.014 A 
ATOM      6  C   LIG    1       21.636 -28.197  12.894  0.00  0.00    +0.081 A 
ATOM      7  C   LIG    1       23.023 -28.091  12.788  0.00  0.00    +0.084 A 
ATOM      8  N   LIG    1       23.634 -26.988  13.246  0.00  0.00    -0.242 NA
ATOM      9  C   LIG    1       24.985 -26.866  13.195  0.00  0.00    +0.145 A 
ATOM     10  C   LIG    1       25.771 -27.856  12.619  0.00  0.00    +0.039 A 
ENDROOT
BRANCH   6  11
ATOM     11  C   LIG    1       20.786 -27.093  13.474  0.00  0.00    +0.419 C 
ATOM     12  F   LIG    1       19.502 -27.512  13.694  0.00  0.00    -0.166 F 
ATOM     13  F   LIG    1       20.667 -26.049  12.600  0.00  0.00    -0.166 F 
ATOM     14  F   LIG    1       21.189 -26.534  14.645  0.00  0.00    -0.166 F 
ENDBRANCH   6  11
BRANCH   9  15
ATOM     15  C   LIG    1       25.632 -25.607  13.756  0.00  0.00    +0.434 C 
ATOM     16  F   LIG    1       25.972 -25.712  15.071  0.00  0.00    -0.164 F 
ATOM     17  F   LIG    1       24.824 -24.509  13.660  0.00  0.00    -0.164 F 
ATOM     18  F   LIG    1       26.785 -25.258  13.110  0.00  0.00    -0.164 F 
ENDBRANCH   9  15
BRANCH   1  19
ATOM     19  C   LIG    1       26.069 -30.011  11.368  0.00  0.00    +0.162 C 
BRANCH  19  20
ATOM     20  C   LIG    1       26.719 -29.502  10.033  0.00  0.00    +0.087 C 
ATOM     21  N   LIG    1       27.471 -30.594   9.352  0.00  0.00    -0.311 NA
ATOM     22  H   LIG    1       28.060 -30.165   8.633  0.00  0.00    +0.122 HD
ATOM     23  C   LIG    1       26.593 -31.563   8.685  0.00  0.00    +0.081 C 
ATOM     24  C   LIG    1       25.644 -30.903   7.690  0.00  0.00    +0.015 C 
ATOM     25  C   LIG    1       24.826 -29.801   8.350  0.00  0.00    +0.003 C 
ATOM     26  C   LIG    1       25.737 -28.814   9.074  0.00  0.00    +0.021 C 
ENDBRANCH  19  20
BRANCH  19  27
ATOM     27  O   LIG    1       27.125 -30.351  12.278  0.00  0.00    -0.386 OA
ATOM     28  H   LIG    1       27.506 -29.487  12.536  0.00  0.00    +0.210 HD
ENDBRANCH  19  27
ENDBRANCH   1  19
TORSDOF 5
ENDMDL
MODEL 8
REMARK VINA RESULT:      -6.5     10.189     12.025
REMARK  Name = *****
REMARK                            x       y       z     vdW  Elec       q    Type
REMARK                         _______ _______ _______ _____ _____    ______ ____
ROOT
ATOM      1  C   LIG    1       24.991 -29.772  11.245  0.00  0.00    -0.006 A 
ATOM      2  C   LIG    1       23.608 -29.628  11.554  0.00  0.00    +0.007 A 
ATOM      3  C   LIG    1       22.599 -30.491  11.064  0.00  0.00    +0.010 A 
ATOM      4  C   LIG    1       21.258 -30.307  11.382  0.00  0.00    +0.001 A 
ATOM      5  C   LIG    1       20.896 -29.248  12.193  0.00  0.00    +0.014 A 
ATOM      6  C   LIG    1       21.874 -28.376  12.713  0.00  0.00    +0.081 A 
ATOM      7  C   LIG    1       23.225 -28.564  12.418  0.00  0.00    +0.084 A 
ATOM      8  N   LIG    1       24.135 -27.740  12.956  0.00  0.00    -0.242 NA
ATOM      9  C   LIG    1       25.461 -27.916  12.722  0.00  0.00    +0.145 A 
ATOM     10  C   LIG    1       25.911 -28.922  11.877  0.00  0.00    +0.039 A 
ENDROOT
BRANCH   6  11
ATOM     11  C   LIG    1       21.391 -27.247  13.591  0.00  0.00    +0.419 C 
ATOM     12  F   LIG    1       20.025 -27.189  13.627  0.00  0.00    -0.166 F 
ATOM     13  F   LIG    1       21.780 -26.034  13.095  0.00  0.00    -0.166 F 
ATOM     14  F   LIG    1       21.787 -27.244  14.891  0.00  0.00    -0.166 F 
ENDBRANCH   6  11
BRANCH   9  15
ATOM     15  C   LIG    1       26.456 -26.969  13.380  0.00  0.00    +0.434 C 
ATOM     16  F   LIG    1       25.967 -26.361  14.498  0.00  0.00    -0.164 F 
ATOM     17  F   LIG    1       26.861 -25.964  12.549  0.00  0.00    -0.164 F 
ATOM     18  F   LIG    1       27.607 -27.588  13.779  0.00  0.00    -0.164 F 
ENDBRANCH   9  15
BRANCH   1  19
ATOM     19  C   LIG    1       25.529 -30.798  10.254  0.00  0.00    +0.162 C 
BRANCH  19  20
ATOM     20  C   LIG    1       26.273 -30.192   9.012  0.00  0.00    +0.087 C 
ATOM     21  N   LIG    1       26.729 -31.266   8.084  0.00  0.00    -0.311 NA
ATOM     22  H   LIG    1       27.399 -30.850   7.431  0.00  0.00    +0.122 HD
ATOM     23  C   LIG    1       25.634 -31.837   7.289  0.00  0.00    +0.081 C 
ATOM     24  C   LIG    1       24.869 -30.777   6.503  0.00  0.00    +0.015 C 
ATOM     25  C   LIG    1       24.351 -29.674   7.417  0.00  0.00    +0.003 C 
ATOM     26  C   LIG    1       25.482 -29.106   8.269  0.00  0.00    +0.021 C 
ENDBRANCH  19  20
BRANCH  19  27
ATOM     27  O   LIG    1       26.453 -31.634  10.965  0.00  0.00    -0.386 OA
ATOM     28  H   LIG    1       27.227 -31.697  10.367  0.00  0.00    +0.210 HD
ENDBRANCH  19  27
ENDBRANCH   1  19
TORSDOF 5
ENDMDL
MODEL 9
REMARK VINA RESULT:      -6.4      3.206      5.932
REMARK  Name = *****
REMARK                            x       y       z     vdW  Elec       q    Type
REMARK                         _______ _______ _______ _____ _____    ______ ____
ROOT
ATOM      1  C   LIG    1       25.923 -22.296   6.261  0.00  0.00    -0.006 A 
ATOM      2  C   LIG    1       25.236 -21.487   5.312  0.00  0.00    +0.007 A 
ATOM      3  C   LIG    1       24.008 -21.850   4.710  0.00  0.00    +0.010 A 
ATOM      4  C   LIG    1       23.376 -21.035   3.778  0.00  0.00    +0.001 A 
ATOM      5  C   LIG    1       23.965 -19.836   3.422  0.00  0.00    +0.014 A 
ATOM      6  C   LIG    1       25.181 -19.431   4.011  0.00  0.00    +0.081 A 
ATOM      7  C   LIG    1       25.812 -20.233   4.963  0.00  0.00    +0.084 A 
ATOM      8  N   LIG    1       26.948 -19.804   5.532  0.00  0.00    -0.242 NA
ATOM      9  C   LIG    1       27.569 -20.540   6.489  0.00  0.00    +0.145 A 
ATOM     10  C   LIG    1       27.076 -21.781   6.871  0.00  0.00    +0.039 A 
ENDROOT
BRANCH   6  11
ATOM     11  C   LIG    1       25.752 -18.107   3.566  0.00  0.00    +0.419 C 
ATOM     12  F   LIG    1       24.868 -17.084   3.772  0.00  0.00    -0.166 F 
ATOM     13  F   LIG    1       25.988 -18.099   2.219  0.00  0.00    -0.166 F 
ATOM     14  F   LIG    1       26.917 -17.698   4.134  0.00  0.00    -0.166 F 
ENDBRANCH   6  11
BRANCH   9  15
ATOM     15  C   LIG    1       28.842 -19.995   7.124  0.00  0.00    +0.434 C 
ATOM     16  F   LIG    1       28.629 -19.379   8.321  0.00  0.00    -0.164 F 
ATOM     17  F   LIG    1       29.479 -19.080   6.335  0.00  0.00    -0.164 F 
ATOM     18  F   LIG    1       29.776 -20.961   7.376  0.00  0.00    -0.164 F 
ENDBRANCH   9  15
BRANCH   1  19
ATOM     19  C   LIG    1       25.477 -23.702   6.647  0.00  0.00    +0.162 C 
BRANCH  19  20
ATOM     20  C   LIG    1       25.882 -24.828   5.630  0.00  0.00    +0.087 C 
ATOM     21  N   LIG    1       26.707 -25.877   6.293  0.00  0.00    -0.311 NA
ATOM     22  H   LIG    1       27.136 -26.447   5.558  0.00  0.00    +0.122 HD
ATOM     23  C   LIG    1       25.915 -26.775   7.143  0.00  0.00    +0.081 C 
ATOM     24  C   LIG    1       24.767 -27.435   6.385  0.00  0.00    +0.015 C 
ATOM     25  C   LIG    1       23.873 -26.397   5.718  0.00  0.00    +0.003 C 
ATOM     26  C   LIG    1       24.701 -25.442   4.864  0.00  0.00    +0.021 C 
ENDBRANCH  19  20
BRANCH  19  27
ATOM     27  O   LIG    1       26.076 -24.007   7.914  0.00  0.00    -0.386 OA
ATOM     28  H   LIG    1       26.080 -23.151   8.389  0.00  0.00    +0.210 HD
ENDBRANCH  19  27
ENDBRANCH   1  19
TORSDOF 5
ENDMDL
