MODEL 1
REMARK VINA RESULT:      -4.0      0.000      0.000
REMARK  Name = *****
REMARK                            x       y       z     vdW  Elec       q    Type
REMARK                         _______ _______ _______ _____ _____    ______ ____
ROOT
ATOM      1  O   LIG    1       30.775 -22.067  10.330  0.00  0.00    -0.149 OA
ATOM      2  S   LIG    1       31.201 -21.560   9.060  0.00  0.00    +0.065 S 
ATOM      3  S   LIG    1       29.793 -21.174   7.977  0.00  0.00    +0.105 S 
ENDROOT
BRANCH   2   4
ATOM      4  O   LIG    1       32.165 -22.670   8.436  0.00  0.00    -0.255 OA
ATOM      5  H   LIG    1       32.632 -22.290   7.666  0.00  0.00    +0.244 HD
ENDBRANCH   2   4
BRANCH   2   6
ATOM      6  O   LIG    1       32.099 -20.276   9.372  0.00  0.00    -0.255 OA
ATOM      7  H   LIG    1       33.029 -20.474   9.142  0.00  0.00    +0.244 HD
ENDBRANCH   2   6
TORSDOF 2
ENDMDL
MODEL 2
REMARK VINA RESULT:      -4.0      0.162      1.945
REMARK  Name = *****
REMARK                            x       y       z     vdW  Elec       q    Type
REMARK                         _______ _______ _______ _____ _____    ______ ____
ROOT
ATOM      1  O   LIG    1       32.191 -20.499   9.349  0.00  0.00    -0.149 OA
ATOM      2  S   LIG    1       31.287 -21.572   9.060  0.00  0.00    +0.065 S 
ATOM      3  S   LIG    1       29.941 -21.048   7.957  0.00  0.00    +0.105 S 
ENDROOT
BRANCH   2   4
ATOM      4  O   LIG    1       30.752 -22.097  10.471  0.00  0.00    -0.255 OA
ATOM      5  H   LIG    1       30.168 -21.417  10.863  0.00  0.00    +0.244 HD
ENDBRANCH   2   4
BRANCH   2   6
ATOM      6  O   LIG    1       32.173 -22.741   8.427  0.00  0.00    -0.255 OA
ATOM      7  H   LIG    1       31.581 -23.453   8.110  0.00  0.00    +0.244 HD
ENDBRANCH   2   6
TORSDOF 2
ENDMDL
MODEL 3
REMARK VINA RESULT:      -3.7      2.222      2.488
REMARK  Name = *****
REMARK                            x       y       z     vdW  Elec       q    Type
REMARK                         _______ _______ _______ _____ _____    ______ ____
ROOT
ATOM      1  O   LIG    1       29.922 -20.588   8.683  0.00  0.00    -0.149 OA
ATOM      2  S   LIG    1       31.208 -19.959   8.643  0.00  0.00    +0.065 S 
ATOM      3  S   LIG    1       31.192 -18.327   9.443  0.00  0.00    +0.105 S 
ENDROOT
BRANCH   2   4
ATOM      4  O   LIG    1       31.618 -19.879   7.101  0.00  0.00    -0.255 OA
ATOM      5  H   LIG    1       30.943 -19.362   6.618  0.00  0.00    +0.244 HD
ENDBRANCH   2   4
BRANCH   2   6
ATOM      6  O   LIG    1       32.222 -20.972   9.349  0.00  0.00    -0.255 OA
ATOM      7  H   LIG    1       32.569 -20.560  10.165  0.00  0.00    +0.244 HD
ENDBRANCH   2   6
TORSDOF 2
ENDMDL
MODEL 4
REMARK VINA RESULT:      -3.7      2.560      3.412
REMARK  Name = *****
REMARK                            x       y       z     vdW  Elec       q    Type
REMARK                         _______ _______ _______ _____ _____    ______ ____
ROOT
ATOM      1  O   LIG    1       32.150 -19.659   9.229  0.00  0.00    -0.149 OA
ATOM      2  S   LIG    1       31.335 -18.697   8.550  0.00  0.00    +0.065 S 
ATOM      3  S   LIG    1       30.720 -19.329   6.960  0.00  0.00    +0.105 S 
ENDROOT
BRANCH   2   4
ATOM      4  O   LIG    1       32.236 -17.389   8.380  0.00  0.00    -0.255 OA
ATOM      5  H   LIG    1       31.678 -16.658   8.047  0.00  0.00    +0.244 HD
ENDBRANCH   2   4
BRANCH   2   6
ATOM      6  O   LIG    1       30.151 -18.326   9.556  0.00  0.00    -0.255 OA
ATOM      7  H   LIG    1       29.543 -17.699   9.116  0.00  0.00    +0.244 HD
ENDBRANCH   2   6
TORSDOF 2
ENDMDL
MODEL 5
REMARK VINA RESULT:      -3.7      2.397      2.930
REMARK  Name = *****
REMARK                            x       y       z     vdW  Elec       q    Type
REMARK                         _______ _______ _______ _____ _____    ______ ____
ROOT
ATOM      1  O   LIG    1       32.170 -20.572   9.320  0.00  0.00    -0.149 OA
ATOM      2  S   LIG    1       31.372 -19.616   8.614  0.00  0.00    +0.065 S 
ATOM      3  S   LIG    1       31.696 -17.916   9.171  0.00  0.00    +0.105 S 
ENDROOT
BRANCH   2   4
ATOM      4  O   LIG    1       29.851 -20.052   8.837  0.00  0.00    -0.255 OA
ATOM      5  H   LIG    1       29.798 -20.633   9.622  0.00  0.00    +0.244 HD
ENDBRANCH   2   4
BRANCH   2   6
ATOM      6  O   LIG    1       31.699 -19.821   7.063  0.00  0.00    -0.255 OA
ATOM      7  H   LIG    1       30.882 -20.094   6.598  0.00  0.00    +0.244 HD
ENDBRANCH   2   6
TORSDOF 2
ENDMDL
MODEL 6
REMARK VINA RESULT:      -3.7      2.348      3.009
REMARK  Name = *****
REMARK                            x       y       z     vdW  Elec       q    Type
REMARK                         _______ _______ _______ _____ _____    ______ ____
ROOT
ATOM      1  O   LIG    1       31.772 -19.635   7.240  0.00  0.00    -0.149 OA
ATOM      2  S   LIG    1       31.348 -19.662   8.608  0.00  0.00    +0.065 S 
ATOM      3  S   LIG    1       31.552 -18.045   9.414  0.00  0.00    +0.105 S 
ENDROOT
BRANCH   2   4
ATOM      4  O   LIG    1       32.203 -20.810   9.318  0.00  0.00    -0.255 OA
ATOM      5  H   LIG    1       31.677 -21.634   9.335  0.00  0.00    +0.244 HD
ENDBRANCH   2   4
BRANCH   2   6
ATOM      6  O   LIG    1       29.827 -20.148   8.593  0.00  0.00    -0.255 OA
ATOM      7  H   LIG    1       29.787 -21.063   8.251  0.00  0.00    +0.244 HD
ENDBRANCH   2   6
TORSDOF 2
ENDMDL
MODEL 7
REMARK VINA RESULT:      -3.6      1.520      2.750
REMARK  Name = *****
REMARK                            x       y       z     vdW  Elec       q    Type
REMARK                         _______ _______ _______ _____ _____    ______ ____
ROOT
ATOM      1  O   LIG    1       31.955 -18.980   7.998  0.00  0.00    -0.149 OA
ATOM      2  S   LIG    1       31.195 -19.897   8.795  0.00  0.00    +0.065 S 
ATOM      3  S   LIG    1       29.817 -20.627   7.859  0.00  0.00    +0.105 S 
ENDROOT
BRANCH   2   4
ATOM      4  O   LIG    1       30.698 -19.075  10.071  0.00  0.00    -0.255 OA
ATOM      5  H   LIG    1       30.260 -19.687  10.694  0.00  0.00    +0.244 HD
ENDBRANCH   2   4
BRANCH   2   6
ATOM      6  O   LIG    1       32.228 -20.998   9.315  0.00  0.00    -0.255 OA
ATOM      7  H   LIG    1       31.929 -21.329  10.186  0.00  0.00    +0.244 HD
ENDBRANCH   2   6
TORSDOF 2
ENDMDL
MODEL 8
REMARK VINA RESULT:      -3.6      2.468      3.028
REMARK  Name = *****
REMARK                            x       y       z     vdW  Elec       q    Type
REMARK                         _______ _______ _______ _____ _____    ______ ____
ROOT
ATOM      1  O   LIG    1       30.218 -18.409   9.420  0.00  0.00    -0.149 OA
ATOM      2  S   LIG    1       31.278 -18.739   8.515  0.00  0.00    +0.065 S 
ATOM      3  S   LIG    1       30.645 -19.300   6.905  0.00  0.00    +0.105 S 
ENDROOT
BRANCH   2   4
ATOM      4  O   LIG    1       32.160 -19.852   9.245  0.00  0.00    -0.255 OA
ATOM      5  H   LIG    1       32.150 -19.685  10.209  0.00  0.00    +0.244 HD
ENDBRANCH   2   4
BRANCH   2   6
ATOM      6  O   LIG    1       32.181 -17.427   8.390  0.00  0.00    -0.255 OA
ATOM      7  H   LIG    1       32.497 -17.344   7.467  0.00  0.00    +0.244 HD
ENDBRANCH   2   6
TORSDOF 2
ENDMDL
MODEL 9
REMARK VINA RESULT:      -3.6      3.337      3.996
REMARK  Name = *****
REMARK                            x       y       z     vdW  Elec       q    Type
REMARK                         _______ _______ _______ _____ _____    ______ ____
ROOT
ATOM      1  O   LIG    1       32.159 -19.165   9.202  0.00  0.00    -0.149 OA
ATOM      2  S   LIG    1       31.461 -17.947   8.917  0.00  0.00    +0.065 S 
ATOM      3  S   LIG    1       30.374 -17.452  10.287  0.00  0.00    +0.105 S 
ENDROOT
BRANCH   2   4
ATOM      4  O   LIG    1       30.657 -18.200   7.560  0.00  0.00    -0.255 OA
ATOM      5  H   LIG    1       31.281 -18.507   6.872  0.00  0.00    +0.244 HD
ENDBRANCH   2   4
BRANCH   2   6
ATOM      6  O   LIG    1       32.582 -16.853   8.604  0.00  0.00    -0.255 OA
ATOM      7  H   LIG    1       32.194 -16.149   8.046  0.00  0.00    +0.244 HD
ENDBRANCH   2   6
TORSDOF 2
ENDMDL
