MODEL 1
REMARK VINA RESULT:      -9.5      0.000      0.000
REMARK  Name = *****
REMARK                            x       y       z     vdW  Elec       q    Type
REMARK                         _______ _______ _______ _____ _____    ______ ____
ROOT
ATOM      1  C   LIG    1       25.964 -22.299   7.934  0.00  0.00    +0.228 C 
ENDROOT
BRANCH   1   2
ATOM      2  C   LIG    1       27.368 -21.906   8.402  0.00  0.00    +0.275 C 
BRANCH   2   3
ATOM      3  O   LIG    1       27.476 -20.493   8.506  0.00  0.00    -0.488 OA
BRANCH   3  12
ATOM      4  C   LIG    1       31.865 -17.511  10.356  0.00  0.00    +0.063 C 
ATOM      5  C   LIG    1       30.975 -18.080   9.317  0.00  0.00    +0.014 C 
ATOM      6  N   LIG    1       31.188 -17.853   7.979  0.00  0.00    -0.358 NA
ATOM      7  H   LIG    1       31.944 -17.303   7.598  0.00  0.00    +0.166 HD
ATOM      8  C   LIG    1       30.227 -18.481   7.221  0.00  0.00    +0.050 C 
ATOM      9  C   LIG    1       30.050 -18.517   5.835  0.00  0.00    +0.026 C 
ATOM     10  C   LIG    1       28.974 -19.260   5.342  0.00  0.00    +0.006 C 
ATOM     11  C   LIG    1       28.106 -19.935   6.203  0.00  0.00    +0.046 C 
ATOM     12  C   LIG    1       28.279 -19.871   7.594  0.00  0.00    +0.130 C 
ATOM     13  C   LIG    1       29.373 -19.140   8.104  0.00  0.00    +0.042 C 
ATOM     14  C   LIG    1       29.857 -18.879   9.420  0.00  0.00    +0.034 C 
ENDBRANCH   3  12
ENDBRANCH   2   3
ENDBRANCH   1   2
BRANCH   1  15
ATOM     15  C   LIG    1       25.935 -23.235   6.703  0.00  0.00    +0.129 C 
BRANCH  15  16
ATOM     16  N   LIG    1       25.892 -24.682   6.932  0.00  0.00    -0.308 NA
ATOM     17  H   LIG    1       25.823 -24.870   7.933  0.00  0.00    +0.123 HD
BRANCH  16  18
ATOM     18  C   LIG    1       24.827 -25.402   6.201  0.00  0.00    +0.011 C 
ATOM     19  C   LIG    1       24.796 -26.898   6.562  0.00  0.00    +0.027 C 
ATOM     20  C   LIG    1       25.117 -25.291   4.690  0.00  0.00    +0.027 C 
ATOM     21  C   LIG    1       23.450 -24.767   6.461  0.00  0.00    +0.027 C 
ENDBRANCH  16  18
ENDBRANCH  15  16
ENDBRANCH   1  15
BRANCH   1  22
ATOM     22  O   LIG    1       25.312 -21.067   7.505  0.00  0.00    -0.453 OA
BRANCH  22  23
ATOM     23  C   LIG    1       23.994 -21.120   7.230  0.00  0.00    +0.340 C 
ATOM     24  O   LIG    1       23.111 -21.660   7.862  0.00  0.00    -0.245 OA
BRANCH  23  25
ATOM     25  C   LIG    1       23.811 -20.370   5.944  0.00  0.00    +0.059 C 
ATOM     26  C   LIG    1       22.593 -19.726   5.681  0.00  0.00    +0.015 C 
ATOM     27  C   LIG    1       22.427 -19.008   4.498  0.00  0.00    +0.001 C 
ATOM     28  C   LIG    1       23.463 -18.945   3.560  0.00  0.00    +0.000 C 
ATOM     29  C   LIG    1       24.662 -19.615   3.796  0.00  0.00    +0.001 C 
ATOM     30  C   LIG    1       24.837 -20.328   4.980  0.00  0.00    +0.015 C 
ENDBRANCH  23  25
ENDBRANCH  22  23
ENDBRANCH   1  22
TORSDOF 9
ENDMDL
MODEL 2
REMARK VINA RESULT:      -9.4      1.803      3.991
REMARK  Name = *****
REMARK                            x       y       z     vdW  Elec       q    Type
REMARK                         _______ _______ _______ _____ _____    ______ ____
ROOT
ATOM      1  C   LIG    1       26.429 -20.770   6.075  0.00  0.00    +0.228 C 
ENDROOT
BRANCH   1   2
ATOM      2  C   LIG    1       27.811 -20.120   5.965  0.00  0.00    +0.275 C 
BRANCH   2   3
ATOM      3  O   LIG    1       28.188 -19.549   7.209  0.00  0.00    -0.488 OA
BRANCH   3  12
ATOM      4  C   LIG    1       32.173 -16.241   9.391  0.00  0.00    +0.063 C 
ATOM      5  C   LIG    1       31.534 -17.541   9.082  0.00  0.00    +0.014 C 
ATOM      6  N   LIG    1       32.094 -18.733   9.471  0.00  0.00    -0.358 NA
ATOM      7  H   LIG    1       32.956 -18.828   9.987  0.00  0.00    +0.166 HD
ATOM      8  C   LIG    1       31.316 -19.792   9.061  0.00  0.00    +0.050 C 
ATOM      9  C   LIG    1       31.499 -21.168   9.230  0.00  0.00    +0.026 C 
ATOM     10  C   LIG    1       30.520 -22.016   8.708  0.00  0.00    +0.006 C 
ATOM     11  C   LIG    1       29.404 -21.509   8.040  0.00  0.00    +0.046 C 
ATOM     12  C   LIG    1       29.242 -20.128   7.855  0.00  0.00    +0.130 C 
ATOM     13  C   LIG    1       30.215 -19.258   8.393  0.00  0.00    +0.042 C 
ATOM     14  C   LIG    1       30.365 -17.840   8.414  0.00  0.00    +0.034 C 
ENDBRANCH   3  12
ENDBRANCH   2   3
ENDBRANCH   1   2
BRANCH   1  15
ATOM     15  C   LIG    1       25.421 -20.328   4.988  0.00  0.00    +0.129 C 
BRANCH  15  16
ATOM     16  N   LIG    1       24.131 -19.781   5.419  0.00  0.00    -0.308 NA
ATOM     17  H   LIG    1       24.257 -18.824   5.752  0.00  0.00    +0.123 HD
BRANCH  16  18
ATOM     18  C   LIG    1       23.058 -19.832   4.402  0.00  0.00    +0.011 C 
ATOM     19  C   LIG    1       21.968 -20.854   4.773  0.00  0.00    +0.027 C 
ATOM     20  C   LIG    1       23.681 -20.277   3.063  0.00  0.00    +0.027 C 
ATOM     21  C   LIG    1       22.430 -18.444   4.188  0.00  0.00    +0.027 C 
ENDBRANCH  16  18
ENDBRANCH  15  16
ENDBRANCH   1  15
BRANCH   1  22
ATOM     22  O   LIG    1       25.862 -20.321   7.341  0.00  0.00    -0.453 OA
BRANCH  22  23
ATOM     23  C   LIG    1       25.710 -21.237   8.318  0.00  0.00    +0.340 C 
ATOM     24  O   LIG    1       25.968 -21.133   9.499  0.00  0.00    -0.245 OA
BRANCH  23  25
ATOM     25  C   LIG    1       25.151 -22.460   7.652  0.00  0.00    +0.059 C 
ATOM     26  C   LIG    1       23.777 -22.541   7.386  0.00  0.00    +0.015 C 
ATOM     27  C   LIG    1       23.257 -23.664   6.746  0.00  0.00    +0.001 C 
ATOM     28  C   LIG    1       24.098 -24.724   6.388  0.00  0.00    +0.000 C 
ATOM     29  C   LIG    1       25.458 -24.669   6.685  0.00  0.00    +0.001 C 
ATOM     30  C   LIG    1       25.985 -23.544   7.318  0.00  0.00    +0.015 C 
ENDBRANCH  23  25
ENDBRANCH  22  23
ENDBRANCH   1  22
TORSDOF 9
ENDMDL
MODEL 3
REMARK VINA RESULT:      -9.3      1.205      2.403
REMARK  Name = *****
REMARK                            x       y       z     vdW  Elec       q    Type
REMARK                         _______ _______ _______ _____ _____    ______ ____
ROOT
ATOM      1  C   LIG    1       25.813 -22.240   7.931  0.00  0.00    +0.228 C 
ENDROOT
BRANCH   1   2
ATOM      2  C   LIG    1       27.177 -21.817   8.482  0.00  0.00    +0.275 C 
BRANCH   2   3
ATOM      3  O   LIG    1       28.182 -21.988   7.494  0.00  0.00    -0.488 OA
BRANCH   3  12
ATOM      4  C   LIG    1       27.842 -17.470   4.168  0.00  0.00    +0.063 C 
ATOM      5  C   LIG    1       28.486 -18.347   5.173  0.00  0.00    +0.014 C 
ATOM      6  N   LIG    1       29.710 -18.044   5.719  0.00  0.00    -0.358 NA
ATOM      7  H   LIG    1       30.257 -17.226   5.497  0.00  0.00    +0.166 HD
ATOM      8  C   LIG    1       30.093 -19.013   6.619  0.00  0.00    +0.050 C 
ATOM      9  C   LIG    1       31.251 -19.117   7.396  0.00  0.00    +0.026 C 
ATOM     10  C   LIG    1       31.360 -20.224   8.242  0.00  0.00    +0.006 C 
ATOM     11  C   LIG    1       30.355 -21.190   8.303  0.00  0.00    +0.046 C 
ATOM     12  C   LIG    1       29.209 -21.087   7.501  0.00  0.00    +0.130 C 
ATOM     13  C   LIG    1       29.076 -19.965   6.656  0.00  0.00    +0.042 C 
ATOM     14  C   LIG    1       28.071 -19.533   5.741  0.00  0.00    +0.034 C 
ENDBRANCH   3  12
ENDBRANCH   2   3
ENDBRANCH   1   2
BRANCH   1  15
ATOM     15  C   LIG    1       25.877 -23.193   6.715  0.00  0.00    +0.129 C 
BRANCH  15  16
ATOM     16  N   LIG    1       25.884 -24.638   6.964  0.00  0.00    -0.308 NA
ATOM     17  H   LIG    1       25.754 -24.816   7.961  0.00  0.00    +0.123 HD
BRANCH  16  18
ATOM     18  C   LIG    1       24.903 -25.415   6.174  0.00  0.00    +0.011 C 
ATOM     19  C   LIG    1       25.161 -25.289   4.662  0.00  0.00    +0.027 C 
ATOM     20  C   LIG    1       23.497 -24.849   6.458  0.00  0.00    +0.027 C 
ATOM     21  C   LIG    1       24.905 -26.896   6.590  0.00  0.00    +0.027 C 
ENDBRANCH  16  18
ENDBRANCH  15  16
ENDBRANCH   1  15
BRANCH   1  22
ATOM     22  O   LIG    1       25.169 -21.026   7.445  0.00  0.00    -0.453 OA
BRANCH  22  23
ATOM     23  C   LIG    1       23.864 -21.100   7.113  0.00  0.00    +0.340 C 
ATOM     24  O   LIG    1       22.968 -21.675   7.694  0.00  0.00    -0.245 OA
BRANCH  23  25
ATOM     25  C   LIG    1       23.719 -20.320   5.839  0.00  0.00    +0.059 C 
ATOM     26  C   LIG    1       22.538 -19.606   5.592  0.00  0.00    +0.015 C 
ATOM     27  C   LIG    1       22.408 -18.861   4.422  0.00  0.00    +0.001 C 
ATOM     28  C   LIG    1       23.442 -18.841   3.480  0.00  0.00    +0.000 C 
ATOM     29  C   LIG    1       24.603 -19.580   3.699  0.00  0.00    +0.001 C 
ATOM     30  C   LIG    1       24.742 -20.321   4.872  0.00  0.00    +0.015 C 
ENDBRANCH  23  25
ENDBRANCH  22  23
ENDBRANCH   1  22
TORSDOF 9
ENDMDL
MODEL 4
REMARK VINA RESULT:      -9.1      2.517      7.757
REMARK  Name = *****
REMARK                            x       y       z     vdW  Elec       q    Type
REMARK                         _______ _______ _______ _____ _____    ______ ____
ROOT
ATOM      1  C   LIG    1       25.445 -23.691   7.133  0.00  0.00    +0.228 C 
ENDROOT
BRANCH   1   2
ATOM      2  C   LIG    1       25.805 -24.848   6.198  0.00  0.00    +0.275 C 
BRANCH   2   3
ATOM      3  O   LIG    1       26.218 -25.980   6.950  0.00  0.00    -0.488 OA
BRANCH   3  12
ATOM      4  C   LIG    1       26.775 -30.195  10.625  0.00  0.00    +0.063 C 
ATOM      5  C   LIG    1       26.250 -29.547   9.401  0.00  0.00    +0.014 C 
ATOM      6  N   LIG    1       25.395 -30.199   8.547  0.00  0.00    -0.358 NA
ATOM      7  H   LIG    1       25.055 -31.142   8.675  0.00  0.00    +0.166 HD
ATOM      8  C   LIG    1       25.057 -29.391   7.486  0.00  0.00    +0.050 C 
ATOM      9  C   LIG    1       24.228 -29.639   6.388  0.00  0.00    +0.026 C 
ATOM     10  C   LIG    1       24.060 -28.607   5.462  0.00  0.00    +0.006 C 
ATOM     11  C   LIG    1       24.700 -27.377   5.625  0.00  0.00    +0.046 C 
ATOM     12  C   LIG    1       25.549 -27.147   6.718  0.00  0.00    +0.130 C 
ATOM     13  C   LIG    1       25.713 -28.175   7.672  0.00  0.00    +0.042 C 
ATOM     14  C   LIG    1       26.460 -28.287   8.881  0.00  0.00    +0.034 C 
ENDBRANCH   3  12
ENDBRANCH   2   3
ENDBRANCH   1   2
BRANCH   1  15
ATOM     15  C   LIG    1       24.047 -23.076   6.888  0.00  0.00    +0.129 C 
BRANCH  15  16
ATOM     16  N   LIG    1       23.751 -22.534   5.558  0.00  0.00    -0.308 NA
ATOM     17  H   LIG    1       22.978 -23.054   5.139  0.00  0.00    +0.123 HD
BRANCH  16  18
ATOM     18  C   LIG    1       23.472 -21.082   5.520  0.00  0.00    +0.011 C 
ATOM     19  C   LIG    1       24.556 -20.313   4.743  0.00  0.00    +0.027 C 
ATOM     20  C   LIG    1       23.470 -20.552   6.968  0.00  0.00    +0.027 C 
ATOM     21  C   LIG    1       22.086 -20.799   4.916  0.00  0.00    +0.027 C 
ENDBRANCH  16  18
ENDBRANCH  15  16
ENDBRANCH   1  15
BRANCH   1  22
ATOM     22  O   LIG    1       26.398 -22.623   6.855  0.00  0.00    -0.453 OA
BRANCH  22  23
ATOM     23  C   LIG    1       26.798 -21.857   7.889  0.00  0.00    +0.340 C 
ATOM     24  O   LIG    1       26.376 -21.840   9.026  0.00  0.00    -0.245 OA
BRANCH  23  25
ATOM     25  C   LIG    1       27.898 -20.986   7.355  0.00  0.00    +0.059 C 
ATOM     26  C   LIG    1       27.660 -20.172   6.239  0.00  0.00    +0.015 C 
ATOM     27  C   LIG    1       28.671 -19.344   5.754  0.00  0.00    +0.001 C 
ATOM     28  C   LIG    1       29.931 -19.338   6.363  0.00  0.00    +0.000 C 
ATOM     29  C   LIG    1       30.187 -20.175   7.447  0.00  0.00    +0.001 C 
ATOM     30  C   LIG    1       29.178 -20.999   7.941  0.00  0.00    +0.015 C 
ENDBRANCH  23  25
ENDBRANCH  22  23
ENDBRANCH   1  22
TORSDOF 9
ENDMDL
MODEL 5
REMARK VINA RESULT:      -8.9      1.553      1.731
REMARK  Name = *****
REMARK                            x       y       z     vdW  Elec       q    Type
REMARK                         _______ _______ _______ _____ _____    ______ ____
ROOT
ATOM      1  C   LIG    1       25.043 -22.346   7.869  0.00  0.00    +0.228 C 
ENDROOT
BRANCH   1   2
ATOM      2  C   LIG    1       26.231 -21.381   7.853  0.00  0.00    +0.275 C 
BRANCH   2   3
ATOM      3  O   LIG    1       26.884 -21.424   6.592  0.00  0.00    -0.488 OA
BRANCH   3  12
ATOM      4  C   LIG    1       31.673 -21.962   9.482  0.00  0.00    +0.063 C 
ATOM      5  C   LIG    1       30.765 -21.321   8.503  0.00  0.00    +0.014 C 
ATOM      6  N   LIG    1       31.134 -20.199   7.802  0.00  0.00    -0.358 NA
ATOM      7  H   LIG    1       32.025 -19.731   7.883  0.00  0.00    +0.166 HD
ATOM      8  C   LIG    1       30.120 -19.794   6.964  0.00  0.00    +0.050 C 
ATOM      9  C   LIG    1       30.054 -18.712   6.081  0.00  0.00    +0.026 C 
ATOM     10  C   LIG    1       28.881 -18.558   5.339  0.00  0.00    +0.006 C 
ATOM     11  C   LIG    1       27.813 -19.447   5.479  0.00  0.00    +0.046 C 
ATOM     12  C   LIG    1       27.881 -20.514   6.387  0.00  0.00    +0.130 C 
ATOM     13  C   LIG    1       29.068 -20.694   7.129  0.00  0.00    +0.042 C 
ATOM     14  C   LIG    1       29.488 -21.649   8.100  0.00  0.00    +0.034 C 
ENDBRANCH   3  12
ENDBRANCH   2   3
ENDBRANCH   1   2
BRANCH   1  15
ATOM     15  C   LIG    1       25.068 -23.417   6.753  0.00  0.00    +0.129 C 
BRANCH  15  16
ATOM     16  N   LIG    1       25.836 -24.645   6.986  0.00  0.00    -0.308 NA
ATOM     17  H   LIG    1       25.701 -24.957   7.948  0.00  0.00    +0.123 HD
BRANCH  16  18
ATOM     18  C   LIG    1       25.551 -25.749   6.044  0.00  0.00    +0.011 C 
ATOM     19  C   LIG    1       26.795 -26.621   5.795  0.00  0.00    +0.027 C 
ATOM     20  C   LIG    1       25.130 -25.137   4.693  0.00  0.00    +0.027 C 
ATOM     21  C   LIG    1       24.387 -26.621   6.547  0.00  0.00    +0.027 C 
ENDBRANCH  16  18
ENDBRANCH  15  16
ENDBRANCH   1  15
BRANCH   1  22
ATOM     22  O   LIG    1       23.854 -21.542   7.614  0.00  0.00    -0.453 OA
BRANCH  22  23
ATOM     23  C   LIG    1       23.073 -21.893   6.572  0.00  0.00    +0.340 C 
ATOM     24  O   LIG    1       22.348 -22.859   6.463  0.00  0.00    -0.245 OA
BRANCH  23  25
ATOM     25  C   LIG    1       23.280 -20.836   5.528  0.00  0.00    +0.059 C 
ATOM     26  C   LIG    1       22.434 -19.719   5.491  0.00  0.00    +0.015 C 
ATOM     27  C   LIG    1       22.637 -18.722   4.539  0.00  0.00    +0.001 C 
ATOM     28  C   LIG    1       23.669 -18.843   3.602  0.00  0.00    +0.000 C 
ATOM     29  C   LIG    1       24.489 -19.970   3.606  0.00  0.00    +0.001 C 
ATOM     30  C   LIG    1       24.296 -20.965   4.561  0.00  0.00    +0.015 C 
ENDBRANCH  23  25
ENDBRANCH  22  23
ENDBRANCH   1  22
TORSDOF 9
ENDMDL
MODEL 6
REMARK VINA RESULT:      -8.7      1.998      7.304
REMARK  Name = *****
REMARK                            x       y       z     vdW  Elec       q    Type
REMARK                         _______ _______ _______ _____ _____    ______ ____
ROOT
ATOM      1  C   LIG    1       27.437 -20.428   6.869  0.00  0.00    +0.228 C 
ENDROOT
BRANCH   1   2
ATOM      2  C   LIG    1       27.443 -21.954   6.986  0.00  0.00    +0.275 C 
BRANCH   2   3
ATOM      3  O   LIG    1       26.530 -22.376   7.989  0.00  0.00    -0.488 OA
BRANCH   3  12
ATOM      4  C   LIG    1       25.423 -27.321   5.560  0.00  0.00    +0.063 C 
ATOM      5  C   LIG    1       25.077 -25.977   6.078  0.00  0.00    +0.014 C 
ATOM      6  N   LIG    1       23.798 -25.483   6.010  0.00  0.00    -0.358 NA
ATOM      7  H   LIG    1       23.006 -25.973   5.621  0.00  0.00    +0.166 HD
ATOM      8  C   LIG    1       23.736 -24.218   6.550  0.00  0.00    +0.050 C 
ATOM      9  C   LIG    1       22.653 -23.344   6.686  0.00  0.00    +0.026 C 
ATOM     10  C   LIG    1       22.894 -22.111   7.296  0.00  0.00    +0.006 C 
ATOM     11  C   LIG    1       24.168 -21.763   7.748  0.00  0.00    +0.046 C 
ATOM     12  C   LIG    1       25.253 -22.638   7.584  0.00  0.00    +0.130 C 
ATOM     13  C   LIG    1       25.020 -23.895   6.986  0.00  0.00    +0.042 C 
ATOM     14  C   LIG    1       25.854 -25.012   6.683  0.00  0.00    +0.034 C 
ENDBRANCH   3  12
ENDBRANCH   2   3
ENDBRANCH   1   2
BRANCH   1  15
ATOM     15  C   LIG    1       26.883 -19.888   5.529  0.00  0.00    +0.129 C 
BRANCH  15  16
ATOM     16  N   LIG    1       25.908 -20.705   4.801  0.00  0.00    -0.308 NA
ATOM     17  H   LIG    1       25.461 -21.362   5.442  0.00  0.00    +0.123 HD
BRANCH  16  18
ATOM     18  C   LIG    1       24.885 -19.943   4.053  0.00  0.00    +0.011 C 
ATOM     19  C   LIG    1       25.446 -18.617   3.507  0.00  0.00    +0.027 C 
ATOM     20  C   LIG    1       23.734 -19.600   5.021  0.00  0.00    +0.027 C 
ATOM     21  C   LIG    1       24.296 -20.782   2.905  0.00  0.00    +0.027 C 
ENDBRANCH  16  18
ENDBRANCH  15  16
ENDBRANCH   1  15
BRANCH   1  22
ATOM     22  O   LIG    1       28.831 -20.004   6.916  0.00  0.00    -0.453 OA
BRANCH  22  23
ATOM     23  C   LIG    1       29.560 -20.370   7.990  0.00  0.00    +0.340 C 
ATOM     24  O   LIG    1       29.638 -21.460   8.515  0.00  0.00    -0.245 OA
BRANCH  23  25
ATOM     25  C   LIG    1       30.276 -19.131   8.442  0.00  0.00    +0.059 C 
ATOM     26  C   LIG    1       29.644 -18.247   9.329  0.00  0.00    +0.015 C 
ATOM     27  C   LIG    1       30.314 -17.108   9.771  0.00  0.00    +0.001 C 
ATOM     28  C   LIG    1       31.608 -16.830   9.316  0.00  0.00    +0.000 C 
ATOM     29  C   LIG    1       32.227 -17.683   8.403  0.00  0.00    +0.001 C 
ATOM     30  C   LIG    1       31.565 -18.827   7.964  0.00  0.00    +0.015 C 
ENDBRANCH  23  25
ENDBRANCH  22  23
ENDBRANCH   1  22
TORSDOF 9
ENDMDL
MODEL 7
REMARK VINA RESULT:      -8.6      2.652      7.436
REMARK  Name = *****
REMARK                            x       y       z     vdW  Elec       q    Type
REMARK                         _______ _______ _______ _____ _____    ______ ____
ROOT
ATOM      1  C   LIG    1       25.619 -23.952   6.164  0.00  0.00    +0.228 C 
ENDROOT
BRANCH   1   2
ATOM      2  C   LIG    1       24.970 -25.195   6.777  0.00  0.00    +0.275 C 
BRANCH   2   3
ATOM      3  O   LIG    1       25.897 -26.271   6.807  0.00  0.00    -0.488 OA
BRANCH   3  12
ATOM      4  C   LIG    1       27.197 -29.830  10.957  0.00  0.00    +0.063 C 
ATOM      5  C   LIG    1       26.527 -29.429   9.699  0.00  0.00    +0.014 C 
ATOM      6  N   LIG    1       25.718 -30.294   9.002  0.00  0.00    -0.358 NA
ATOM      7  H   LIG    1       25.511 -31.243   9.277  0.00  0.00    +0.166 HD
ATOM      8  C   LIG    1       25.221 -29.689   7.871  0.00  0.00    +0.050 C 
ATOM      9  C   LIG    1       24.373 -30.187   6.877  0.00  0.00    +0.026 C 
ATOM     10  C   LIG    1       24.022 -29.323   5.837  0.00  0.00    +0.006 C 
ATOM     11  C   LIG    1       24.505 -28.014   5.790  0.00  0.00    +0.046 C 
ATOM     12  C   LIG    1       25.374 -27.532   6.780  0.00  0.00    +0.130 C 
ATOM     13  C   LIG    1       25.722 -28.389   7.846  0.00  0.00    +0.042 C 
ATOM     14  C   LIG    1       26.542 -28.239   9.003  0.00  0.00    +0.034 C 
ENDBRANCH   3  12
ENDBRANCH   2   3
ENDBRANCH   1   2
BRANCH   1  15
ATOM     15  C   LIG    1       26.156 -22.931   7.195  0.00  0.00    +0.129 C 
BRANCH  15  16
ATOM     16  N   LIG    1       27.388 -22.204   6.875  0.00  0.00    -0.308 NA
ATOM     17  H   LIG    1       27.663 -22.400   5.911  0.00  0.00    +0.123 HD
BRANCH  16  18
ATOM     18  C   LIG    1       27.331 -20.743   7.103  0.00  0.00    +0.011 C 
ATOM     19  C   LIG    1       27.243 -19.961   5.780  0.00  0.00    +0.027 C 
ATOM     20  C   LIG    1       28.630 -20.314   7.815  0.00  0.00    +0.027 C 
ATOM     21  C   LIG    1       26.151 -20.371   8.018  0.00  0.00    +0.027 C 
ENDBRANCH  16  18
ENDBRANCH  15  16
ENDBRANCH   1  15
BRANCH   1  22
ATOM     22  O   LIG    1       24.566 -23.255   5.434  0.00  0.00    -0.453 OA
BRANCH  22  23
ATOM     23  C   LIG    1       23.750 -22.443   6.136  0.00  0.00    +0.340 C 
ATOM     24  O   LIG    1       23.216 -22.650   7.206  0.00  0.00    -0.245 OA
BRANCH  23  25
ATOM     25  C   LIG    1       23.607 -21.194   5.317  0.00  0.00    +0.059 C 
ATOM     26  C   LIG    1       22.642 -20.239   5.668  0.00  0.00    +0.015 C 
ATOM     27  C   LIG    1       22.522 -19.067   4.925  0.00  0.00    +0.001 C 
ATOM     28  C   LIG    1       23.345 -18.848   3.815  0.00  0.00    +0.000 C 
ATOM     29  C   LIG    1       24.278 -19.810   3.435  0.00  0.00    +0.001 C 
ATOM     30  C   LIG    1       24.408 -20.981   4.180  0.00  0.00    +0.015 C 
ENDBRANCH  23  25
ENDBRANCH  22  23
ENDBRANCH   1  22
TORSDOF 9
ENDMDL
MODEL 8
REMARK VINA RESULT:      -8.2      1.714      6.997
REMARK  Name = *****
REMARK                            x       y       z     vdW  Elec       q    Type
REMARK                         _______ _______ _______ _____ _____    ______ ____
ROOT
ATOM      1  C   LIG    1       28.088 -21.203   7.137  0.00  0.00    +0.228 C 
ENDROOT
BRANCH   1   2
ATOM      2  C   LIG    1       27.152 -21.767   8.209  0.00  0.00    +0.275 C 
BRANCH   2   3
ATOM      3  O   LIG    1       26.679 -23.050   7.825  0.00  0.00    -0.488 OA
BRANCH   3  12
ATOM      4  C   LIG    1       24.879 -27.708   5.247  0.00  0.00    +0.063 C 
ATOM      5  C   LIG    1       24.721 -26.357   5.835  0.00  0.00    +0.014 C 
ATOM      6  N   LIG    1       23.510 -25.709   5.844  0.00  0.00    -0.358 NA
ATOM      7  H   LIG    1       22.650 -26.082   5.470  0.00  0.00    +0.166 HD
ATOM      8  C   LIG    1       23.626 -24.473   6.437  0.00  0.00    +0.050 C 
ATOM      9  C   LIG    1       22.665 -23.481   6.656  0.00  0.00    +0.026 C 
ATOM     10  C   LIG    1       23.079 -22.315   7.305  0.00  0.00    +0.006 C 
ATOM     11  C   LIG    1       24.403 -22.146   7.714  0.00  0.00    +0.046 C 
ATOM     12  C   LIG    1       25.364 -23.137   7.467  0.00  0.00    +0.130 C 
ATOM     13  C   LIG    1       24.956 -24.328   6.829  0.00  0.00    +0.042 C 
ATOM     14  C   LIG    1       25.633 -25.522   6.444  0.00  0.00    +0.034 C 
ENDBRANCH   3  12
ENDBRANCH   2   3
ENDBRANCH   1   2
BRANCH   1  15
ATOM     15  C   LIG    1       29.541 -20.966   7.611  0.00  0.00    +0.129 C 
BRANCH  15  16
ATOM     16  N   LIG    1       29.765 -20.040   8.725  0.00  0.00    -0.308 NA
ATOM     17  H   LIG    1       30.084 -20.558   9.545  0.00  0.00    +0.123 HD
BRANCH  16  18
ATOM     18  C   LIG    1       30.689 -18.922   8.435  0.00  0.00    +0.011 C 
ATOM     19  C   LIG    1       31.652 -18.658   9.606  0.00  0.00    +0.027 C 
ATOM     20  C   LIG    1       29.851 -17.645   8.220  0.00  0.00    +0.027 C 
ATOM     21  C   LIG    1       31.485 -19.181   7.143  0.00  0.00    +0.027 C 
ENDBRANCH  16  18
ENDBRANCH  15  16
ENDBRANCH   1  15
BRANCH   1  22
ATOM     22  O   LIG    1       27.570 -19.886   6.787  0.00  0.00    -0.453 OA
BRANCH  22  23
ATOM     23  C   LIG    1       27.797 -19.436   5.537  0.00  0.00    +0.340 C 
ATOM     24  O   LIG    1       28.819 -18.973   5.074  0.00  0.00    -0.245 OA
BRANCH  23  25
ATOM     25  C   LIG    1       26.504 -19.606   4.796  0.00  0.00    +0.059 C 
ATOM     26  C   LIG    1       26.064 -18.600   3.924  0.00  0.00    +0.015 C 
ATOM     27  C   LIG    1       24.876 -18.765   3.215  0.00  0.00    +0.001 C 
ATOM     28  C   LIG    1       24.106 -19.920   3.387  0.00  0.00    +0.000 C 
ATOM     29  C   LIG    1       24.516 -20.907   4.283  0.00  0.00    +0.001 C 
ATOM     30  C   LIG    1       25.707 -20.751   4.988  0.00  0.00    +0.015 C 
ENDBRANCH  23  25
ENDBRANCH  22  23
ENDBRANCH   1  22
TORSDOF 9
ENDMDL
MODEL 9
REMARK VINA RESULT:      -8.2      2.035      6.873
REMARK  Name = *****
REMARK                            x       y       z     vdW  Elec       q    Type
REMARK                         _______ _______ _______ _____ _____    ______ ____
ROOT
ATOM      1  C   LIG    1       25.792 -22.367   7.286  0.00  0.00    +0.228 C 
ENDROOT
BRANCH   1   2
ATOM      2  C   LIG    1       25.426 -23.826   7.571  0.00  0.00    +0.275 C 
BRANCH   2   3
ATOM      3  O   LIG    1       26.263 -24.699   6.825  0.00  0.00    -0.488 OA
BRANCH   3  12
ATOM      4  C   LIG    1       26.711 -29.530   9.661  0.00  0.00    +0.063 C 
ATOM      5  C   LIG    1       26.262 -28.673   8.539  0.00  0.00    +0.014 C 
ATOM      6  N   LIG    1       25.517 -29.174   7.499  0.00  0.00    -0.358 NA
ATOM      7  H   LIG    1       25.215 -30.133   7.411  0.00  0.00    +0.166 HD
ATOM      8  C   LIG    1       25.232 -28.185   6.586  0.00  0.00    +0.050 C 
ATOM      9  C   LIG    1       24.515 -28.241   5.387  0.00  0.00    +0.026 C 
ATOM     10  C   LIG    1       24.376 -27.053   4.664  0.00  0.00    +0.006 C 
ATOM     11  C   LIG    1       24.937 -25.859   5.119  0.00  0.00    +0.046 C 
ATOM     12  C   LIG    1       25.676 -25.820   6.311  0.00  0.00    +0.130 C 
ATOM     13  C   LIG    1       25.808 -27.008   7.061  0.00  0.00    +0.042 C 
ATOM     14  C   LIG    1       26.452 -27.330   8.292  0.00  0.00    +0.034 C 
ENDBRANCH   3  12
ENDBRANCH   2   3
ENDBRANCH   1   2
BRANCH   1  15
ATOM     15  C   LIG    1       26.775 -21.740   8.302  0.00  0.00    +0.129 C 
BRANCH  15  16
ATOM     16  N   LIG    1       27.162 -20.337   8.118  0.00  0.00    -0.308 NA
ATOM     17  H   LIG    1       27.178 -19.864   9.023  0.00  0.00    +0.123 HD
BRANCH  16  18
ATOM     18  C   LIG    1       28.443 -20.128   7.408  0.00  0.00    +0.011 C 
ATOM     19  C   LIG    1       28.230 -19.907   5.900  0.00  0.00    +0.027 C 
ATOM     20  C   LIG    1       29.303 -21.397   7.579  0.00  0.00    +0.027 C 
ATOM     21  C   LIG    1       29.225 -18.948   8.011  0.00  0.00    +0.027 C 
ENDBRANCH  16  18
ENDBRANCH  15  16
ENDBRANCH   1  15
BRANCH   1  22
ATOM     22  O   LIG    1       24.558 -21.601   7.409  0.00  0.00    -0.453 OA
BRANCH  22  23
ATOM     23  C   LIG    1       23.571 -21.859   6.529  0.00  0.00    +0.340 C 
ATOM     24  O   LIG    1       22.789 -22.786   6.521  0.00  0.00    -0.245 OA
BRANCH  23  25
ATOM     25  C   LIG    1       23.623 -20.753   5.516  0.00  0.00    +0.059 C 
ATOM     26  C   LIG    1       22.545 -19.863   5.401  0.00  0.00    +0.015 C 
ATOM     27  C   LIG    1       22.599 -18.821   4.479  0.00  0.00    +0.001 C 
ATOM     28  C   LIG    1       23.716 -18.671   3.648  0.00  0.00    +0.000 C 
ATOM     29  C   LIG    1       24.773 -19.575   3.728  0.00  0.00    +0.001 C 
ATOM     30  C   LIG    1       24.728 -20.615   4.654  0.00  0.00    +0.015 C 
ENDBRANCH  23  25
ENDBRANCH  22  23
ENDBRANCH   1  22
TORSDOF 9
ENDMDL
