MODEL 1
REMARK VINA RESULT:      -6.7      0.000      0.000
REMARK  Name = *****
REMARK                            x       y       z     vdW  Elec       q    Type
REMARK                         _______ _______ _______ _____ _____    ______ ____
ROOT
ATOM      1  C   LIG    1       22.348 -28.695  11.898  0.00  0.00    +0.064 C 
ATOM      2  C   LIG    1       23.572 -27.964  12.518  0.00  0.00    +0.119 C 
ATOM      3  C   LIG    1       24.869 -28.749  12.619  0.00  0.00    +0.074 C 
ATOM      4  C   LIG    1       24.757 -29.425  13.960  0.00  0.00    +0.239 C 
ATOM      5  O   LIG    1       24.088 -28.457  14.769  0.00  0.00    -0.464 OA
ATOM      6  C   LIG    1       25.169 -29.641  11.430  0.00  0.00    +0.159 C 
ATOM      7  C   LIG    1       23.975 -30.493  11.051  0.00  0.00    -0.011 A 
ATOM      8  C   LIG    1       24.160 -31.804  10.570  0.00  0.00    +0.056 A 
ATOM      9  C   LIG    1       23.074 -32.468  10.033  0.00  0.00    +0.167 A 
ATOM     10  O   LIG    1       23.072 -33.734   9.536  0.00  0.00    -0.453 OA
ATOM     11  C   LIG    1       21.728 -33.821   9.015  0.00  0.00    +0.466 C 
ATOM     12  O   LIG    1       20.928 -32.657   9.303  0.00  0.00    -0.453 OA
ATOM     13  C   LIG    1       21.847 -31.867   9.919  0.00  0.00    +0.167 A 
ATOM     14  C   LIG    1       21.615 -30.612  10.424  0.00  0.00    +0.054 A 
ATOM     15  C   LIG    1       23.415 -27.562  13.965  0.00  0.00    +0.312 C 
ATOM     16  O   LIG    1       22.824 -26.588  14.365  0.00  0.00    -0.251 OA
ATOM     17  C   LIG    1       22.672 -29.943  11.080  0.00  0.00    -0.030 A 
ENDROOT
BRANCH   1  22
ATOM     18  C   LIG    1       19.150 -28.364  14.062  0.00  0.00    +0.165 A 
ATOM     19  C   LIG    1       19.127 -29.623  14.660  0.00  0.00    +0.201 A 
ATOM     20  C   LIG    1       20.152 -30.554  14.418  0.00  0.00    +0.165 A 
ATOM     21  C   LIG    1       21.191 -30.235  13.543  0.00  0.00    +0.053 A 
ATOM     22  C   LIG    1       21.216 -28.996  12.891  0.00  0.00    -0.032 A 
ATOM     23  C   LIG    1       20.209 -28.061  13.198  0.00  0.00    +0.053 A 
BRANCH  18  25
ATOM     24  C   LIG    1       18.666 -26.046  13.787  0.00  0.00    +0.277 C 
ATOM     25  O   LIG    1       18.248 -27.341  14.196  0.00  0.00    -0.491 OA
ENDBRANCH  18  25
BRANCH  19  26
ATOM     26  O   LIG    1       18.114 -30.012  15.498  0.00  0.00    -0.501 OA
ATOM     27  H   LIG    1       18.523 -30.656  16.109  0.00  0.00    +0.292 HD
ENDBRANCH  19  26
BRANCH  20  28
ATOM     28  O   LIG    1       20.012 -31.747  15.086  0.00  0.00    -0.491 OA
ATOM     29  C   LIG    1       21.002 -32.737  14.829  0.00  0.00    +0.277 C 
ENDBRANCH  20  28
ENDBRANCH   1  22
BRANCH   6  30
ATOM     30  O   LIG    1       25.464 -28.871  10.247  0.00  0.00    -0.340 OA
BRANCH  30  31
ATOM     31  C   LIG    1       26.359 -29.438   9.283  0.00  0.00    +0.282 C 
ATOM     32  C   LIG    1       25.687 -30.374   8.255  0.00  0.00    +0.201 C 
ATOM     33  C   LIG    1       24.941 -29.578   7.182  0.00  0.00    +0.179 C 
ATOM     34  C   LIG    1       24.882 -28.067   7.456  0.00  0.00    +0.184 C 
ATOM     35  C   LIG    1       26.275 -27.537   7.776  0.00  0.00    +0.178 C 
ATOM     36  C   LIG    1       27.006 -27.296   6.460  0.00  0.00    +0.197 C 
ATOM     37  O   LIG    1       26.313 -26.473   5.538  0.00  0.00    -0.344 OA
ATOM     38  C   LIG    1       24.898 -26.415   5.660  0.00  0.00    +0.289 C 
ATOM     39  O   LIG    1       24.243 -27.493   6.313  0.00  0.00    -0.338 OA
ATOM     40  O   LIG    1       27.072 -28.392   8.601  0.00  0.00    -0.341 OA
BRANCH  38  41
ATOM     41  C   LIG    1       24.506 -25.089   6.263  0.00  0.00    +0.045 A 
ATOM     42  S   LIG    1       25.702 -23.987   6.824  0.00  0.00    -0.097 S 
ATOM     43  C   LIG    1       24.523 -22.871   7.367  0.00  0.00    +0.045 A 
ATOM     44  C   LIG    1       23.244 -23.334   7.163  0.00  0.00    +0.008 A 
ATOM     45  C   LIG    1       23.236 -24.618   6.550  0.00  0.00    +0.016 A 
ENDBRANCH  38  41
BRANCH  32  46
ATOM     46  O   LIG    1       26.687 -31.197   7.623  0.00  0.00    -0.384 OA
ATOM     47  H   LIG    1       26.868 -30.806   6.748  0.00  0.00    +0.210 HD
ENDBRANCH  32  46
BRANCH  33  48
ATOM     48  O   LIG    1       23.603 -30.091   7.065  0.00  0.00    -0.386 OA
ATOM     49  H   LIG    1       23.453 -30.213   6.104  0.00  0.00    +0.210 HD
ENDBRANCH  33  48
ENDBRANCH  30  31
ENDBRANCH   6  30
TORSDOF 9
ENDMDL
MODEL 2
REMARK VINA RESULT:      -6.7      2.996      8.446
REMARK  Name = *****
REMARK                            x       y       z     vdW  Elec       q    Type
REMARK                         _______ _______ _______ _____ _____    ______ ____
ROOT
ATOM      1  C   LIG    1       24.424 -30.720   8.254  0.00  0.00    +0.064 C 
ATOM      2  C   LIG    1       25.062 -31.342   9.527  0.00  0.00    +0.119 C 
ATOM      3  C   LIG    1       26.309 -30.669  10.075  0.00  0.00    +0.074 C 
ATOM      4  C   LIG    1       27.424 -31.361   9.336  0.00  0.00    +0.239 C 
ATOM      5  O   LIG    1       26.963 -32.708   9.217  0.00  0.00    -0.464 OA
ATOM      6  C   LIG    1       26.294 -29.154  10.020  0.00  0.00    +0.159 C 
ATOM      7  C   LIG    1       25.885 -28.645   8.653  0.00  0.00    -0.011 A 
ATOM      8  C   LIG    1       26.462 -27.473   8.127  0.00  0.00    +0.056 A 
ATOM      9  C   LIG    1       25.912 -26.922   6.986  0.00  0.00    +0.167 A 
ATOM     10  O   LIG    1       26.348 -25.806   6.342  0.00  0.00    -0.453 OA
ATOM     11  C   LIG    1       25.328 -25.660   5.329  0.00  0.00    +0.466 C 
ATOM     12  O   LIG    1       24.373 -26.740   5.320  0.00  0.00    -0.453 OA
ATOM     13  C   LIG    1       24.802 -27.462   6.388  0.00  0.00    +0.167 A 
ATOM     14  C   LIG    1       24.245 -28.633   6.840  0.00  0.00    +0.054 A 
ATOM     15  C   LIG    1       25.593 -32.745   9.361  0.00  0.00    +0.312 C 
ATOM     16  O   LIG    1       24.931 -33.755   9.384  0.00  0.00    -0.251 OA
ATOM     17  C   LIG    1       24.845 -29.287   7.938  0.00  0.00    -0.030 A 
ENDROOT
BRANCH   1  22
ATOM     18  C   LIG    1       23.576 -33.143   5.349  0.00  0.00    +0.165 A 
ATOM     19  C   LIG    1       24.778 -33.108   4.643  0.00  0.00    +0.201 A 
ATOM     20  C   LIG    1       25.870 -32.361   5.116  0.00  0.00    +0.165 A 
ATOM     21  C   LIG    1       25.748 -31.614   6.288  0.00  0.00    +0.053 A 
ATOM     22  C   LIG    1       24.539 -31.591   6.994  0.00  0.00    -0.032 A 
ATOM     23  C   LIG    1       23.481 -32.395   6.530  0.00  0.00    +0.053 A 
BRANCH  18  25
ATOM     24  C   LIG    1       22.013 -33.823   3.682  0.00  0.00    +0.277 C 
ATOM     25  O   LIG    1       22.427 -33.821   5.042  0.00  0.00    -0.491 OA
ENDBRANCH  18  25
BRANCH  19  26
ATOM     26  O   LIG    1       24.949 -33.790   3.465  0.00  0.00    -0.501 OA
ATOM     27  H   LIG    1       24.189 -33.528   2.908  0.00  0.00    +0.292 HD
ENDBRANCH  19  26
BRANCH  20  28
ATOM     28  O   LIG    1       26.996 -32.433   4.331  0.00  0.00    -0.491 OA
ATOM     29  C   LIG    1       27.693 -33.674   4.336  0.00  0.00    +0.277 C 
ENDBRANCH  20  28
ENDBRANCH   1  22
BRANCH   6  30
ATOM     30  O   LIG    1       25.322 -28.597  10.928  0.00  0.00    -0.340 OA
BRANCH  30  31
ATOM     31  C   LIG    1       25.606 -28.650  12.331  0.00  0.00    +0.282 C 
ATOM     32  C   LIG    1       25.053 -27.459  13.143  0.00  0.00    +0.201 C 
ATOM     33  C   LIG    1       23.547 -27.600  13.382  0.00  0.00    +0.179 C 
ATOM     34  C   LIG    1       22.905 -28.778  12.632  0.00  0.00    +0.184 C 
ATOM     35  C   LIG    1       23.703 -30.053  12.877  0.00  0.00    +0.178 C 
ATOM     36  C   LIG    1       23.266 -30.636  14.216  0.00  0.00    +0.197 C 
ATOM     37  O   LIG    1       21.870 -30.836  14.351  0.00  0.00    -0.344 OA
ATOM     38  C   LIG    1       21.021 -30.032  13.542  0.00  0.00    +0.289 C 
ATOM     39  O   LIG    1       21.540 -28.804  13.053  0.00  0.00    -0.338 OA
ATOM     40  O   LIG    1       25.123 -29.886  12.883  0.00  0.00    -0.341 OA
BRANCH  38  41
ATOM     41  C   LIG    1       20.456 -30.874  12.425  0.00  0.00    +0.045 A 
ATOM     42  S   LIG    1       19.956 -32.496  12.709  0.00  0.00    -0.097 S 
ATOM     43  C   LIG    1       19.545 -32.733  11.065  0.00  0.00    +0.045 A 
ATOM     44  C   LIG    1       19.813 -31.620  10.301  0.00  0.00    +0.008 A 
ATOM     45  C   LIG    1       20.358 -30.562  11.080  0.00  0.00    +0.016 A 
ENDBRANCH  38  41
BRANCH  32  46
ATOM     46  O   LIG    1       25.727 -27.383  14.414  0.00  0.00    -0.384 OA
ATOM     47  H   LIG    1       25.111 -27.729  15.087  0.00  0.00    +0.210 HD
ENDBRANCH  32  46
BRANCH  33  48
ATOM     48  O   LIG    1       22.896 -26.378  12.993  0.00  0.00    -0.386 OA
ATOM     49  H   LIG    1       22.399 -26.085  13.785  0.00  0.00    +0.210 HD
ENDBRANCH  33  48
ENDBRANCH  30  31
ENDBRANCH   6  30
TORSDOF 9
ENDMDL
MODEL 3
REMARK VINA RESULT:      -4.8      2.822      7.669
REMARK  Name = *****
REMARK                            x       y       z     vdW  Elec       q    Type
REMARK                         _______ _______ _______ _____ _____    ______ ____
ROOT
ATOM      1  C   LIG    1       24.694 -30.434   9.156  0.00  0.00    +0.064 C 
ATOM      2  C   LIG    1       25.714 -31.055  10.151  0.00  0.00    +0.119 C 
ATOM      3  C   LIG    1       27.135 -30.520  10.107  0.00  0.00    +0.074 C 
ATOM      4  C   LIG    1       27.800 -31.398   9.080  0.00  0.00    +0.239 C 
ATOM      5  O   LIG    1       27.199 -32.677   9.291  0.00  0.00    -0.464 OA
ATOM      6  C   LIG    1       27.249 -29.023   9.897  0.00  0.00    +0.159 C 
ATOM      7  C   LIG    1       26.390 -28.550   8.742  0.00  0.00    -0.011 A 
ATOM      8  C   LIG    1       26.828 -27.500   7.913  0.00  0.00    +0.056 A 
ATOM      9  C   LIG    1       25.932 -26.953   7.014  0.00  0.00    +0.167 A 
ATOM     10  O   LIG    1       26.190 -25.947   6.135  0.00  0.00    -0.453 OA
ATOM     11  C   LIG    1       24.876 -25.730   5.577  0.00  0.00    +0.466 C 
ATOM     12  O   LIG    1       23.892 -26.673   6.049  0.00  0.00    -0.453 OA
ATOM     13  C   LIG    1       24.631 -27.378   6.945  0.00  0.00    +0.167 A 
ATOM     14  C   LIG    1       24.182 -28.434   7.699  0.00  0.00    +0.054 A 
ATOM     15  C   LIG    1       25.997 -32.524   9.948  0.00  0.00    +0.312 C 
ATOM     16  O   LIG    1       25.302 -33.434  10.331  0.00  0.00    -0.251 OA
ATOM     17  C   LIG    1       25.096 -29.092   8.551  0.00  0.00    -0.030 A 
ENDROOT
BRANCH   1  22
ATOM     18  C   LIG    1       22.671 -33.087   7.182  0.00  0.00    +0.165 A 
ATOM     19  C   LIG    1       23.356 -33.063   5.968  0.00  0.00    +0.201 A 
ATOM     20  C   LIG    1       24.488 -32.248   5.795  0.00  0.00    +0.165 A 
ATOM     21  C   LIG    1       24.917 -31.423   6.835  0.00  0.00    +0.053 A 
ATOM     22  C   LIG    1       24.222 -31.389   8.050  0.00  0.00    -0.032 A 
ATOM     23  C   LIG    1       23.128 -32.259   8.215  0.00  0.00    +0.053 A 
BRANCH  18  25
ATOM     24  C   LIG    1       20.875 -33.451   8.708  0.00  0.00    +0.277 C 
ATOM     25  O   LIG    1       21.568 -33.824   7.524  0.00  0.00    -0.491 OA
ENDBRANCH  18  25
BRANCH  19  26
ATOM     26  O   LIG    1       22.960 -33.822   4.895  0.00  0.00    -0.501 OA
ATOM     27  H   LIG    1       23.238 -34.733   5.113  0.00  0.00    +0.292 HD
ENDBRANCH  19  26
BRANCH  20  28
ATOM     28  O   LIG    1       25.075 -32.339   4.556  0.00  0.00    -0.491 OA
ATOM     29  C   LIG    1       26.231 -33.163   4.461  0.00  0.00    +0.277 C 
ENDBRANCH  20  28
ENDBRANCH   1  22
BRANCH   6  30
ATOM     30  O   LIG    1       26.767 -28.287  11.041  0.00  0.00    -0.340 OA
BRANCH  30  31
ATOM     31  C   LIG    1       27.351 -28.572  12.318  0.00  0.00    +0.282 C 
ATOM     32  C   LIG    1       27.851 -27.330  13.086  0.00  0.00    +0.201 C 
ATOM     33  C   LIG    1       26.688 -26.565  13.723  0.00  0.00    +0.179 C 
ATOM     34  C   LIG    1       25.301 -27.093  13.321  0.00  0.00    +0.184 C 
ATOM     35  C   LIG    1       25.239 -28.603  13.512  0.00  0.00    +0.178 C 
ATOM     36  C   LIG    1       24.948 -28.884  14.981  0.00  0.00    +0.197 C 
ATOM     37  O   LIG    1       23.804 -28.227  15.497  0.00  0.00    -0.344 OA
ATOM     38  C   LIG    1       23.393 -27.034  14.840  0.00  0.00    +0.289 C 
ATOM     39  O   LIG    1       24.364 -26.327  14.081  0.00  0.00    -0.338 OA
ATOM     40  O   LIG    1       26.422 -29.310  13.128  0.00  0.00    -0.341 OA
BRANCH  38  41
ATOM     41  C   LIG    1       22.157 -27.317  14.025  0.00  0.00    +0.045 A 
ATOM     42  S   LIG    1       21.577 -28.926  13.830  0.00  0.00    -0.097 S 
ATOM     43  C   LIG    1       20.301 -28.420  12.809  0.00  0.00    +0.045 A 
ATOM     44  C   LIG    1       20.329 -27.062  12.584  0.00  0.00    +0.008 A 
ATOM     45  C   LIG    1       21.409 -26.435  13.265  0.00  0.00    +0.016 A 
ENDBRANCH  38  41
BRANCH  32  46
ATOM     46  O   LIG    1       28.770 -27.736  14.119  0.00  0.00    -0.384 OA
ATOM     47  H   LIG    1       28.739 -28.711  14.163  0.00  0.00    +0.210 HD
ENDBRANCH  32  46
BRANCH  33  48
ATOM     48  O   LIG    1       26.790 -25.176  13.364  0.00  0.00    -0.386 OA
ATOM     49  H   LIG    1       27.230 -25.166  12.489  0.00  0.00    +0.210 HD
ENDBRANCH  33  48
ENDBRANCH  30  31
ENDBRANCH   6  30
TORSDOF 9
ENDMDL
MODEL 4
REMARK VINA RESULT:      -4.6      1.834      2.549
REMARK  Name = *****
REMARK                            x       y       z     vdW  Elec       q    Type
REMARK                         _______ _______ _______ _____ _____    ______ ____
ROOT
ATOM      1  C   LIG    1       24.013 -29.206  11.197  0.00  0.00    +0.064 C 
ATOM      2  C   LIG    1       25.196 -28.272  11.578  0.00  0.00    +0.119 C 
ATOM      3  C   LIG    1       26.581 -28.683  11.107  0.00  0.00    +0.074 C 
ATOM      4  C   LIG    1       27.079 -29.555  12.229  0.00  0.00    +0.239 C 
ATOM      5  O   LIG    1       26.543 -28.936  13.400  0.00  0.00    -0.464 OA
ATOM      6  C   LIG    1       26.632 -29.273   9.712  0.00  0.00    +0.159 C 
ATOM      7  C   LIG    1       25.585 -30.350   9.518  0.00  0.00    -0.011 A 
ATOM      8  C   LIG    1       25.861 -31.475   8.716  0.00  0.00    +0.056 A 
ATOM      9  C   LIG    1       24.818 -32.321   8.387  0.00  0.00    +0.167 A 
ATOM     10  O   LIG    1       24.908 -33.451   7.636  0.00  0.00    -0.453 OA
ATOM     11  C   LIG    1       23.516 -33.820   7.531  0.00  0.00    +0.466 C 
ATOM     12  O   LIG    1       22.641 -32.973   8.302  0.00  0.00    -0.453 OA
ATOM     13  C   LIG    1       23.531 -32.065   8.782  0.00  0.00    +0.167 A 
ATOM     14  C   LIG    1       23.232 -31.009   9.607  0.00  0.00    +0.054 A 
ATOM     15  C   LIG    1       25.466 -28.148  13.058  0.00  0.00    +0.312 C 
ATOM     16  O   LIG    1       24.859 -27.442  13.827  0.00  0.00    -0.251 OA
ATOM     17  C   LIG    1       24.287 -30.184  10.056  0.00  0.00    -0.030 A 
ENDROOT
BRANCH   1  22
ATOM     18  C   LIG    1       21.631 -30.181  14.095  0.00  0.00    +0.165 A 
ATOM     19  C   LIG    1       22.218 -31.378  14.502  0.00  0.00    +0.201 A 
ATOM     20  C   LIG    1       23.395 -31.847  13.894  0.00  0.00    +0.165 A 
ATOM     21  C   LIG    1       23.971 -31.129  12.846  0.00  0.00    +0.053 A 
ATOM     22  C   LIG    1       23.379 -29.947  12.384  0.00  0.00    -0.032 A 
ATOM     23  C   LIG    1       22.235 -29.471  13.050  0.00  0.00    +0.053 A 
BRANCH  18  25
ATOM     24  C   LIG    1       19.303 -29.735  13.835  0.00  0.00    +0.277 C 
ATOM     25  O   LIG    1       20.502 -29.577  14.582  0.00  0.00    -0.491 OA
ENDBRANCH  18  25
BRANCH  19  26
ATOM     26  O   LIG    1       21.678 -32.150  15.500  0.00  0.00    -0.501 OA
ATOM     27  H   LIG    1       20.983 -31.595  15.902  0.00  0.00    +0.292 HD
ENDBRANCH  19  26
BRANCH  20  28
ATOM     28  O   LIG    1       23.873 -33.029  14.407  0.00  0.00    -0.491 OA
ATOM     29  C   LIG    1       25.245 -33.047  14.785  0.00  0.00    +0.277 C 
ENDBRANCH  20  28
ENDBRANCH   1  22
BRANCH   6  30
ATOM     30  O   LIG    1       26.336 -28.284   8.703  0.00  0.00    -0.340 OA
BRANCH  30  31
ATOM     31  C   LIG    1       26.637 -28.605   7.340  0.00  0.00    +0.282 C 
ATOM     32  C   LIG    1       25.473 -29.258   6.563  0.00  0.00    +0.201 C 
ATOM     33  C   LIG    1       24.427 -28.219   6.150  0.00  0.00    +0.179 C 
ATOM     34  C   LIG    1       24.675 -26.820   6.736  0.00  0.00    +0.184 C 
ATOM     35  C   LIG    1       26.117 -26.394   6.486  0.00  0.00    +0.178 C 
ATOM     36  C   LIG    1       26.210 -25.845   5.067  0.00  0.00    +0.197 C 
ATOM     37  O   LIG    1       25.283 -24.817   4.766  0.00  0.00    -0.344 OA
ATOM     38  C   LIG    1       24.086 -24.780   5.534  0.00  0.00    +0.289 C 
ATOM     39  O   LIG    1       23.668 -25.981   6.167  0.00  0.00    -0.338 OA
ATOM     40  O   LIG    1       27.090 -27.430   6.648  0.00  0.00    -0.341 OA
BRANCH  38  41
ATOM     41  C   LIG    1       24.162 -23.639   6.516  0.00  0.00    +0.045 A 
ATOM     42  S   LIG    1       22.820 -22.585   6.749  0.00  0.00    -0.097 S 
ATOM     43  C   LIG    1       23.681 -21.621   7.872  0.00  0.00    +0.045 A 
ATOM     44  C   LIG    1       24.973 -22.061   8.045  0.00  0.00    +0.008 A 
ATOM     45  C   LIG    1       25.254 -23.206   7.248  0.00  0.00    +0.016 A 
ENDBRANCH  38  41
BRANCH  32  46
ATOM     46  O   LIG    1       25.983 -29.909   5.383  0.00  0.00    -0.384 OA
ATOM     47  H   LIG    1       26.895 -29.587   5.250  0.00  0.00    +0.210 HD
ENDBRANCH  32  46
BRANCH  33  48
ATOM     48  O   LIG    1       23.127 -28.680   6.555  0.00  0.00    -0.386 OA
ATOM     49  H   LIG    1       22.934 -28.210   7.393  0.00  0.00    +0.210 HD
ENDBRANCH  33  48
ENDBRANCH  30  31
ENDBRANCH   6  30
TORSDOF 9
ENDMDL
