MODEL 1
REMARK VINA RESULT:      -4.7      0.000      0.000
REMARK  Name = *****
REMARK                            x       y       z     vdW  Elec       q    Type
REMARK                         _______ _______ _______ _____ _____    ______ ____
ROOT
ATOM      1  C   LIG    1       25.983 -15.136   3.113  0.00  0.00    +0.144 C 
ENDROOT
BRANCH   1   2
ATOM      2  C   LIG    1       25.342 -16.422   3.738  0.00  0.00    +0.072 C 
ATOM      3  N   LIG    1       25.905 -17.641   3.102  0.00  0.00    -0.312 NA
ATOM      4  H   LIG    1       25.672 -17.625   2.106  0.00  0.00    +0.122 HD
ATOM      5  C   LIG    1       25.371 -18.874   3.689  0.00  0.00    +0.081 C 
ATOM      6  C   LIG    1       23.851 -18.947   3.594  0.00  0.00    +0.015 C 
ATOM      7  C   LIG    1       23.219 -17.741   4.268  0.00  0.00    +0.003 C 
ATOM      8  C   LIG    1       23.801 -16.459   3.693  0.00  0.00    +0.020 C 
ENDBRANCH   1   2
BRANCH   1   9
ATOM      9  C   LIG    1       25.159 -13.855   3.213  0.00  0.00    -0.032 A 
ATOM     10  C   LIG    1       24.651 -13.391   4.438  0.00  0.00    +0.004 A 
ATOM     11  C   LIG    1       23.919 -12.207   4.509  0.00  0.00    +0.000 A 
ATOM     12  C   LIG    1       23.711 -11.447   3.362  0.00  0.00    +0.000 A 
ATOM     13  C   LIG    1       24.219 -11.882   2.141  0.00  0.00    +0.000 A 
ATOM     14  C   LIG    1       24.931 -13.081   2.064  0.00  0.00    +0.004 A 
ENDBRANCH   1   9
BRANCH   1  15
ATOM     15  C   LIG    1       27.409 -14.891   3.627  0.00  0.00    +0.316 C 
ATOM     16  O   LIG    1       28.006 -15.578   4.440  0.00  0.00    -0.250 OA
BRANCH  15  18
ATOM     17  C   LIG    1       28.705 -12.984   4.027  0.00  0.00    +0.280 C 
ATOM     18  O   LIG    1       27.902 -13.722   3.100  0.00  0.00    -0.468 OA
ENDBRANCH  15  18
ENDBRANCH   1  15
TORSDOF 4
ENDMDL
MODEL 2
REMARK VINA RESULT:      -4.2      2.106      5.329
REMARK  Name = *****
REMARK                            x       y       z     vdW  Elec       q    Type
REMARK                         _______ _______ _______ _____ _____    ______ ____
ROOT
ATOM      1  C   LIG    1       25.196 -15.205   3.383  0.00  0.00    +0.144 C 
ENDROOT
BRANCH   1   2
ATOM      2  C   LIG    1       26.548 -14.663   3.961  0.00  0.00    +0.072 C 
ATOM      3  N   LIG    1       26.295 -13.799   5.144  0.00  0.00    -0.312 NA
ATOM      4  H   LIG    1       25.735 -12.997   4.846  0.00  0.00    +0.122 HD
ATOM      5  C   LIG    1       27.536 -13.308   5.751  0.00  0.00    +0.081 C 
ATOM      6  C   LIG    1       28.389 -12.521   4.762  0.00  0.00    +0.015 C 
ATOM      7  C   LIG    1       28.714 -13.374   3.547  0.00  0.00    +0.003 C 
ATOM      8  C   LIG    1       27.433 -13.923   2.939  0.00  0.00    +0.020 C 
ENDBRANCH   1   2
BRANCH   1   9
ATOM      9  C   LIG    1       24.929 -16.696   3.574  0.00  0.00    -0.032 A 
ATOM     10  C   LIG    1       23.655 -17.188   3.900  0.00  0.00    +0.004 A 
ATOM     11  C   LIG    1       23.430 -18.555   4.049  0.00  0.00    +0.000 A 
ATOM     12  C   LIG    1       24.468 -19.458   3.841  0.00  0.00    +0.000 A 
ATOM     13  C   LIG    1       25.735 -18.991   3.503  0.00  0.00    +0.000 A 
ATOM     14  C   LIG    1       25.968 -17.619   3.378  0.00  0.00    +0.004 A 
ENDBRANCH   1   9
BRANCH   1  15
ATOM     15  C   LIG    1       23.990 -14.384   3.865  0.00  0.00    +0.316 C 
ATOM     16  O   LIG    1       23.324 -14.607   4.863  0.00  0.00    -0.250 OA
BRANCH  15  18
ATOM     17  C   LIG    1       23.854 -12.076   3.500  0.00  0.00    +0.280 C 
ATOM     18  O   LIG    1       23.706 -13.393   2.958  0.00  0.00    -0.468 OA
ENDBRANCH  15  18
ENDBRANCH   1  15
TORSDOF 4
ENDMDL
MODEL 3
REMARK VINA RESULT:      -3.4      2.950      5.721
REMARK  Name = *****
REMARK                            x       y       z     vdW  Elec       q    Type
REMARK                         _______ _______ _______ _____ _____    ______ ____
ROOT
ATOM      1  C   LIG    1       26.125 -18.887   4.001  0.00  0.00    +0.144 C 
ENDROOT
BRANCH   1   2
ATOM      2  C   LIG    1       27.105 -19.034   5.215  0.00  0.00    +0.072 C 
ATOM      3  N   LIG    1       28.488 -18.669   4.809  0.00  0.00    -0.312 NA
ATOM      4  H   LIG    1       28.792 -19.315   4.077  0.00  0.00    +0.122 HD
ATOM      5  C   LIG    1       29.435 -18.743   5.926  0.00  0.00    +0.081 C 
ATOM      6  C   LIG    1       29.475 -20.131   6.556  0.00  0.00    +0.015 C 
ATOM      7  C   LIG    1       28.090 -20.539   7.029  0.00  0.00    +0.003 C 
ATOM      8  C   LIG    1       27.094 -20.422   5.885  0.00  0.00    +0.020 C 
ENDBRANCH   1   2
BRANCH   1   9
ATOM      9  C   LIG    1       24.704 -19.404   4.215  0.00  0.00    -0.032 A 
ATOM     10  C   LIG    1       24.432 -20.763   4.442  0.00  0.00    +0.004 A 
ATOM     11  C   LIG    1       23.129 -21.209   4.656  0.00  0.00    +0.000 A 
ATOM     12  C   LIG    1       22.078 -20.298   4.682  0.00  0.00    +0.000 A 
ATOM     13  C   LIG    1       22.328 -18.944   4.474  0.00  0.00    +0.000 A 
ATOM     14  C   LIG    1       23.630 -18.500   4.234  0.00  0.00    +0.004 A 
ENDBRANCH   1   9
BRANCH   1  15
ATOM     15  C   LIG    1       26.091 -17.452   3.454  0.00  0.00    +0.316 C 
ATOM     16  O   LIG    1       25.164 -16.937   2.852  0.00  0.00    -0.250 OA
BRANCH  15  18
ATOM     17  C   LIG    1       27.206 -15.417   3.756  0.00  0.00    +0.280 C 
ATOM     18  O   LIG    1       27.303 -16.842   3.667  0.00  0.00    -0.468 OA
ENDBRANCH  15  18
ENDBRANCH   1  15
TORSDOF 4
ENDMDL
MODEL 4
REMARK VINA RESULT:      -3.3      1.129      1.551
REMARK  Name = *****
REMARK                            x       y       z     vdW  Elec       q    Type
REMARK                         _______ _______ _______ _____ _____    ______ ____
ROOT
ATOM      1  C   LIG    1       25.473 -15.682   3.259  0.00  0.00    +0.144 C 
ENDROOT
BRANCH   1   2
ATOM      2  C   LIG    1       24.623 -16.781   3.985  0.00  0.00    +0.072 C 
ATOM      3  N   LIG    1       24.864 -18.111   3.366  0.00  0.00    -0.312 NA
ATOM      4  H   LIG    1       24.564 -18.074   2.389  0.00  0.00    +0.122 HD
ATOM      5  C   LIG    1       24.127 -19.183   4.044  0.00  0.00    +0.081 C 
ATOM      6  C   LIG    1       22.624 -18.929   4.057  0.00  0.00    +0.015 C 
ATOM      7  C   LIG    1       22.316 -17.597   4.718  0.00  0.00    +0.003 C 
ATOM      8  C   LIG    1       23.112 -16.487   4.047  0.00  0.00    +0.020 C 
ENDBRANCH   1   2
BRANCH   1   9
ATOM      9  C   LIG    1       24.932 -14.256   3.329  0.00  0.00    -0.032 A 
ATOM     10  C   LIG    1       24.509 -13.680   4.538  0.00  0.00    +0.004 A 
ATOM     11  C   LIG    1       24.039 -12.368   4.582  0.00  0.00    +0.000 A 
ATOM     12  C   LIG    1       24.016 -11.598   3.424  0.00  0.00    +0.000 A 
ATOM     13  C   LIG    1       24.445 -12.146   2.218  0.00  0.00    +0.000 A 
ATOM     14  C   LIG    1       24.893 -13.468   2.168  0.00  0.00    +0.004 A 
ENDBRANCH   1   9
BRANCH   1  15
ATOM     15  C   LIG    1       26.947 -15.712   3.689  0.00  0.00    +0.316 C 
ATOM     16  O   LIG    1       27.635 -14.742   3.960  0.00  0.00    -0.250 OA
BRANCH  15  18
ATOM     17  C   LIG    1       28.362 -17.288   4.686  0.00  0.00    +0.280 C 
ATOM     18  O   LIG    1       27.421 -17.001   3.646  0.00  0.00    -0.468 OA
ENDBRANCH  15  18
ENDBRANCH   1  15
TORSDOF 4
ENDMDL
MODEL 5
REMARK VINA RESULT:      -3.2      1.586      2.234
REMARK  Name = *****
REMARK                            x       y       z     vdW  Elec       q    Type
REMARK                         _______ _______ _______ _____ _____    ______ ____
ROOT
ATOM      1  C   LIG    1       26.190 -16.824   3.376  0.00  0.00    +0.144 C 
ENDROOT
BRANCH   1   2
ATOM      2  C   LIG    1       25.297 -17.987   3.928  0.00  0.00    +0.072 C 
ATOM      3  N   LIG    1       25.785 -19.298   3.423  0.00  0.00    -0.312 NA
ATOM      4  H   LIG    1       25.712 -19.300   2.402  0.00  0.00    +0.122 HD
ATOM      5  C   LIG    1       25.009 -20.423   3.953  0.00  0.00    +0.081 C 
ATOM      6  C   LIG    1       23.525 -20.308   3.620  0.00  0.00    +0.015 C 
ATOM      7  C   LIG    1       22.962 -19.001   4.151  0.00  0.00    +0.003 C 
ATOM      8  C   LIG    1       23.791 -17.832   3.640  0.00  0.00    +0.020 C 
ENDBRANCH   1   2
BRANCH   1   9
ATOM      9  C   LIG    1       25.541 -15.444   3.318  0.00  0.00    -0.032 A 
ATOM     10  C   LIG    1       24.476 -15.087   4.161  0.00  0.00    +0.004 A 
ATOM     11  C   LIG    1       23.912 -13.813   4.105  0.00  0.00    +0.000 A 
ATOM     12  C   LIG    1       24.427 -12.862   3.229  0.00  0.00    +0.000 A 
ATOM     13  C   LIG    1       25.492 -13.192   2.395  0.00  0.00    +0.000 A 
ATOM     14  C   LIG    1       26.041 -14.476   2.433  0.00  0.00    +0.004 A 
ENDBRANCH   1   9
BRANCH   1  15
ATOM     15  C   LIG    1       27.545 -16.744   4.096  0.00  0.00    +0.316 C 
ATOM     16  O   LIG    1       28.168 -15.723   4.338  0.00  0.00    -0.250 OA
BRANCH  15  18
ATOM     17  C   LIG    1       29.123 -18.020   5.261  0.00  0.00    +0.280 C 
ATOM     18  O   LIG    1       28.010 -18.009   4.361  0.00  0.00    -0.468 OA
ENDBRANCH  15  18
ENDBRANCH   1  15
TORSDOF 4
ENDMDL
MODEL 6
REMARK VINA RESULT:      -3.1      3.057      6.752
REMARK  Name = *****
REMARK                            x       y       z     vdW  Elec       q    Type
REMARK                         _______ _______ _______ _____ _____    ______ ____
ROOT
ATOM      1  C   LIG    1       26.111 -18.901   3.882  0.00  0.00    +0.144 C 
ENDROOT
BRANCH   1   2
ATOM      2  C   LIG    1       26.231 -17.346   4.037  0.00  0.00    +0.072 C 
ATOM      3  N   LIG    1       25.466 -16.660   2.962  0.00  0.00    -0.312 NA
ATOM      4  H   LIG    1       25.871 -16.920   2.059  0.00  0.00    +0.122 HD
ATOM      5  C   LIG    1       25.507 -15.200   3.094  0.00  0.00    +0.081 C 
ATOM      6  C   LIG    1       26.933 -14.660   3.083  0.00  0.00    +0.015 C 
ATOM      7  C   LIG    1       27.751 -15.300   4.192  0.00  0.00    +0.003 C 
ATOM      8  C   LIG    1       27.677 -16.815   4.086  0.00  0.00    +0.020 C 
ENDBRANCH   1   2
BRANCH   1   9
ATOM      9  C   LIG    1       26.690 -19.739   5.019  0.00  0.00    -0.032 A 
ATOM     10  C   LIG    1       25.887 -20.584   5.803  0.00  0.00    +0.004 A 
ATOM     11  C   LIG    1       26.441 -21.356   6.823  0.00  0.00    +0.000 A 
ATOM     12  C   LIG    1       27.812 -21.324   7.055  0.00  0.00    +0.000 A 
ATOM     13  C   LIG    1       28.627 -20.504   6.278  0.00  0.00    +0.000 A 
ATOM     14  C   LIG    1       28.070 -19.710   5.273  0.00  0.00    +0.004 A 
ENDBRANCH   1   9
BRANCH   1  15
ATOM     15  C   LIG    1       24.672 -19.344   3.576  0.00  0.00    +0.316 C 
ATOM     16  O   LIG    1       24.346 -20.316   2.916  0.00  0.00    -0.250 OA
BRANCH  15  18
ATOM     17  C   LIG    1       22.616 -19.037   4.651  0.00  0.00    +0.280 C 
ATOM     18  O   LIG    1       23.783 -18.429   4.087  0.00  0.00    -0.468 OA
ENDBRANCH  15  18
ENDBRANCH   1  15
TORSDOF 4
ENDMDL
MODEL 7
REMARK VINA RESULT:      -2.9      1.347      2.086
REMARK  Name = *****
REMARK                            x       y       z     vdW  Elec       q    Type
REMARK                         _______ _______ _______ _____ _____    ______ ____
ROOT
ATOM      1  C   LIG    1       26.875 -14.236   3.141  0.00  0.00    +0.144 C 
ENDROOT
BRANCH   1   2
ATOM      2  C   LIG    1       26.584 -15.648   3.755  0.00  0.00    +0.072 C 
ATOM      3  N   LIG    1       27.845 -16.424   3.886  0.00  0.00    -0.312 NA
ATOM      4  H   LIG    1       28.240 -16.561   2.952  0.00  0.00    +0.122 HD
ATOM      5  C   LIG    1       27.630 -17.737   4.503  0.00  0.00    +0.081 C 
ATOM      6  C   LIG    1       26.628 -18.583   3.724  0.00  0.00    +0.015 C 
ATOM      7  C   LIG    1       25.303 -17.852   3.596  0.00  0.00    +0.003 C 
ATOM      8  C   LIG    1       25.525 -16.472   2.996  0.00  0.00    +0.020 C 
ENDBRANCH   1   2
BRANCH   1   9
ATOM      9  C   LIG    1       25.727 -13.231   3.186  0.00  0.00    -0.032 A 
ATOM     10  C   LIG    1       25.369 -12.460   2.067  0.00  0.00    +0.004 A 
ATOM     11  C   LIG    1       24.303 -11.564   2.124  0.00  0.00    +0.000 A 
ATOM     12  C   LIG    1       23.554 -11.447   3.290  0.00  0.00    +0.000 A 
ATOM     13  C   LIG    1       23.883 -12.213   4.406  0.00  0.00    +0.000 A 
ATOM     14  C   LIG    1       24.967 -13.093   4.358  0.00  0.00    +0.004 A 
ENDBRANCH   1   9
BRANCH   1  15
ATOM     15  C   LIG    1       28.153 -13.606   3.717  0.00  0.00    +0.316 C 
ATOM     16  O   LIG    1       29.211 -13.466   3.127  0.00  0.00    -0.250 OA
BRANCH  15  18
ATOM     17  C   LIG    1       28.689 -12.129   5.451  0.00  0.00    +0.280 C 
ATOM     18  O   LIG    1       27.964 -13.292   5.041  0.00  0.00    -0.468 OA
ENDBRANCH  15  18
ENDBRANCH   1  15
TORSDOF 4
ENDMDL
MODEL 8
REMARK VINA RESULT:      -2.8      2.042      3.587
REMARK  Name = *****
REMARK                            x       y       z     vdW  Elec       q    Type
REMARK                         _______ _______ _______ _____ _____    ______ ____
ROOT
ATOM      1  C   LIG    1       24.849 -14.726   4.234  0.00  0.00    +0.144 C 
ENDROOT
BRANCH   1   2
ATOM      2  C   LIG    1       24.727 -16.157   3.608  0.00  0.00    +0.072 C 
ATOM      3  N   LIG    1       23.617 -16.909   4.251  0.00  0.00    -0.312 NA
ATOM      4  H   LIG    1       23.832 -17.016   5.245  0.00  0.00    +0.122 HD
ATOM      5  C   LIG    1       23.431 -18.239   3.663  0.00  0.00    +0.081 C 
ATOM      6  C   LIG    1       24.694 -19.089   3.749  0.00  0.00    +0.015 C 
ATOM      7  C   LIG    1       25.855 -18.385   3.068  0.00  0.00    +0.003 C 
ATOM      8  C   LIG    1       26.025 -16.987   3.644  0.00  0.00    +0.020 C 
ENDBRANCH   1   2
BRANCH   1   9
ATOM      9  C   LIG    1       26.227 -14.072   4.159  0.00  0.00    -0.032 A 
ATOM     10  C   LIG    1       26.904 -13.902   2.941  0.00  0.00    +0.004 A 
ATOM     11  C   LIG    1       28.153 -13.284   2.893  0.00  0.00    +0.000 A 
ATOM     12  C   LIG    1       28.730 -12.792   4.060  0.00  0.00    +0.000 A 
ATOM     13  C   LIG    1       28.068 -12.937   5.276  0.00  0.00    +0.000 A 
ATOM     14  C   LIG    1       26.828 -13.580   5.328  0.00  0.00    +0.004 A 
ENDBRANCH   1   9
BRANCH   1  15
ATOM     15  C   LIG    1       23.777 -13.766   3.697  0.00  0.00    +0.316 C 
ATOM     16  O   LIG    1       22.973 -14.011   2.814  0.00  0.00    -0.250 OA
BRANCH  15  18
ATOM     17  C   LIG    1       23.813 -11.447   3.382  0.00  0.00    +0.280 C 
ATOM     18  O   LIG    1       23.902 -12.539   4.303  0.00  0.00    -0.468 OA
ENDBRANCH  15  18
ENDBRANCH   1  15
TORSDOF 4
ENDMDL
MODEL 9
REMARK VINA RESULT:      -2.8      1.433      4.856
REMARK  Name = *****
REMARK                            x       y       z     vdW  Elec       q    Type
REMARK                         _______ _______ _______ _____ _____    ______ ____
ROOT
ATOM      1  C   LIG    1       24.993 -15.583   4.080  0.00  0.00    +0.144 C 
ENDROOT
BRANCH   1   2
ATOM      2  C   LIG    1       24.286 -14.256   3.639  0.00  0.00    +0.072 C 
ATOM      3  N   LIG    1       24.774 -13.831   2.301  0.00  0.00    -0.312 NA
ATOM      4  H   LIG    1       25.779 -13.648   2.364  0.00  0.00    +0.122 HD
ATOM      5  C   LIG    1       24.105 -12.617   1.822  0.00  0.00    +0.081 C 
ATOM      6  C   LIG    1       24.276 -11.447   2.785  0.00  0.00    +0.015 C 
ATOM      7  C   LIG    1       23.753 -11.813   4.163  0.00  0.00    +0.003 C 
ATOM      8  C   LIG    1       24.413 -13.096   4.646  0.00  0.00    +0.020 C 
ENDBRANCH   1   2
BRANCH   1   9
ATOM      9  C   LIG    1       24.135 -16.846   4.050  0.00  0.00    -0.032 A 
ATOM     10  C   LIG    1       24.663 -18.096   3.686  0.00  0.00    +0.004 A 
ATOM     11  C   LIG    1       23.867 -19.239   3.687  0.00  0.00    +0.000 A 
ATOM     12  C   LIG    1       22.536 -19.160   4.084  0.00  0.00    +0.000 A 
ATOM     13  C   LIG    1       21.997 -17.933   4.463  0.00  0.00    +0.000 A 
ATOM     14  C   LIG    1       22.788 -16.782   4.439  0.00  0.00    +0.004 A 
ENDBRANCH   1   9
BRANCH   1  15
ATOM     15  C   LIG    1       26.309 -15.818   3.322  0.00  0.00    +0.316 C 
ATOM     16  O   LIG    1       26.791 -16.903   3.043  0.00  0.00    -0.250 OA
BRANCH  15  18
ATOM     17  C   LIG    1       27.910 -14.273   4.049  0.00  0.00    +0.280 C 
ATOM     18  O   LIG    1       26.923 -14.616   3.070  0.00  0.00    -0.468 OA
ENDBRANCH  15  18
ENDBRANCH   1  15
TORSDOF 4
ENDMDL
