MODEL 1
REMARK VINA RESULT:      -3.0      0.000      0.000
REMARK  Name = *****
REMARK                            x       y       z     vdW  Elec       q    Type
REMARK                         _______ _______ _______ _____ _____    ______ ____
ROOT
ATOM      1  C   LIG    1       27.024 -15.632   3.952  0.00  0.00    -0.032 C 
ATOM      2  C   LIG    1       25.717 -15.414   3.624  0.00  0.00    -0.007 C 
ENDROOT
BRANCH   1   3
ATOM      3  C   LIG    1       27.540 -16.957   4.402  0.00  0.00    -0.021 A 
ATOM      4  C   LIG    1       28.766 -17.043   5.075  0.00  0.00    +0.008 A 
ATOM      5  C   LIG    1       29.241 -18.274   5.544  0.00  0.00    +0.001 A 
ATOM      6  C   LIG    1       28.492 -19.431   5.345  0.00  0.00    +0.000 A 
ATOM      7  C   LIG    1       27.269 -19.358   4.678  0.00  0.00    +0.001 A 
ATOM      8  C   LIG    1       26.796 -18.128   4.206  0.00  0.00    +0.008 A 
ENDBRANCH   1   3
BRANCH   2   9
ATOM      9  C   LIG    1       24.712 -16.494   3.816  0.00  0.00    -0.017 A 
ATOM     10  C   LIG    1       24.911 -17.779   3.302  0.00  0.00    +0.012 A 
ATOM     11  C   LIG    1       23.961 -18.786   3.522  0.00  0.00    +0.046 A 
ATOM     12  C   LIG    1       22.805 -18.513   4.257  0.00  0.00    +0.121 A 
ATOM     13  C   LIG    1       22.578 -17.217   4.721  0.00  0.00    +0.046 A 
ATOM     14  C   LIG    1       23.529 -16.216   4.514  0.00  0.00    +0.012 A 
BRANCH  12  15
ATOM     15  O   LIG    1       21.829 -19.420   4.571  0.00  0.00    -0.491 OA
BRANCH  15  16
ATOM     16  C   LIG    1       22.252 -20.787   4.652  0.00  0.00    +0.244 C 
BRANCH  16  17
ATOM     17  C   LIG    1       22.773 -21.058   6.077  0.00  0.00    +0.124 C 
BRANCH  17  18
ATOM     18  N   LIG    1       24.157 -21.572   6.149  0.00  0.00    -0.305 NA
ATOM     19  C   LIG    1       24.998 -20.795   7.061  0.00  0.00    +0.104 C 
ATOM     20  C   LIG    1       24.765 -21.571   4.815  0.00  0.00    +0.104 C 
ENDBRANCH  17  18
ENDBRANCH  16  17
ENDBRANCH  15  16
ENDBRANCH  12  15
ENDBRANCH   2   9
BRANCH   2  21
ATOM     21  C   LIG    1       25.270 -14.087   3.109  0.00  0.00    -0.017 A 
ATOM     22  C   LIG    1       24.019 -13.568   3.482  0.00  0.00    +0.008 A 
ATOM     23  C   LIG    1       23.605 -12.307   3.036  0.00  0.00    +0.001 A 
ATOM     24  C   LIG    1       24.443 -11.547   2.218  0.00  0.00    +0.000 A 
ATOM     25  C   LIG    1       25.689 -12.042   1.855  0.00  0.00    +0.001 A 
ATOM     26  C   LIG    1       26.103 -13.305   2.297  0.00  0.00    +0.008 A 
ENDBRANCH   2  21
BRANCH   1  28
ATOM     27  C   LIG    1       27.876 -13.480   5.046  0.00  0.00    +0.009 C 
ATOM     28  C   LIG    1       28.096 -14.554   3.991  0.00  0.00    +0.033 C 
ENDBRANCH   1  28
TORSDOF 8
ENDMDL
MODEL 2
REMARK VINA RESULT:      -1.9      2.599      6.437
REMARK  Name = *****
REMARK                            x       y       z     vdW  Elec       q    Type
REMARK                         _______ _______ _______ _____ _____    ______ ____
ROOT
ATOM      1  C   LIG    1       24.578 -20.208   5.226  0.00  0.00    -0.032 C 
ATOM      2  C   LIG    1       23.873 -19.258   4.544  0.00  0.00    -0.007 C 
ENDROOT
BRANCH   1   3
ATOM      3  C   LIG    1       26.018 -20.054   5.582  0.00  0.00    -0.021 A 
ATOM      4  C   LIG    1       26.525 -20.660   6.739  0.00  0.00    +0.008 A 
ATOM      5  C   LIG    1       27.884 -20.563   7.062  0.00  0.00    +0.001 A 
ATOM      6  C   LIG    1       28.749 -19.859   6.228  0.00  0.00    +0.000 A 
ATOM      7  C   LIG    1       28.256 -19.253   5.073  0.00  0.00    +0.001 A 
ATOM      8  C   LIG    1       26.897 -19.347   4.752  0.00  0.00    +0.008 A 
ENDBRANCH   1   3
BRANCH   2   9
ATOM      9  C   LIG    1       24.567 -18.050   4.021  0.00  0.00    -0.017 A 
ATOM     10  C   LIG    1       24.046 -16.766   4.211  0.00  0.00    +0.012 A 
ATOM     11  C   LIG    1       24.735 -15.643   3.734  0.00  0.00    +0.046 A 
ATOM     12  C   LIG    1       25.949 -15.797   3.062  0.00  0.00    +0.121 A 
ATOM     13  C   LIG    1       26.441 -17.080   2.821  0.00  0.00    +0.046 A 
ATOM     14  C   LIG    1       25.764 -18.200   3.307  0.00  0.00    +0.012 A 
BRANCH  12  15
ATOM     15  O   LIG    1       26.731 -14.778   2.587  0.00  0.00    -0.491 OA
BRANCH  15  16
ATOM     16  C   LIG    1       26.134 -13.475   2.606  0.00  0.00    +0.244 C 
BRANCH  16  17
ATOM     17  C   LIG    1       26.358 -12.851   3.998  0.00  0.00    +0.124 C 
BRANCH  17  18
ATOM     18  N   LIG    1       27.557 -13.335   4.714  0.00  0.00    -0.305 NA
ATOM     19  C   LIG    1       27.292 -13.617   6.126  0.00  0.00    +0.104 C 
ATOM     20  C   LIG    1       28.637 -12.349   4.613  0.00  0.00    +0.104 C 
ENDBRANCH  17  18
ENDBRANCH  16  17
ENDBRANCH  15  16
ENDBRANCH  12  15
ENDBRANCH   2   9
BRANCH   2  21
ATOM     21  C   LIG    1       22.415 -19.432   4.278  0.00  0.00    -0.017 A 
ATOM     22  C   LIG    1       21.651 -18.357   3.796  0.00  0.00    +0.008 A 
ATOM     23  C   LIG    1       20.291 -18.517   3.507  0.00  0.00    +0.001 A 
ATOM     24  C   LIG    1       19.682 -19.761   3.688  0.00  0.00    +0.000 A 
ATOM     25  C   LIG    1       20.430 -20.836   4.149  0.00  0.00    +0.001 A 
ATOM     26  C   LIG    1       21.791 -20.676   4.444  0.00  0.00    +0.008 A 
ENDBRANCH   2  21
BRANCH   1  28
ATOM     27  C   LIG    1       23.121 -21.546   6.851  0.00  0.00    +0.009 C 
ATOM     28  C   LIG    1       24.027 -21.568   5.629  0.00  0.00    +0.033 C 
ENDBRANCH   1  28
TORSDOF 8
ENDMDL
MODEL 3
REMARK VINA RESULT:      -1.7      2.617      6.580
REMARK  Name = *****
REMARK                            x       y       z     vdW  Elec       q    Type
REMARK                         _______ _______ _______ _____ _____    ______ ____
ROOT
ATOM      1  C   LIG    1       24.930 -20.152   5.245  0.00  0.00    -0.032 C 
ATOM      2  C   LIG    1       24.190 -19.222   4.574  0.00  0.00    -0.007 C 
ENDROOT
BRANCH   1   3
ATOM      3  C   LIG    1       26.369 -19.956   5.587  0.00  0.00    -0.021 A 
ATOM      4  C   LIG    1       27.169 -19.114   4.804  0.00  0.00    +0.008 A 
ATOM      5  C   LIG    1       28.509 -18.884   5.140  0.00  0.00    +0.001 A 
ATOM      6  C   LIG    1       29.059 -19.493   6.264  0.00  0.00    +0.000 A 
ATOM      7  C   LIG    1       28.272 -20.332   7.053  0.00  0.00    +0.001 A 
ATOM      8  C   LIG    1       26.934 -20.565   6.715  0.00  0.00    +0.008 A 
ENDBRANCH   1   3
BRANCH   2   9
ATOM      9  C   LIG    1       24.841 -17.992   4.048  0.00  0.00    -0.017 A 
ATOM     10  C   LIG    1       24.340 -16.718   4.337  0.00  0.00    +0.012 A 
ATOM     11  C   LIG    1       24.990 -15.575   3.853  0.00  0.00    +0.046 A 
ATOM     12  C   LIG    1       26.144 -15.698   3.076  0.00  0.00    +0.121 A 
ATOM     13  C   LIG    1       26.611 -16.969   2.739  0.00  0.00    +0.046 A 
ATOM     14  C   LIG    1       25.973 -18.110   3.231  0.00  0.00    +0.012 A 
BRANCH  12  15
ATOM     15  O   LIG    1       26.886 -14.659   2.582  0.00  0.00    -0.491 OA
BRANCH  15  16
ATOM     16  C   LIG    1       26.727 -13.404   3.257  0.00  0.00    +0.244 C 
BRANCH  16  17
ATOM     17  C   LIG    1       25.755 -12.527   2.442  0.00  0.00    +0.124 C 
BRANCH  17  18
ATOM     18  N   LIG    1       24.383 -12.444   2.985  0.00  0.00    -0.305 NA
ATOM     19  C   LIG    1       23.562 -11.453   2.289  0.00  0.00    +0.104 C 
ATOM     20  C   LIG    1       24.425 -12.118   4.414  0.00  0.00    +0.104 C 
ENDBRANCH  17  18
ENDBRANCH  16  17
ENDBRANCH  15  16
ENDBRANCH  12  15
ENDBRANCH   2   9
BRANCH   2  21
ATOM     21  C   LIG    1       22.735 -19.439   4.324  0.00  0.00    -0.017 A 
ATOM     22  C   LIG    1       21.965 -18.437   3.712  0.00  0.00    +0.008 A 
ATOM     23  C   LIG    1       20.608 -18.643   3.438  0.00  0.00    +0.001 A 
ATOM     24  C   LIG    1       20.008 -19.861   3.763  0.00  0.00    +0.000 A 
ATOM     25  C   LIG    1       20.762 -20.866   4.354  0.00  0.00    +0.001 A 
ATOM     26  C   LIG    1       22.119 -20.660   4.634  0.00  0.00    +0.008 A 
ENDBRANCH   2  21
BRANCH   1  28
ATOM     27  C   LIG    1       23.681 -21.567   6.975  0.00  0.00    +0.009 C 
ATOM     28  C   LIG    1       24.426 -21.530   5.649  0.00  0.00    +0.033 C 
ENDBRANCH   1  28
TORSDOF 8
ENDMDL
MODEL 4
REMARK VINA RESULT:      -0.4      2.582      7.367
REMARK  Name = *****
REMARK                            x       y       z     vdW  Elec       q    Type
REMARK                         _______ _______ _______ _____ _____    ______ ____
ROOT
ATOM      1  C   LIG    1       24.689 -20.148   5.157  0.00  0.00    -0.032 C 
ATOM      2  C   LIG    1       25.857 -19.453   5.027  0.00  0.00    -0.007 C 
ENDROOT
BRANCH   1   3
ATOM      3  C   LIG    1       23.423 -19.747   4.479  0.00  0.00    -0.021 A 
ATOM      4  C   LIG    1       22.564 -18.820   5.083  0.00  0.00    +0.008 A 
ATOM      5  C   LIG    1       21.395 -18.400   4.437  0.00  0.00    +0.001 A 
ATOM      6  C   LIG    1       21.076 -18.903   3.178  0.00  0.00    +0.000 A 
ATOM      7  C   LIG    1       21.924 -19.825   2.565  0.00  0.00    +0.001 A 
ATOM      8  C   LIG    1       23.091 -20.247   3.213  0.00  0.00    +0.008 A 
ENDBRANCH   1   3
BRANCH   2   9
ATOM      9  C   LIG    1       25.879 -18.172   4.270  0.00  0.00    -0.017 A 
ATOM     10  C   LIG    1       24.703 -17.577   3.802  0.00  0.00    +0.012 A 
ATOM     11  C   LIG    1       24.750 -16.356   3.117  0.00  0.00    +0.046 A 
ATOM     12  C   LIG    1       25.974 -15.721   2.894  0.00  0.00    +0.121 A 
ATOM     13  C   LIG    1       27.153 -16.342   3.309  0.00  0.00    +0.046 A 
ATOM     14  C   LIG    1       27.107 -17.553   4.004  0.00  0.00    +0.012 A 
BRANCH  12  15
ATOM     15  O   LIG    1       26.143 -14.511   2.276  0.00  0.00    -0.491 OA
BRANCH  15  16
ATOM     16  C   LIG    1       26.686 -13.466   3.092  0.00  0.00    +0.244 C 
BRANCH  16  17
ATOM     17  C   LIG    1       25.565 -12.917   3.998  0.00  0.00    +0.124 C 
BRANCH  17  18
ATOM     18  N   LIG    1       24.237 -12.819   3.358  0.00  0.00    -0.305 NA
ATOM     19  C   LIG    1       24.297 -12.208   2.030  0.00  0.00    +0.104 C 
ATOM     20  C   LIG    1       23.325 -12.043   4.205  0.00  0.00    +0.104 C 
ENDBRANCH  17  18
ENDBRANCH  16  17
ENDBRANCH  15  16
ENDBRANCH  12  15
ENDBRANCH   2   9
BRANCH   2  21
ATOM     21  C   LIG    1       27.112 -19.941   5.669  0.00  0.00    -0.017 A 
ATOM     22  C   LIG    1       28.294 -19.189   5.571  0.00  0.00    +0.008 A 
ATOM     23  C   LIG    1       29.469 -19.617   6.201  0.00  0.00    +0.001 A 
ATOM     24  C   LIG    1       29.470 -20.798   6.945  0.00  0.00    +0.000 A 
ATOM     25  C   LIG    1       28.304 -21.542   7.062  0.00  0.00    +0.001 A 
ATOM     26  C   LIG    1       27.129 -21.118   6.428  0.00  0.00    +0.008 A 
ENDBRANCH   2  21
BRANCH   1  28
ATOM     27  C   LIG    1       23.186 -21.361   6.838  0.00  0.00    +0.009 C 
ATOM     28  C   LIG    1       24.498 -21.352   6.067  0.00  0.00    +0.033 C 
ENDBRANCH   1  28
TORSDOF 8
ENDMDL
