MODEL 1
REMARK VINA RESULT:      -9.5      0.000      0.000
REMARK  Name = *****
REMARK                            x       y       z     vdW  Elec       q    Type
REMARK                         _______ _______ _______ _____ _____    ______ ____
ROOT
ATOM      1  C   LIG    1       25.227 -22.872   6.396  0.00  0.00    +0.161 A 
ATOM      2  C   LIG    1       23.893 -22.563   6.703  0.00  0.00    +0.158 A 
ATOM      3  N   LIG    1       22.914 -23.490   6.777  0.00  0.00    -0.236 NA
ATOM      4  C   LIG    1       23.255 -24.780   6.548  0.00  0.00    +0.121 A 
ATOM      5  C   LIG    1       24.542 -25.200   6.264  0.00  0.00    +0.007 A 
ATOM      6  C   LIG    1       25.528 -24.216   6.178  0.00  0.00    +0.059 A 
ENDROOT
BRANCH   5   7
ATOM      7  C   LIG    1       24.893 -26.583   6.023  0.00  0.00    +0.021 A 
ATOM      8  C   LIG    1       24.419 -27.663   6.742  0.00  0.00    +0.117 A 
ATOM      9  N   LIG    1       24.839 -28.779   6.070  0.00  0.00    -0.268 N 
ATOM     10  N   LIG    1       25.681 -28.495   5.057  0.00  0.00    -0.179 NA
ATOM     11  C   LIG    1       25.686 -27.168   5.010  0.00  0.00    +0.143 A 
BRANCH   9  12
ATOM     12  C   LIG    1       24.335 -30.135   6.274  0.00  0.00    +0.110 C 
ATOM     13  C   LIG    1       25.131 -31.200   5.502  0.00  0.00    +0.042 C 
ATOM     14  C   LIG    1       26.405 -31.630   6.227  0.00  0.00    +0.083 C 
ATOM     15  N   LIG    1       26.145 -32.019   7.614  0.00  0.00    -0.316 NA
ATOM     16  H   LIG    1       25.527 -32.830   7.632  0.00  0.00    +0.122 HD
ATOM     17  C   LIG    1       25.539 -30.915   8.361  0.00  0.00    +0.083 C 
ATOM     18  C   LIG    1       24.203 -30.497   7.755  0.00  0.00    +0.042 C 
ENDBRANCH   9  12
ENDBRANCH   5   7
BRANCH   2  19
ATOM     19  N   LIG    1       23.493 -21.269   7.034  0.00  0.00    -0.340 N 
ATOM     20  H   LIG    1       22.503 -21.138   6.872  0.00  0.00    +0.144 HD
ATOM     21  H   LIG    1       23.768 -21.113   8.001  0.00  0.00    +0.144 HD
ENDBRANCH   2  19
BRANCH   1  22
ATOM     22  O   LIG    1       26.130 -21.843   6.256  0.00  0.00    -0.481 OA
BRANCH  22  24
ATOM     23  C   LIG    1       26.550 -21.615   8.620  0.00  0.00    +0.057 C 
ATOM     24  C   LIG    1       27.186 -21.726   7.229  0.00  0.00    +0.204 C 
BRANCH  24  25
ATOM     25  C   LIG    1       28.187 -20.663   6.762  0.00  0.00    +0.032 A 
ATOM     26  C   LIG    1       27.948 -19.696   5.760  0.00  0.00    +0.084 A 
ATOM     27 CL   LIG    1       26.513 -19.629   4.800  0.00  0.00    -0.080 Cl
ATOM     28  C   LIG    1       28.912 -18.713   5.463  0.00  0.00    +0.142 A 
ATOM     29  F   LIG    1       28.665 -17.772   4.538  0.00  0.00    -0.204 F 
ATOM     30  C   LIG    1       30.139 -18.672   6.107  0.00  0.00    +0.041 A 
ATOM     31  C   LIG    1       30.421 -19.632   7.059  0.00  0.00    +0.023 A 
ATOM     32  C   LIG    1       29.468 -20.610   7.382  0.00  0.00    +0.049 A 
ATOM     33 CL   LIG    1       29.992 -21.720   8.603  0.00  0.00    -0.083 Cl
ENDBRANCH  24  25
ENDBRANCH  22  24
ENDBRANCH   1  22
TORSDOF 6
ENDMDL
MODEL 2
REMARK VINA RESULT:      -9.3      0.809      1.861
REMARK  Name = *****
REMARK                            x       y       z     vdW  Elec       q    Type
REMARK                         _______ _______ _______ _____ _____    ______ ____
ROOT
ATOM      1  C   LIG    1       25.261 -22.895   6.404  0.00  0.00    +0.161 A 
ATOM      2  C   LIG    1       23.924 -22.583   6.695  0.00  0.00    +0.158 A 
ATOM      3  N   LIG    1       22.942 -23.508   6.758  0.00  0.00    -0.236 NA
ATOM      4  C   LIG    1       23.284 -24.799   6.531  0.00  0.00    +0.121 A 
ATOM      5  C   LIG    1       24.573 -25.221   6.262  0.00  0.00    +0.007 A 
ATOM      6  C   LIG    1       25.562 -24.239   6.189  0.00  0.00    +0.059 A 
ENDROOT
BRANCH   5   7
ATOM      7  C   LIG    1       24.924 -26.605   6.025  0.00  0.00    +0.021 A 
ATOM      8  C   LIG    1       24.425 -27.686   6.724  0.00  0.00    +0.117 A 
ATOM      9  N   LIG    1       24.858 -28.800   6.059  0.00  0.00    -0.268 N 
ATOM     10  N   LIG    1       25.730 -28.516   5.072  0.00  0.00    -0.179 NA
ATOM     11  C   LIG    1       25.743 -27.188   5.032  0.00  0.00    +0.143 A 
BRANCH   9  12
ATOM     12  C   LIG    1       24.342 -30.155   6.241  0.00  0.00    +0.110 C 
ATOM     13  C   LIG    1       25.158 -31.220   5.491  0.00  0.00    +0.042 C 
ATOM     14  C   LIG    1       26.406 -31.659   6.254  0.00  0.00    +0.083 C 
ATOM     15  N   LIG    1       26.100 -32.052   7.631  0.00  0.00    -0.316 NA
ATOM     16  H   LIG    1       25.478 -32.860   7.625  0.00  0.00    +0.122 HD
ATOM     17  C   LIG    1       25.475 -30.948   8.362  0.00  0.00    +0.083 C 
ATOM     18  C   LIG    1       24.161 -30.522   7.716  0.00  0.00    +0.042 C 
ENDBRANCH   9  12
ENDBRANCH   5   7
BRANCH   2  19
ATOM     19  N   LIG    1       23.523 -21.289   7.022  0.00  0.00    -0.340 N 
ATOM     20  H   LIG    1       23.807 -21.043   7.961  0.00  0.00    +0.144 HD
ATOM     21  H   LIG    1       23.907 -20.672   6.310  0.00  0.00    +0.144 HD
ENDBRANCH   2  19
BRANCH   1  22
ATOM     22  O   LIG    1       26.167 -21.867   6.275  0.00  0.00    -0.481 OA
BRANCH  22  24
ATOM     23  C   LIG    1       26.550 -21.641   8.646  0.00  0.00    +0.057 C 
ATOM     24  C   LIG    1       27.208 -21.749   7.265  0.00  0.00    +0.204 C 
BRANCH  24  25
ATOM     25  C   LIG    1       28.213 -20.683   6.815  0.00  0.00    +0.032 A 
ATOM     26  C   LIG    1       29.523 -20.525   7.321  0.00  0.00    +0.084 A 
ATOM     27 CL   LIG    1       30.172 -21.444   8.633  0.00  0.00    -0.080 Cl
ATOM     28  C   LIG    1       30.393 -19.560   6.779  0.00  0.00    +0.142 A 
ATOM     29  F   LIG    1       31.650 -19.440   7.237  0.00  0.00    -0.204 F 
ATOM     30  C   LIG    1       29.998 -18.706   5.762  0.00  0.00    +0.041 A 
ATOM     31  C   LIG    1       28.708 -18.803   5.277  0.00  0.00    +0.023 A 
ATOM     32  C   LIG    1       27.830 -19.770   5.791  0.00  0.00    +0.049 A 
ATOM     33 CL   LIG    1       26.263 -19.752   5.056  0.00  0.00    -0.083 Cl
ENDBRANCH  24  25
ENDBRANCH  22  24
ENDBRANCH   1  22
TORSDOF 6
ENDMDL
MODEL 3
REMARK VINA RESULT:      -9.0      1.091      1.558
REMARK  Name = *****
REMARK                            x       y       z     vdW  Elec       q    Type
REMARK                         _______ _______ _______ _____ _____    ______ ____
ROOT
ATOM      1  C   LIG    1       25.330 -22.992   6.412  0.00  0.00    +0.161 A 
ATOM      2  C   LIG    1       23.998 -22.592   6.593  0.00  0.00    +0.158 A 
ATOM      3  N   LIG    1       22.968 -23.460   6.692  0.00  0.00    -0.236 NA
ATOM      4  C   LIG    1       23.255 -24.781   6.617  0.00  0.00    +0.121 A 
ATOM      5  C   LIG    1       24.533 -25.287   6.466  0.00  0.00    +0.007 A 
ATOM      6  C   LIG    1       25.573 -24.364   6.351  0.00  0.00    +0.059 A 
ENDROOT
BRANCH   5   7
ATOM      7  C   LIG    1       24.825 -26.703   6.390  0.00  0.00    +0.021 A 
ATOM      8  C   LIG    1       25.559 -27.417   7.315  0.00  0.00    +0.117 A 
ATOM      9  N   LIG    1       25.427 -28.734   6.969  0.00  0.00    -0.268 N 
ATOM     10  N   LIG    1       24.788 -28.907   5.795  0.00  0.00    -0.179 NA
ATOM     11  C   LIG    1       24.397 -27.681   5.465  0.00  0.00    +0.143 A 
BRANCH   9  12
ATOM     12  C   LIG    1       25.769 -29.875   7.815  0.00  0.00    +0.110 C 
ATOM     13  C   LIG    1       26.482 -29.472   9.116  0.00  0.00    +0.042 C 
ATOM     14  C   LIG    1       25.514 -29.028  10.211  0.00  0.00    +0.083 C 
ATOM     15  N   LIG    1       24.449 -30.008  10.434  0.00  0.00    -0.316 NA
ATOM     16  H   LIG    1       24.854 -30.885  10.759  0.00  0.00    +0.122 HD
ATOM     17  C   LIG    1       23.685 -30.237   9.207  0.00  0.00    +0.083 C 
ATOM     18  C   LIG    1       24.569 -30.785   8.091  0.00  0.00    +0.042 C 
ENDBRANCH   9  12
ENDBRANCH   5   7
BRANCH   2  19
ATOM     19  N   LIG    1       23.646 -21.254   6.764  0.00  0.00    -0.340 N 
ATOM     20  H   LIG    1       24.285 -20.784   7.393  0.00  0.00    +0.144 HD
ATOM     21  H   LIG    1       23.613 -20.836   5.837  0.00  0.00    +0.144 HD
ENDBRANCH   2  19
BRANCH   1  22
ATOM     22  O   LIG    1       26.294 -22.026   6.232  0.00  0.00    -0.481 OA
BRANCH  22  24
ATOM     23  C   LIG    1       26.478 -21.639   8.606  0.00  0.00    +0.057 C 
ATOM     24  C   LIG    1       27.247 -21.810   7.291  0.00  0.00    +0.204 C 
BRANCH  24  25
ATOM     25  C   LIG    1       28.253 -20.740   6.853  0.00  0.00    +0.032 A 
ATOM     26  C   LIG    1       28.028 -19.759   5.861  0.00  0.00    +0.084 A 
ATOM     27 CL   LIG    1       26.606 -19.680   4.882  0.00  0.00    -0.080 Cl
ATOM     28  C   LIG    1       28.995 -18.771   5.591  0.00  0.00    +0.142 A 
ATOM     29  F   LIG    1       28.759 -17.818   4.675  0.00  0.00    -0.204 F 
ATOM     30  C   LIG    1       30.212 -18.739   6.252  0.00  0.00    +0.041 A 
ATOM     31  C   LIG    1       30.483 -19.712   7.194  0.00  0.00    +0.023 A 
ATOM     32  C   LIG    1       29.526 -20.694   7.491  0.00  0.00    +0.049 A 
ATOM     33 CL   LIG    1       30.034 -21.821   8.703  0.00  0.00    -0.083 Cl
ENDBRANCH  24  25
ENDBRANCH  22  24
ENDBRANCH   1  22
TORSDOF 6
ENDMDL
MODEL 4
REMARK VINA RESULT:      -8.7      4.803      9.359
REMARK  Name = *****
REMARK                            x       y       z     vdW  Elec       q    Type
REMARK                         _______ _______ _______ _____ _____    ______ ____
ROOT
ATOM      1  C   LIG    1       24.238 -29.553   7.009  0.00  0.00    +0.161 A 
ATOM      2  C   LIG    1       24.659 -30.106   5.790  0.00  0.00    +0.158 A 
ATOM      3  N   LIG    1       25.174 -29.373   4.780  0.00  0.00    -0.236 NA
ATOM      4  C   LIG    1       25.290 -28.037   4.973  0.00  0.00    +0.121 A 
ATOM      5  C   LIG    1       24.932 -27.392   6.143  0.00  0.00    +0.007 A 
ATOM      6  C   LIG    1       24.388 -28.175   7.161  0.00  0.00    +0.059 A 
ENDROOT
BRANCH   5   7
ATOM      7  C   LIG    1       25.063 -25.963   6.335  0.00  0.00    +0.021 A 
ATOM      8  C   LIG    1       24.017 -25.064   6.377  0.00  0.00    +0.117 A 
ATOM      9  N   LIG    1       24.558 -23.870   6.767  0.00  0.00    -0.268 N 
ATOM     10  N   LIG    1       25.904 -23.899   6.829  0.00  0.00    -0.179 NA
ATOM     11  C   LIG    1       26.204 -25.172   6.599  0.00  0.00    +0.143 A 
BRANCH   9  12
ATOM     12  C   LIG    1       23.807 -22.709   7.240  0.00  0.00    +0.110 C 
ATOM     13  C   LIG    1       24.708 -21.537   7.666  0.00  0.00    +0.042 C 
ATOM     14  C   LIG    1       25.167 -20.682   6.486  0.00  0.00    +0.083 C 
ATOM     15  N   LIG    1       24.046 -20.254   5.647  0.00  0.00    -0.316 NA
ATOM     16  H   LIG    1       23.418 -19.664   6.191  0.00  0.00    +0.122 HD
ATOM     17  C   LIG    1       23.315 -21.409   5.123  0.00  0.00    +0.083 C 
ATOM     18  C   LIG    1       22.732 -22.259   6.248  0.00  0.00    +0.042 C 
ENDBRANCH   9  12
ENDBRANCH   5   7
BRANCH   2  19
ATOM     19  N   LIG    1       24.648 -31.481   5.561  0.00  0.00    -0.340 N 
ATOM     20  H   LIG    1       23.964 -31.730   4.858  0.00  0.00    +0.144 HD
ATOM     21  H   LIG    1       25.598 -31.747   5.312  0.00  0.00    +0.144 HD
ENDBRANCH   2  19
BRANCH   1  22
ATOM     22  O   LIG    1       23.643 -30.375   7.939  0.00  0.00    -0.481 OA
BRANCH  22  24
ATOM     23  C   LIG    1       24.239 -32.438   9.038  0.00  0.00    +0.057 C 
ATOM     24  C   LIG    1       24.465 -30.923   8.988  0.00  0.00    +0.204 C 
BRANCH  24  25
ATOM     25  C   LIG    1       24.285 -30.084  10.259  0.00  0.00    +0.032 A 
ATOM     26  C   LIG    1       23.089 -29.966  11.001  0.00  0.00    +0.084 A 
ATOM     27 CL   LIG    1       21.580 -30.661  10.525  0.00  0.00    -0.080 Cl
ATOM     28  C   LIG    1       23.055 -29.229  12.201  0.00  0.00    +0.142 A 
ATOM     29  F   LIG    1       21.926 -29.153  12.924  0.00  0.00    -0.204 F 
ATOM     30  C   LIG    1       24.171 -28.563  12.683  0.00  0.00    +0.041 A 
ATOM     31  C   LIG    1       25.344 -28.620  11.956  0.00  0.00    +0.023 A 
ATOM     32  C   LIG    1       25.403 -29.363  10.767  0.00  0.00    +0.049 A 
ATOM     33 CL   LIG    1       26.955 -29.329  10.000  0.00  0.00    -0.083 Cl
ENDBRANCH  24  25
ENDBRANCH  22  24
ENDBRANCH   1  22
TORSDOF 6
ENDMDL
MODEL 5
REMARK VINA RESULT:      -8.6      4.525      9.255
REMARK  Name = *****
REMARK                            x       y       z     vdW  Elec       q    Type
REMARK                         _______ _______ _______ _____ _____    ______ ____
ROOT
ATOM      1  C   LIG    1       24.269 -29.384   7.087  0.00  0.00    +0.161 A 
ATOM      2  C   LIG    1       24.447 -29.900   5.795  0.00  0.00    +0.158 A 
ATOM      3  N   LIG    1       24.777 -29.139   4.730  0.00  0.00    -0.236 NA
ATOM      4  C   LIG    1       24.949 -27.812   4.939  0.00  0.00    +0.121 A 
ATOM      5  C   LIG    1       24.825 -27.202   6.175  0.00  0.00    +0.007 A 
ATOM      6  C   LIG    1       24.467 -28.013   7.251  0.00  0.00    +0.059 A 
ENDROOT
BRANCH   5   7
ATOM      7  C   LIG    1       25.014 -25.782   6.384  0.00  0.00    +0.021 A 
ATOM      8  C   LIG    1       24.011 -24.834   6.372  0.00  0.00    +0.117 A 
ATOM      9  N   LIG    1       24.587 -23.669   6.801  0.00  0.00    -0.268 N 
ATOM     10  N   LIG    1       25.923 -23.763   6.937  0.00  0.00    -0.179 NA
ATOM     11  C   LIG    1       26.175 -25.049   6.717  0.00  0.00    +0.143 A 
BRANCH   9  12
ATOM     12  C   LIG    1       23.867 -22.475   7.239  0.00  0.00    +0.110 C 
ATOM     13  C   LIG    1       24.792 -21.279   7.521  0.00  0.00    +0.042 C 
ATOM     14  C   LIG    1       25.173 -20.511   6.257  0.00  0.00    +0.083 C 
ATOM     15  N   LIG    1       23.999 -20.139   5.464  0.00  0.00    -0.316 NA
ATOM     16  H   LIG    1       23.407 -19.509   6.005  0.00  0.00    +0.122 HD
ATOM     17  C   LIG    1       23.236 -21.326   5.072  0.00  0.00    +0.083 C 
ATOM     18  C   LIG    1       22.729 -22.092   6.289  0.00  0.00    +0.042 C 
ENDBRANCH   9  12
ENDBRANCH   5   7
BRANCH   2  19
ATOM     19  N   LIG    1       24.370 -31.266   5.529  0.00  0.00    -0.340 N 
ATOM     20  H   LIG    1       24.286 -31.802   6.383  0.00  0.00    +0.144 HD
ATOM     21  H   LIG    1       23.588 -31.399   4.891  0.00  0.00    +0.144 HD
ENDBRANCH   2  19
BRANCH   1  22
ATOM     22  O   LIG    1       23.844 -30.231   8.086  0.00  0.00    -0.481 OA
BRANCH  22  24
ATOM     23  C   LIG    1       24.821 -32.202   9.073  0.00  0.00    +0.057 C 
ATOM     24  C   LIG    1       24.808 -30.670   9.062  0.00  0.00    +0.204 C 
BRANCH  24  25
ATOM     25  C   LIG    1       24.587 -29.901  10.370  0.00  0.00    +0.032 A 
ATOM     26  C   LIG    1       25.557 -29.119  11.037  0.00  0.00    +0.084 A 
ATOM     27 CL   LIG    1       27.209 -28.997  10.543  0.00  0.00    -0.080 Cl
ATOM     28  C   LIG    1       25.223 -28.389  12.194  0.00  0.00    +0.142 A 
ATOM     29  F   LIG    1       26.138 -27.616  12.801  0.00  0.00    -0.204 F 
ATOM     30  C   LIG    1       23.953 -28.433  12.747  0.00  0.00    +0.041 A 
ATOM     31  C   LIG    1       22.994 -29.226  12.146  0.00  0.00    +0.023 A 
ATOM     32  C   LIG    1       23.302 -29.947  10.982  0.00  0.00    +0.049 A 
ATOM     33 CL   LIG    1       21.976 -30.873  10.365  0.00  0.00    -0.083 Cl
ENDBRANCH  24  25
ENDBRANCH  22  24
ENDBRANCH   1  22
TORSDOF 6
ENDMDL
MODEL 6
REMARK VINA RESULT:      -8.5      4.683      9.449
REMARK  Name = *****
REMARK                            x       y       z     vdW  Elec       q    Type
REMARK                         _______ _______ _______ _____ _____    ______ ____
ROOT
ATOM      1  C   LIG    1       24.583 -28.350   6.439  0.00  0.00    +0.161 A 
ATOM      2  C   LIG    1       25.545 -28.458   5.424  0.00  0.00    +0.158 A 
ATOM      3  N   LIG    1       26.050 -27.395   4.762  0.00  0.00    -0.236 NA
ATOM      4  C   LIG    1       25.598 -26.168   5.113  0.00  0.00    +0.121 A 
ATOM      5  C   LIG    1       24.673 -25.943   6.116  0.00  0.00    +0.007 A 
ATOM      6  C   LIG    1       24.158 -27.063   6.770  0.00  0.00    +0.059 A 
ENDROOT
BRANCH   5   7
ATOM      7  C   LIG    1       24.201 -24.625   6.483  0.00  0.00    +0.021 A 
ATOM      8  C   LIG    1       24.988 -23.495   6.581  0.00  0.00    +0.117 A 
ATOM      9  N   LIG    1       24.126 -22.447   6.756  0.00  0.00    -0.268 N 
ATOM     10  N   LIG    1       22.850 -22.841   6.933  0.00  0.00    -0.179 NA
ATOM     11  C   LIG    1       22.893 -24.154   6.735  0.00  0.00    +0.143 A 
BRANCH   9  12
ATOM     12  C   LIG    1       24.464 -21.033   6.608  0.00  0.00    +0.110 C 
ATOM     13  C   LIG    1       25.484 -20.768   5.489  0.00  0.00    +0.042 C 
ATOM     14  C   LIG    1       24.841 -20.695   4.105  0.00  0.00    +0.083 C 
ATOM     15  N   LIG    1       23.713 -19.762   4.070  0.00  0.00    -0.316 NA
ATOM     16  H   LIG    1       24.043 -18.819   4.274  0.00  0.00    +0.122 HD
ATOM     17  C   LIG    1       22.685 -20.150   5.037  0.00  0.00    +0.083 C 
ATOM     18  C   LIG    1       23.227 -20.143   6.463  0.00  0.00    +0.042 C 
ENDBRANCH   9  12
ENDBRANCH   5   7
BRANCH   2  19
ATOM     19  N   LIG    1       26.114 -29.682   5.074  0.00  0.00    -0.340 N 
ATOM     20  H   LIG    1       26.229 -30.278   5.883  0.00  0.00    +0.144 HD
ATOM     21  H   LIG    1       25.520 -30.089   4.355  0.00  0.00    +0.144 HD
ENDBRANCH   2  19
BRANCH   1  22
ATOM     22  O   LIG    1       24.067 -29.502   6.988  0.00  0.00    -0.481 OA
BRANCH  22  24
ATOM     23  C   LIG    1       24.865 -31.756   7.298  0.00  0.00    +0.057 C 
ATOM     24  C   LIG    1       24.932 -30.312   7.807  0.00  0.00    +0.204 C 
BRANCH  24  25
ATOM     25  C   LIG    1       24.654 -30.012   9.285  0.00  0.00    +0.032 A 
ATOM     26  C   LIG    1       23.600 -30.560  10.049  0.00  0.00    +0.084 A 
ATOM     27 CL   LIG    1       22.363 -31.579   9.403  0.00  0.00    -0.080 Cl
ATOM     28  C   LIG    1       23.483 -30.276  11.423  0.00  0.00    +0.142 A 
ATOM     29  F   LIG    1       22.502 -30.831  12.154  0.00  0.00    -0.204 F 
ATOM     30  C   LIG    1       24.364 -29.427  12.073  0.00  0.00    +0.041 A 
ATOM     31  C   LIG    1       25.379 -28.838  11.344  0.00  0.00    +0.023 A 
ATOM     32  C   LIG    1       25.523 -29.121   9.977  0.00  0.00    +0.049 A 
ATOM     33 CL   LIG    1       26.854 -28.303   9.231  0.00  0.00    -0.083 Cl
ENDBRANCH  24  25
ENDBRANCH  22  24
ENDBRANCH   1  22
TORSDOF 6
ENDMDL
MODEL 7
REMARK VINA RESULT:      -8.4      4.717      9.261
REMARK  Name = *****
REMARK                            x       y       z     vdW  Elec       q    Type
REMARK                         _______ _______ _______ _____ _____    ______ ____
ROOT
ATOM      1  C   LIG    1       25.067 -28.899   6.948  0.00  0.00    +0.161 A 
ATOM      2  C   LIG    1       25.489 -29.250   5.657  0.00  0.00    +0.158 A 
ATOM      3  N   LIG    1       25.648 -28.356   4.658  0.00  0.00    -0.236 NA
ATOM      4  C   LIG    1       25.390 -27.056   4.936  0.00  0.00    +0.121 A 
ATOM      5  C   LIG    1       24.996 -26.595   6.179  0.00  0.00    +0.007 A 
ATOM      6  C   LIG    1       24.824 -27.546   7.185  0.00  0.00    +0.059 A 
ENDROOT
BRANCH   5   7
ATOM      7  C   LIG    1       24.726 -25.201   6.461  0.00  0.00    +0.021 A 
ATOM      8  C   LIG    1       25.680 -24.209   6.564  0.00  0.00    +0.117 A 
ATOM      9  N   LIG    1       24.993 -23.028   6.641  0.00  0.00    -0.268 N 
ATOM     10  N   LIG    1       23.661 -23.203   6.754  0.00  0.00    -0.179 NA
ATOM     11  C   LIG    1       23.501 -24.514   6.612  0.00  0.00    +0.143 A 
BRANCH   9  12
ATOM     12  C   LIG    1       25.565 -21.696   6.459  0.00  0.00    +0.110 C 
ATOM     13  C   LIG    1       24.937 -20.636   7.378  0.00  0.00    +0.042 C 
ATOM     14  C   LIG    1       25.539 -20.636   8.782  0.00  0.00    +0.083 C 
ATOM     15  N   LIG    1       27.001 -20.560   8.754  0.00  0.00    -0.316 NA
ATOM     16  H   LIG    1       27.290 -19.681   8.327  0.00  0.00    +0.122 HD
ATOM     17  C   LIG    1       27.568 -21.686   8.009  0.00  0.00    +0.083 C 
ATOM     18  C   LIG    1       27.092 -21.693   6.559  0.00  0.00    +0.042 C 
ENDBRANCH   9  12
ENDBRANCH   5   7
BRANCH   2  19
ATOM     19  N   LIG    1       25.852 -30.556   5.330  0.00  0.00    -0.340 N 
ATOM     20  H   LIG    1       26.841 -30.710   5.479  0.00  0.00    +0.144 HD
ATOM     21  H   LIG    1       25.260 -31.174   5.881  0.00  0.00    +0.144 HD
ENDBRANCH   2  19
BRANCH   1  22
ATOM     22  O   LIG    1       24.849 -29.898   7.869  0.00  0.00    -0.481 OA
BRANCH  22  24
ATOM     23  C   LIG    1       26.515 -31.323   8.874  0.00  0.00    +0.057 C 
ATOM     24  C   LIG    1       25.749 -30.000   8.989  0.00  0.00    +0.204 C 
BRANCH  24  25
ATOM     25  C   LIG    1       24.988 -29.671  10.279  0.00  0.00    +0.032 A 
ATOM     26  C   LIG    1       23.724 -30.187  10.640  0.00  0.00    +0.084 A 
ATOM     27 CL   LIG    1       22.760 -31.193   9.617  0.00  0.00    -0.080 Cl
ATOM     28  C   LIG    1       23.149 -29.879  11.888  0.00  0.00    +0.142 A 
ATOM     29  F   LIG    1       21.964 -30.404  12.242  0.00  0.00    -0.204 F 
ATOM     30  C   LIG    1       23.773 -29.036  12.794  0.00  0.00    +0.041 A 
ATOM     31  C   LIG    1       24.989 -28.478  12.452  0.00  0.00    +0.023 A 
ATOM     32  C   LIG    1       25.587 -28.786  11.220  0.00  0.00    +0.049 A 
ATOM     33 CL   LIG    1       27.112 -28.005  10.970  0.00  0.00    -0.083 Cl
ENDBRANCH  24  25
ENDBRANCH  22  24
ENDBRANCH   1  22
TORSDOF 6
ENDMDL
MODEL 8
REMARK VINA RESULT:      -8.4      4.383      9.229
REMARK  Name = *****
REMARK                            x       y       z     vdW  Elec       q    Type
REMARK                         _______ _______ _______ _____ _____    ______ ____
ROOT
ATOM      1  C   LIG    1       24.433 -29.158   6.684  0.00  0.00    +0.161 A 
ATOM      2  C   LIG    1       25.081 -29.512   5.491  0.00  0.00    +0.158 A 
ATOM      3  N   LIG    1       25.575 -28.609   4.617  0.00  0.00    -0.236 NA
ATOM      4  C   LIG    1       25.434 -27.298   4.926  0.00  0.00    +0.121 A 
ATOM      5  C   LIG    1       24.837 -26.838   6.086  0.00  0.00    +0.007 A 
ATOM      6  C   LIG    1       24.323 -27.795   6.960  0.00  0.00    +0.059 A 
ENDROOT
BRANCH   5   7
ATOM      7  C   LIG    1       24.696 -25.433   6.404  0.00  0.00    +0.021 A 
ATOM      8  C   LIG    1       25.728 -24.518   6.452  0.00  0.00    +0.117 A 
ATOM      9  N   LIG    1       25.141 -23.290   6.593  0.00  0.00    -0.268 N 
ATOM     10  N   LIG    1       23.811 -23.365   6.795  0.00  0.00    -0.179 NA
ATOM     11  C   LIG    1       23.540 -24.657   6.649  0.00  0.00    +0.143 A 
BRANCH   9  12
ATOM     12  C   LIG    1       25.800 -22.003   6.387  0.00  0.00    +0.110 C 
ATOM     13  C   LIG    1       24.992 -20.814   6.934  0.00  0.00    +0.042 C 
ATOM     14  C   LIG    1       25.185 -20.605   8.435  0.00  0.00    +0.083 C 
ATOM     15  N   LIG    1       26.601 -20.540   8.804  0.00  0.00    -0.316 NA
ATOM     16  H   LIG    1       27.035 -19.736   8.353  0.00  0.00    +0.122 HD
ATOM     17  C   LIG    1       27.299 -21.766   8.415  0.00  0.00    +0.083 C 
ATOM     18  C   LIG    1       27.240 -21.989   6.908  0.00  0.00    +0.042 C 
ENDBRANCH   9  12
ENDBRANCH   5   7
BRANCH   2  19
ATOM     19  N   LIG    1       25.335 -30.841   5.156  0.00  0.00    -0.340 N 
ATOM     20  H   LIG    1       24.480 -31.331   4.926  0.00  0.00    +0.144 HD
ATOM     21  H   LIG    1       26.011 -30.831   4.395  0.00  0.00    +0.144 HD
ENDBRANCH   2  19
BRANCH   1  22
ATOM     22  O   LIG    1       23.887 -30.153   7.462  0.00  0.00    -0.481 OA
BRANCH  22  24
ATOM     23  C   LIG    1       24.513 -32.327   8.298  0.00  0.00    +0.057 C 
ATOM     24  C   LIG    1       24.738 -30.816   8.417  0.00  0.00    +0.204 C 
BRANCH  24  25
ATOM     25  C   LIG    1       24.594 -30.130   9.781  0.00  0.00    +0.032 A 
ATOM     26  C   LIG    1       25.580 -29.334  10.407  0.00  0.00    +0.084 A 
ATOM     27 CL   LIG    1       27.175 -29.099   9.784  0.00  0.00    -0.080 Cl
ATOM     28  C   LIG    1       25.314 -28.685  11.628  0.00  0.00    +0.142 A 
ATOM     29  F   LIG    1       26.240 -27.897  12.198  0.00  0.00    -0.204 F 
ATOM     30  C   LIG    1       24.100 -28.824  12.282  0.00  0.00    +0.041 A 
ATOM     31  C   LIG    1       23.131 -29.633  11.719  0.00  0.00    +0.023 A 
ATOM     32  C   LIG    1       23.371 -30.276  10.495  0.00  0.00    +0.049 A 
ATOM     33 CL   LIG    1       22.042 -31.236   9.939  0.00  0.00    -0.083 Cl
ENDBRANCH  24  25
ENDBRANCH  22  24
ENDBRANCH   1  22
TORSDOF 6
ENDMDL
MODEL 9
REMARK VINA RESULT:      -8.2      4.297      9.365
REMARK  Name = *****
REMARK                            x       y       z     vdW  Elec       q    Type
REMARK                         _______ _______ _______ _____ _____    ______ ____
ROOT
ATOM      1  C   LIG    1       25.307 -24.756   6.773  0.00  0.00    +0.161 A 
ATOM      2  C   LIG    1       24.621 -24.437   5.592  0.00  0.00    +0.158 A 
ATOM      3  N   LIG    1       24.660 -23.217   5.016  0.00  0.00    -0.236 NA
ATOM      4  C   LIG    1       25.411 -22.265   5.619  0.00  0.00    +0.121 A 
ATOM      5  C   LIG    1       26.148 -22.477   6.770  0.00  0.00    +0.007 A 
ATOM      6  C   LIG    1       26.073 -23.743   7.350  0.00  0.00    +0.059 A 
ENDROOT
BRANCH   5   7
ATOM      7  C   LIG    1       26.948 -21.449   7.403  0.00  0.00    +0.021 A 
ATOM      8  C   LIG    1       28.235 -21.106   7.042  0.00  0.00    +0.117 A 
ATOM      9  N   LIG    1       28.540 -19.977   7.753  0.00  0.00    -0.268 N 
ATOM     10  N   LIG    1       27.597 -19.659   8.662  0.00  0.00    -0.179 NA
ATOM     11  C   LIG    1       26.623 -20.531   8.426  0.00  0.00    +0.143 A 
BRANCH   9  12
ATOM     12  C   LIG    1       29.662 -19.080   7.487  0.00  0.00    +0.110 C 
ATOM     13  C   LIG    1       29.893 -18.050   8.605  0.00  0.00    +0.042 C 
ATOM     14  C   LIG    1       30.700 -18.613   9.774  0.00  0.00    +0.083 C 
ATOM     15  N   LIG    1       31.942 -19.249   9.330  0.00  0.00    -0.316 NA
ATOM     16  H   LIG    1       32.542 -18.555   8.886  0.00  0.00    +0.122 HD
ATOM     17  C   LIG    1       31.664 -20.339   8.392  0.00  0.00    +0.083 C 
ATOM     18  C   LIG    1       30.949 -19.834   7.143  0.00  0.00    +0.042 C 
ENDBRANCH   9  12
ENDBRANCH   5   7
BRANCH   2  19
ATOM     19  N   LIG    1       23.902 -25.393   4.876  0.00  0.00    -0.340 N 
ATOM     20  H   LIG    1       23.341 -25.968   5.491  0.00  0.00    +0.144 HD
ATOM     21  H   LIG    1       23.353 -24.891   4.181  0.00  0.00    +0.144 HD
ENDBRANCH   2  19
BRANCH   1  22
ATOM     22  O   LIG    1       25.128 -26.003   7.327  0.00  0.00    -0.481 OA
BRANCH  22  24
ATOM     23  C   LIG    1       26.845 -26.727   5.797  0.00  0.00    +0.057 C 
ATOM     24  C   LIG    1       26.168 -26.984   7.148  0.00  0.00    +0.204 C 
BRANCH  24  25
ATOM     25  C   LIG    1       25.609 -28.375   7.467  0.00  0.00    +0.032 A 
ATOM     26  C   LIG    1       24.846 -29.174   6.587  0.00  0.00    +0.084 A 
ATOM     27 CL   LIG    1       24.308 -28.657   5.028  0.00  0.00    -0.080 Cl
ATOM     28  C   LIG    1       24.448 -30.474   6.955  0.00  0.00    +0.142 A 
ATOM     29  F   LIG    1       23.757 -31.245   6.100  0.00  0.00    -0.204 F 
ATOM     30  C   LIG    1       24.753 -31.009   8.197  0.00  0.00    +0.041 A 
ATOM     31  C   LIG    1       25.458 -30.236   9.098  0.00  0.00    +0.023 A 
ATOM     32  C   LIG    1       25.878 -28.944   8.745  0.00  0.00    +0.049 A 
ATOM     33 CL   LIG    1       26.758 -28.130   9.994  0.00  0.00    -0.083 Cl
ENDBRANCH  24  25
ENDBRANCH  22  24
ENDBRANCH   1  22
TORSDOF 6
ENDMDL
