MODEL 1
REMARK VINA RESULT:      -5.7      0.000      0.000
REMARK  Name = *****
REMARK                            x       y       z     vdW  Elec       q    Type
REMARK                         _______ _______ _______ _____ _____    ______ ____
ROOT
ATOM      1  C   LIG    1       25.694 -20.505   6.311  0.00  0.00    -0.042 A 
ATOM      2  C   LIG    1       25.587 -20.412   4.916  0.00  0.00    +0.052 A 
ATOM      3  C   LIG    1       24.365 -20.655   4.303  0.00  0.00    +0.159 A 
ATOM      4  C   LIG    1       23.239 -20.977   5.055  0.00  0.00    +0.158 A 
ATOM      5  C   LIG    1       23.324 -21.075   6.437  0.00  0.00    +0.049 A 
ATOM      6  C   LIG    1       24.554 -20.842   7.062  0.00  0.00    +0.007 A 
ENDROOT
BRANCH   3   7
ATOM      7  O   LIG    1       24.277 -20.572   2.943  0.00  0.00    -0.503 OA
ATOM      8  H   LIG    1       24.530 -19.649   2.740  0.00  0.00    +0.292 HD
ENDBRANCH   3   7
BRANCH   4   9
ATOM      9  O   LIG    1       22.065 -21.187   4.386  0.00  0.00    -0.503 OA
ATOM     10  H   LIG    1       22.042 -20.582   3.624  0.00  0.00    +0.292 HD
ENDBRANCH   4   9
BRANCH   1  11
ATOM     11  C   LIG    1       27.014 -20.244   7.004  0.00  0.00    +0.065 C 
BRANCH  11  12
ATOM     12  CA  LIG    1       28.256 -20.271   6.096  0.00  0.00    +0.165 C 
BRANCH  12  13
ATOM     13  N   LIG    1       29.332 -21.200   6.569  0.00  0.00    -0.318 NA
ATOM     14  H1  LIG    1       30.086 -20.632   6.977  0.00  0.00    +0.119 HD
ATOM     15  H2  LIG    1       28.961 -21.713   7.373  0.00  0.00    +0.119 HD
ENDBRANCH  12  13
BRANCH  12  16
ATOM     16  C   LIG    1       28.854 -18.870   5.902  0.00  0.00    +0.322 C 
ATOM     17  O   LIG    1       29.475 -18.242   6.747  0.00  0.00    -0.249 OA
BRANCH  16  18
ATOM     18  OXT LIG    1       28.591 -18.387   4.660  0.00  0.00    -0.479 OA
ATOM     19  HXT LIG    1       27.734 -18.800   4.389  0.00  0.00    +0.295 HD
ENDBRANCH  16  18
ENDBRANCH  12  16
ENDBRANCH  11  12
ENDBRANCH   1  11
TORSDOF 7
ENDMDL
MODEL 2
REMARK VINA RESULT:      -5.0      2.366      5.142
REMARK  Name = *****
REMARK                            x       y       z     vdW  Elec       q    Type
REMARK                         _______ _______ _______ _____ _____    ______ ____
ROOT
ATOM      1  C   LIG    1       25.833 -20.834   5.299  0.00  0.00    -0.042 A 
ATOM      2  C   LIG    1       26.616 -19.805   4.755  0.00  0.00    +0.052 A 
ATOM      3  C   LIG    1       27.812 -19.455   5.367  0.00  0.00    +0.159 A 
ATOM      4  C   LIG    1       28.254 -20.119   6.507  0.00  0.00    +0.158 A 
ATOM      5  C   LIG    1       27.494 -21.139   7.062  0.00  0.00    +0.049 A 
ATOM      6  C   LIG    1       26.282 -21.492   6.458  0.00  0.00    +0.007 A 
ENDROOT
BRANCH   3   7
ATOM      7  O   LIG    1       28.559 -18.444   4.833  0.00  0.00    -0.503 OA
ATOM      8  H   LIG    1       29.039 -18.068   5.598  0.00  0.00    +0.292 HD
ENDBRANCH   3   7
BRANCH   4   9
ATOM      9  O   LIG    1       29.449 -19.732   7.046  0.00  0.00    -0.503 OA
ATOM     10  H   LIG    1       29.436 -18.764   7.143  0.00  0.00    +0.292 HD
ENDBRANCH   4   9
BRANCH   1  11
ATOM     11  C   LIG    1       24.526 -21.236   4.652  0.00  0.00    +0.065 C 
BRANCH  11  12
ATOM     12  CA  LIG    1       23.268 -20.559   5.221  0.00  0.00    +0.165 C 
BRANCH  12  13
ATOM     13  N   LIG    1       22.045 -21.424   5.187  0.00  0.00    -0.318 NA
ATOM     14  H1  LIG    1       21.239 -20.847   5.461  0.00  0.00    +0.119 HD
ATOM     15  H2  LIG    1       21.855 -21.645   4.207  0.00  0.00    +0.119 HD
ENDBRANCH  12  13
BRANCH  12  16
ATOM     16  C   LIG    1       22.961 -19.231   4.513  0.00  0.00    +0.322 C 
ATOM     17  O   LIG    1       22.243 -18.345   4.949  0.00  0.00    -0.249 OA
BRANCH  16  18
ATOM     18  OXT LIG    1       23.580 -19.161   3.305  0.00  0.00    -0.479 OA
ATOM     19  HXT LIG    1       23.593 -18.201   3.066  0.00  0.00    +0.295 HD
ENDBRANCH  16  18
ENDBRANCH  12  16
ENDBRANCH  11  12
ENDBRANCH   1  11
TORSDOF 7
ENDMDL
MODEL 3
REMARK VINA RESULT:      -4.5      3.693      4.248
REMARK  Name = *****
REMARK                            x       y       z     vdW  Elec       q    Type
REMARK                         _______ _______ _______ _____ _____    ______ ____
ROOT
ATOM      1  C   LIG    1       24.996 -18.449   3.688  0.00  0.00    -0.042 A 
ATOM      2  C   LIG    1       25.703 -19.507   4.276  0.00  0.00    +0.052 A 
ATOM      3  C   LIG    1       25.010 -20.524   4.919  0.00  0.00    +0.159 A 
ATOM      4  C   LIG    1       23.620 -20.516   4.977  0.00  0.00    +0.158 A 
ATOM      5  C   LIG    1       22.901 -19.478   4.402  0.00  0.00    +0.049 A 
ATOM      6  C   LIG    1       23.591 -18.444   3.761  0.00  0.00    +0.007 A 
ENDROOT
BRANCH   3   7
ATOM      7  O   LIG    1       25.712 -21.543   5.497  0.00  0.00    -0.503 OA
ATOM      8  H   LIG    1       25.728 -21.316   6.449  0.00  0.00    +0.292 HD
ENDBRANCH   3   7
BRANCH   4   9
ATOM      9  O   LIG    1       23.004 -21.559   5.612  0.00  0.00    -0.503 OA
ATOM     10  H   LIG    1       22.065 -21.330   5.723  0.00  0.00    +0.292 HD
ENDBRANCH   4   9
BRANCH   1  11
ATOM     11  C   LIG    1       25.727 -17.329   2.980  0.00  0.00    +0.065 C 
BRANCH  11  12
ATOM     12  CA  LIG    1       25.792 -15.995   3.743  0.00  0.00    +0.165 C 
BRANCH  12  13
ATOM     13  N   LIG    1       24.503 -15.231   3.739  0.00  0.00    -0.318 NA
ATOM     14  H1  LIG    1       23.784 -15.820   3.301  0.00  0.00    +0.119 HD
ATOM     15  H2  LIG    1       24.189 -15.158   4.711  0.00  0.00    +0.119 HD
ENDBRANCH  12  13
BRANCH  12  16
ATOM     16  C   LIG    1       26.912 -15.087   3.215  0.00  0.00    +0.322 C 
ATOM     17  O   LIG    1       26.870 -14.442   2.178  0.00  0.00    -0.249 OA
BRANCH  16  18
ATOM     18  OXT LIG    1       27.990 -15.100   4.041  0.00  0.00    -0.479 OA
ATOM     19  HXT LIG    1       28.149 -16.051   4.259  0.00  0.00    +0.295 HD
ENDBRANCH  16  18
ENDBRANCH  12  16
ENDBRANCH  11  12
ENDBRANCH   1  11
TORSDOF 7
ENDMDL
MODEL 4
REMARK VINA RESULT:      -4.2      4.860      5.327
REMARK  Name = *****
REMARK                            x       y       z     vdW  Elec       q    Type
REMARK                         _______ _______ _______ _____ _____    ______ ____
ROOT
ATOM      1  C   LIG    1       23.811 -16.455   4.048  0.00  0.00    -0.042 A 
ATOM      2  C   LIG    1       24.822 -17.336   3.640  0.00  0.00    +0.052 A 
ATOM      3  C   LIG    1       24.598 -18.706   3.683  0.00  0.00    +0.159 A 
ATOM      4  C   LIG    1       23.379 -19.218   4.114  0.00  0.00    +0.158 A 
ATOM      5  C   LIG    1       22.365 -18.363   4.524  0.00  0.00    +0.049 A 
ATOM      6  C   LIG    1       22.585 -16.982   4.493  0.00  0.00    +0.007 A 
ENDROOT
BRANCH   3   7
ATOM      7  O   LIG    1       25.595 -19.553   3.293  0.00  0.00    -0.503 OA
ATOM      8  H   LIG    1       25.132 -20.261   2.800  0.00  0.00    +0.292 HD
ENDBRANCH   3   7
BRANCH   4   9
ATOM      9  O   LIG    1       23.223 -20.577   4.114  0.00  0.00    -0.503 OA
ATOM     10  H   LIG    1       22.298 -20.773   4.343  0.00  0.00    +0.292 HD
ENDBRANCH   4   9
BRANCH   1  11
ATOM     11  C   LIG    1       24.028 -14.958   4.010  0.00  0.00    +0.065 C 
BRANCH  11  12
ATOM     12  CA  LIG    1       25.486 -14.504   3.823  0.00  0.00    +0.165 C 
BRANCH  12  13
ATOM     13  N   LIG    1       25.997 -13.634   4.930  0.00  0.00    -0.318 NA
ATOM     14  H1  LIG    1       26.578 -14.214   5.549  0.00  0.00    +0.119 HD
ATOM     15  H2  LIG    1       26.669 -12.980   4.519  0.00  0.00    +0.119 HD
ENDBRANCH  12  13
BRANCH  12  16
ATOM     16  C   LIG    1       25.694 -13.782   2.483  0.00  0.00    +0.322 C 
ATOM     17  O   LIG    1       24.910 -12.996   1.974  0.00  0.00    -0.249 OA
BRANCH  16  18
ATOM     18  OXT LIG    1       26.869 -14.142   1.905  0.00  0.00    -0.479 OA
ATOM     19  HXT LIG    1       27.523 -13.451   2.175  0.00  0.00    +0.295 HD
ENDBRANCH  16  18
ENDBRANCH  12  16
ENDBRANCH  11  12
ENDBRANCH   1  11
TORSDOF 7
ENDMDL
MODEL 5
REMARK VINA RESULT:      -4.1      2.104      5.555
REMARK  Name = *****
REMARK                            x       y       z     vdW  Elec       q    Type
REMARK                         _______ _______ _______ _____ _____    ______ ____
ROOT
ATOM      1  C   LIG    1       25.980 -20.351   5.138  0.00  0.00    -0.042 A 
ATOM      2  C   LIG    1       27.045 -20.646   6.000  0.00  0.00    +0.052 A 
ATOM      3  C   LIG    1       28.177 -19.842   5.994  0.00  0.00    +0.159 A 
ATOM      4  C   LIG    1       28.265 -18.737   5.153  0.00  0.00    +0.158 A 
ATOM      5  C   LIG    1       27.222 -18.429   4.291  0.00  0.00    +0.049 A 
ATOM      6  C   LIG    1       26.082 -19.239   4.283  0.00  0.00    +0.007 A 
ENDROOT
BRANCH   3   7
ATOM      7  O   LIG    1       29.211 -20.147   6.832  0.00  0.00    -0.503 OA
ATOM      8  H   LIG    1       29.978 -20.269   6.235  0.00  0.00    +0.292 HD
ENDBRANCH   3   7
BRANCH   4   9
ATOM      9  O   LIG    1       29.402 -17.980   5.213  0.00  0.00    -0.503 OA
ATOM     10  H   LIG    1       29.374 -17.339   4.483  0.00  0.00    +0.292 HD
ENDBRANCH   4   9
BRANCH   1  11
ATOM     11  C   LIG    1       24.734 -21.211   5.125  0.00  0.00    +0.065 C 
BRANCH  11  12
ATOM     12  CA  LIG    1       23.542 -20.662   5.926  0.00  0.00    +0.165 C 
BRANCH  12  13
ATOM     13  N   LIG    1       23.080 -21.569   7.025  0.00  0.00    -0.318 NA
ATOM     14  H1  LIG    1       22.160 -21.240   7.345  0.00  0.00    +0.119 HD
ATOM     15  H2  LIG    1       22.872 -22.478   6.603  0.00  0.00    +0.119 HD
ENDBRANCH  12  13
BRANCH  12  16
ATOM     16  C   LIG    1       22.349 -20.326   5.020  0.00  0.00    +0.322 C 
ATOM     17  O   LIG    1       22.042 -19.207   4.638  0.00  0.00    -0.249 OA
BRANCH  16  18
ATOM     18  OXT LIG    1       21.643 -21.442   4.698  0.00  0.00    -0.479 OA
ATOM     19  HXT LIG    1       21.889 -21.655   3.764  0.00  0.00    +0.295 HD
ENDBRANCH  16  18
ENDBRANCH  12  16
ENDBRANCH  11  12
ENDBRANCH   1  11
TORSDOF 7
ENDMDL
MODEL 6
REMARK VINA RESULT:      -4.1      3.668      4.317
REMARK  Name = *****
REMARK                            x       y       z     vdW  Elec       q    Type
REMARK                         _______ _______ _______ _____ _____    ______ ____
ROOT
ATOM      1  C   LIG    1       25.125 -18.425   3.689  0.00  0.00    -0.042 A 
ATOM      2  C   LIG    1       23.731 -18.551   3.762  0.00  0.00    +0.052 A 
ATOM      3  C   LIG    1       23.172 -19.617   4.454  0.00  0.00    +0.159 A 
ATOM      4  C   LIG    1       23.976 -20.558   5.089  0.00  0.00    +0.158 A 
ATOM      5  C   LIG    1       25.359 -20.453   5.027  0.00  0.00    +0.049 A 
ATOM      6  C   LIG    1       25.931 -19.388   4.324  0.00  0.00    +0.007 A 
ENDROOT
BRANCH   3   7
ATOM      7  O   LIG    1       21.813 -19.732   4.508  0.00  0.00    -0.503 OA
ATOM      8  H   LIG    1       21.660 -20.550   5.025  0.00  0.00    +0.292 HD
ENDBRANCH   3   7
BRANCH   4   9
ATOM      9  O   LIG    1       23.357 -21.572   5.766  0.00  0.00    -0.503 OA
ATOM     10  H   LIG    1       23.400 -22.372   5.214  0.00  0.00    +0.292 HD
ENDBRANCH   4   9
BRANCH   1  11
ATOM     11  C   LIG    1       25.760 -17.273   2.942  0.00  0.00    +0.065 C 
BRANCH  11  12
ATOM     12  CA  LIG    1       25.817 -15.939   3.707  0.00  0.00    +0.165 C 
BRANCH  12  13
ATOM     13  N   LIG    1       24.512 -15.204   3.742  0.00  0.00    -0.318 NA
ATOM     14  H1  LIG    1       24.061 -15.311   2.825  0.00  0.00    +0.119 HD
ATOM     15  H2  LIG    1       23.890 -15.717   4.372  0.00  0.00    +0.119 HD
ENDBRANCH  12  13
BRANCH  12  16
ATOM     16  C   LIG    1       26.901 -15.005   3.150  0.00  0.00    +0.322 C 
ATOM     17  O   LIG    1       26.848 -14.417   2.080  0.00  0.00    -0.249 OA
BRANCH  16  18
ATOM     18  OXT LIG    1       27.962 -14.920   3.993  0.00  0.00    -0.479 OA
ATOM     19  HXT LIG    1       28.604 -15.607   3.687  0.00  0.00    +0.295 HD
ENDBRANCH  16  18
ENDBRANCH  12  16
ENDBRANCH  11  12
ENDBRANCH   1  11
TORSDOF 7
ENDMDL
MODEL 7
REMARK VINA RESULT:      -4.0      4.080      4.797
REMARK  Name = *****
REMARK                            x       y       z     vdW  Elec       q    Type
REMARK                         _______ _______ _______ _____ _____    ______ ____
ROOT
ATOM      1  C   LIG    1       25.711 -17.676   3.547  0.00  0.00    -0.042 A 
ATOM      2  C   LIG    1       26.857 -18.268   4.096  0.00  0.00    +0.052 A 
ATOM      3  C   LIG    1       26.774 -19.535   4.658  0.00  0.00    +0.159 A 
ATOM      4  C   LIG    1       25.571 -20.233   4.674  0.00  0.00    +0.158 A 
ATOM      5  C   LIG    1       24.424 -19.665   4.138  0.00  0.00    +0.049 A 
ATOM      6  C   LIG    1       24.496 -18.385   3.578  0.00  0.00    +0.007 A 
ENDROOT
BRANCH   3   7
ATOM      7  O   LIG    1       27.896 -20.095   5.198  0.00  0.00    -0.503 OA
ATOM      8  H   LIG    1       27.576 -20.917   5.623  0.00  0.00    +0.292 HD
ENDBRANCH   3   7
BRANCH   4   9
ATOM      9  O   LIG    1       25.567 -21.483   5.229  0.00  0.00    -0.503 OA
ATOM     10  H   LIG    1       25.915 -21.410   6.135  0.00  0.00    +0.292 HD
ENDBRANCH   4   9
BRANCH   1  11
ATOM     11  C   LIG    1       25.773 -16.297   2.927  0.00  0.00    +0.065 C 
BRANCH  11  12
ATOM     12  CA  LIG    1       26.301 -15.181   3.844  0.00  0.00    +0.165 C 
BRANCH  12  13
ATOM     13  N   LIG    1       25.226 -14.320   4.433  0.00  0.00    -0.318 NA
ATOM     14  H1  LIG    1       24.342 -14.544   3.957  0.00  0.00    +0.119 HD
ATOM     15  H2  LIG    1       25.067 -14.642   5.391  0.00  0.00    +0.119 HD
ENDBRANCH  12  13
BRANCH  12  16
ATOM     16  C   LIG    1       27.322 -14.286   3.128  0.00  0.00    +0.322 C 
ATOM     17  O   LIG    1       28.283 -13.746   3.655  0.00  0.00    -0.249 OA
BRANCH  16  18
ATOM     18  OXT LIG    1       27.017 -14.142   1.812  0.00  0.00    -0.479 OA
ATOM     19  HXT LIG    1       26.553 -14.976   1.552  0.00  0.00    +0.295 HD
ENDBRANCH  16  18
ENDBRANCH  12  16
ENDBRANCH  11  12
ENDBRANCH   1  11
TORSDOF 7
ENDMDL
MODEL 8
REMARK VINA RESULT:      -3.8      4.295      6.196
REMARK  Name = *****
REMARK                            x       y       z     vdW  Elec       q    Type
REMARK                         _______ _______ _______ _____ _____    ______ ____
ROOT
ATOM      1  C   LIG    1       25.698 -16.559   3.465  0.00  0.00    -0.042 A 
ATOM      2  C   LIG    1       26.862 -15.782   3.551  0.00  0.00    +0.052 A 
ATOM      3  C   LIG    1       26.772 -14.451   3.938  0.00  0.00    +0.159 A 
ATOM      4  C   LIG    1       25.544 -13.880   4.256  0.00  0.00    +0.158 A 
ATOM      5  C   LIG    1       24.380 -14.633   4.177  0.00  0.00    +0.049 A 
ATOM      6  C   LIG    1       24.459 -15.971   3.777  0.00  0.00    +0.007 A 
ENDROOT
BRANCH   3   7
ATOM      7  O   LIG    1       27.911 -13.703   4.008  0.00  0.00    -0.503 OA
ATOM      8  H   LIG    1       27.888 -13.151   3.199  0.00  0.00    +0.292 HD
ENDBRANCH   3   7
BRANCH   4   9
ATOM      9  O   LIG    1       25.533 -12.570   4.647  0.00  0.00    -0.503 OA
ATOM     10  H   LIG    1       26.050 -12.497   5.467  0.00  0.00    +0.292 HD
ENDBRANCH   4   9
BRANCH   1  11
ATOM     11  C   LIG    1       25.768 -18.012   3.046  0.00  0.00    +0.065 C 
BRANCH  11  12
ATOM     12  CA  LIG    1       25.389 -19.034   4.132  0.00  0.00    +0.165 C 
BRANCH  12  13
ATOM     13  N   LIG    1       26.480 -20.009   4.454  0.00  0.00    -0.318 NA
ATOM     14  H1  LIG    1       27.227 -19.501   4.945  0.00  0.00    +0.119 HD
ATOM     15  H2  LIG    1       26.118 -20.647   5.168  0.00  0.00    +0.119 HD
ENDBRANCH  12  13
BRANCH  12  16
ATOM     16  C   LIG    1       24.115 -19.810   3.769  0.00  0.00    +0.322 C 
ATOM     17  O   LIG    1       24.083 -20.940   3.306  0.00  0.00    -0.249 OA
BRANCH  16  18
ATOM     18  OXT LIG    1       23.001 -19.071   4.008  0.00  0.00    -0.479 OA
ATOM     19  HXT LIG    1       22.978 -18.929   4.986  0.00  0.00    +0.295 HD
ENDBRANCH  16  18
ENDBRANCH  12  16
ENDBRANCH  11  12
ENDBRANCH   1  11
TORSDOF 7
ENDMDL
MODEL 9
REMARK VINA RESULT:      -3.8      4.130      4.837
REMARK  Name = *****
REMARK                            x       y       z     vdW  Elec       q    Type
REMARK                         _______ _______ _______ _____ _____    ______ ____
ROOT
ATOM      1  C   LIG    1       24.777 -17.234   3.701  0.00  0.00    -0.042 A 
ATOM      2  C   LIG    1       23.490 -17.635   4.088  0.00  0.00    +0.052 A 
ATOM      3  C   LIG    1       23.171 -18.986   4.116  0.00  0.00    +0.159 A 
ATOM      4  C   LIG    1       24.114 -19.951   3.777  0.00  0.00    +0.158 A 
ATOM      5  C   LIG    1       25.392 -19.576   3.390  0.00  0.00    +0.049 A 
ATOM      6  C   LIG    1       25.720 -18.216   3.349  0.00  0.00    +0.007 A 
ENDROOT
BRANCH   3   7
ATOM      7  O   LIG    1       21.911 -19.362   4.484  0.00  0.00    -0.503 OA
ATOM      8  H   LIG    1       21.386 -19.288   3.662  0.00  0.00    +0.292 HD
ENDBRANCH   3   7
BRANCH   4   9
ATOM      9  O   LIG    1       23.734 -21.263   3.844  0.00  0.00    -0.503 OA
ATOM     10  H   LIG    1       24.291 -21.703   4.509  0.00  0.00    +0.292 HD
ENDBRANCH   4   9
BRANCH   1  11
ATOM     11  C   LIG    1       25.152 -15.769   3.663  0.00  0.00    +0.065 C 
BRANCH  11  12
ATOM     12  CA  LIG    1       26.556 -15.458   3.115  0.00  0.00    +0.165 C 
BRANCH  12  13
ATOM     13  N   LIG    1       27.647 -15.592   4.133  0.00  0.00    -0.318 NA
ATOM     14  H1  LIG    1       27.588 -14.788   4.772  0.00  0.00    +0.119 HD
ATOM     15  H2  LIG    1       27.410 -16.387   4.732  0.00  0.00    +0.119 HD
ENDBRANCH  12  13
BRANCH  12  16
ATOM     16  C   LIG    1       26.628 -14.059   2.486  0.00  0.00    +0.322 C 
ATOM     17  O   LIG    1       25.742 -13.532   1.831  0.00  0.00    -0.249 OA
BRANCH  16  18
ATOM     18  OXT LIG    1       27.827 -13.468   2.730  0.00  0.00    -0.479 OA
ATOM     19  HXT LIG    1       27.840 -13.281   3.701  0.00  0.00    +0.295 HD
ENDBRANCH  16  18
ENDBRANCH  12  16
ENDBRANCH  11  12
ENDBRANCH   1  11
TORSDOF 7
ENDMDL
