MODEL 1
REMARK VINA RESULT:      -5.6      0.000      0.000
REMARK  Name = *****
REMARK                            x       y       z     vdW  Elec       q    Type
REMARK                         _______ _______ _______ _____ _____    ______ ____
ROOT
ATOM      1  C   LIG    1       25.290 -27.169  14.482  0.00  0.00    +0.034 C 
ATOM      2  C   LIG    1       25.431 -28.391  15.410  0.00  0.00    +0.020 C 
ATOM      3  C   LIG    1       25.761 -27.429  12.989  0.00  0.00    -0.014 C 
ATOM      4  C   LIG    1       25.959 -26.063  12.253  0.00  0.00    +0.012 C 
ATOM      5  C   LIG    1       24.537 -28.138  12.311  0.00  0.00    -0.000 C 
ATOM      6  C   LIG    1       24.612 -29.677  12.170  0.00  0.00    -0.000 C 
ATOM      7  C   LIG    1       25.949 -30.186  11.607  0.00  0.00    +0.035 C 
ATOM      8  C   LIG    1       27.044 -29.701  12.581  0.00  0.00    +0.119 C 
ATOM      9  C   LIG    1       26.153 -30.052  10.036  0.00  0.00    +0.013 C 
ATOM     10  C   LIG    1       27.175 -31.137   9.586  0.00  0.00    +0.020 C 
ATOM     11  C   LIG    1       24.831 -30.295   9.249  0.00  0.00    -0.056 C 
ATOM     12  C   LIG    1       24.846 -30.127   7.903  0.00  0.00    +0.051 C 
ATOM     13  C   LIG    1       25.240 -28.707   7.572  0.00  0.00    +0.179 C 
ATOM     14  O   LIG    1       24.816 -28.140   6.574  0.00  0.00    -0.288 OA
ATOM     15  C   LIG    1       26.260 -28.076   8.457  0.00  0.00    +0.047 C 
ATOM     16  C   LIG    1       23.519 -29.922   9.903  0.00  0.00    +0.032 C 
ATOM     17  C   LIG    1       26.701 -28.712   9.558  0.00  0.00    -0.012 C 
ATOM     18  C   LIG    1       23.455 -30.286  11.371  0.00  0.00    +0.008 C 
ATOM     19  C   LIG    1       23.301 -27.742  13.153  0.00  0.00    +0.008 C 
ATOM     20  C   LIG    1       27.099 -28.194  12.836  0.00  0.00    +0.039 C 
ATOM     21  C   LIG    1       23.782 -26.812  14.267  0.00  0.00    -0.000 C 
ATOM     22  C   LIG    1       22.881 -26.894  15.500  0.00  0.00    +0.008 C 
ENDROOT
BRANCH   1  23
ATOM     23  C   LIG    1       26.002 -25.956  15.159  0.00  0.00    +0.140 C 
ATOM     24  O   LIG    1       25.398 -24.903  15.385  0.00  0.00    -0.297 OA
BRANCH  23  26
ATOM     25  C   LIG    1       28.304 -24.940  14.893  0.00  0.00    +0.012 C 
ATOM     26  C   LIG    1       27.484 -26.068  15.500  0.00  0.00    +0.071 C 
ENDBRANCH  23  26
ENDBRANCH   1  23
BRANCH   8  27
ATOM     27  O   LIG    1       28.334 -30.147  12.185  0.00  0.00    -0.391 OA
ATOM     28  H   LIG    1       28.946 -30.006  12.930  0.00  0.00    +0.210 HD
ENDBRANCH   8  27
TORSDOF 3
ENDMDL
MODEL 2
REMARK VINA RESULT:      -5.6      1.805      2.202
REMARK  Name = *****
REMARK                            x       y       z     vdW  Elec       q    Type
REMARK                         _______ _______ _______ _____ _____    ______ ____
ROOT
ATOM      1  C   LIG    1       25.894 -27.494  14.165  0.00  0.00    +0.034 C 
ATOM      2  C   LIG    1       25.497 -28.157  15.499  0.00  0.00    +0.020 C 
ATOM      3  C   LIG    1       25.913 -28.487  12.927  0.00  0.00    -0.014 C 
ATOM      4  C   LIG    1       26.699 -27.835  11.741  0.00  0.00    +0.012 C 
ATOM      5  C   LIG    1       24.412 -28.583  12.481  0.00  0.00    -0.000 C 
ATOM      6  C   LIG    1       23.625 -29.831  12.946  0.00  0.00    -0.000 C 
ATOM      7  C   LIG    1       24.371 -31.156  12.726  0.00  0.00    +0.035 C 
ATOM      8  C   LIG    1       25.690 -31.051  13.521  0.00  0.00    +0.119 C 
ATOM      9  C   LIG    1       24.368 -31.732  11.244  0.00  0.00    +0.013 C 
ATOM     10  C   LIG    1       24.561 -33.276  11.325  0.00  0.00    +0.020 C 
ATOM     11  C   LIG    1       23.021 -31.464  10.512  0.00  0.00    -0.056 C 
ATOM     12  C   LIG    1       22.914 -31.829   9.210  0.00  0.00    +0.051 C 
ATOM     13  C   LIG    1       23.954 -31.100   8.391  0.00  0.00    +0.179 C 
ATOM     14  O   LIG    1       23.753 -30.797   7.222  0.00  0.00    -0.288 OA
ATOM     15  C   LIG    1       25.275 -30.875   9.042  0.00  0.00    +0.047 C 
ATOM     16  C   LIG    1       22.236 -30.221  10.870  0.00  0.00    +0.032 C 
ATOM     17  C   LIG    1       25.470 -31.203  10.333  0.00  0.00    -0.012 C 
ATOM     18  C   LIG    1       22.214 -29.932  12.356  0.00  0.00    +0.008 C 
ATOM     19  C   LIG    1       23.732 -27.298  13.010  0.00  0.00    +0.008 C 
ATOM     20  C   LIG    1       26.586 -29.859  13.182  0.00  0.00    +0.039 C 
ATOM     21  C   LIG    1       24.804 -26.467  13.715  0.00  0.00    -0.000 C 
ATOM     22  C   LIG    1       24.205 -25.587  14.812  0.00  0.00    +0.008 C 
ENDROOT
BRANCH   1  23
ATOM     23  C   LIG    1       27.242 -26.736  14.379  0.00  0.00    +0.140 C 
ATOM     24  O   LIG    1       28.181 -27.259  14.987  0.00  0.00    -0.297 OA
BRANCH  23  26
ATOM     25  C   LIG    1       28.120 -24.408  14.837  0.00  0.00    +0.012 C 
ATOM     26  C   LIG    1       27.373 -25.307  13.863  0.00  0.00    +0.071 C 
ENDBRANCH  23  26
ENDBRANCH   1  23
BRANCH   8  27
ATOM     27  O   LIG    1       26.458 -32.243  13.426  0.00  0.00    -0.391 OA
ATOM     28  H   LIG    1       25.869 -32.960  13.132  0.00  0.00    +0.210 HD
ENDBRANCH   8  27
TORSDOF 3
ENDMDL
MODEL 3
REMARK VINA RESULT:      -5.4      2.279      6.236
REMARK  Name = *****
REMARK                            x       y       z     vdW  Elec       q    Type
REMARK                         _______ _______ _______ _____ _____    ______ ____
ROOT
ATOM      1  C   LIG    1       23.312 -31.549  10.753  0.00  0.00    +0.034 C 
ATOM      2  C   LIG    1       24.288 -32.728  10.934  0.00  0.00    +0.020 C 
ATOM      3  C   LIG    1       23.543 -30.352  11.770  0.00  0.00    -0.014 C 
ATOM      4  C   LIG    1       22.287 -29.418  11.777  0.00  0.00    +0.012 C 
ATOM      5  C   LIG    1       24.720 -29.528  11.142  0.00  0.00    -0.000 C 
ATOM      6  C   LIG    1       26.130 -29.763  11.735  0.00  0.00    -0.000 C 
ATOM      7  C   LIG    1       26.171 -29.736  13.271  0.00  0.00    +0.035 C 
ATOM      8  C   LIG    1       25.216 -30.849  13.752  0.00  0.00    +0.119 C 
ATOM      9  C   LIG    1       26.144 -28.302  13.956  0.00  0.00    +0.013 C 
ATOM     10  C   LIG    1       26.821 -28.419  15.353  0.00  0.00    +0.020 C 
ATOM     11  C   LIG    1       26.939 -27.244  13.135  0.00  0.00    -0.056 C 
ATOM     12  C   LIG    1       26.925 -25.957  13.564  0.00  0.00    +0.051 C 
ATOM     13  C   LIG    1       25.504 -25.444  13.587  0.00  0.00    +0.179 C 
ATOM     14  O   LIG    1       25.244 -24.265  13.383  0.00  0.00    -0.288 OA
ATOM     15  C   LIG    1       24.451 -26.420  13.986  0.00  0.00    +0.047 C 
ATOM     16  C   LIG    1       27.004 -27.392  11.631  0.00  0.00    +0.032 C 
ATOM     17  C   LIG    1       24.757 -27.714  14.192  0.00  0.00    -0.012 C 
ATOM     18  C   LIG    1       27.204 -28.822  11.177  0.00  0.00    +0.008 C 
ATOM     19  C   LIG    1       24.716 -29.869   9.633  0.00  0.00    +0.008 C 
ATOM     20  C   LIG    1       23.775 -30.765  13.244  0.00  0.00    +0.039 C 
ATOM     21  C   LIG    1       23.558 -30.836   9.383  0.00  0.00    -0.000 C 
ATOM     22  C   LIG    1       23.830 -31.744   8.183  0.00  0.00    +0.008 C 
ENDROOT
BRANCH   1  23
ATOM     23  C   LIG    1       21.856 -32.113  10.772  0.00  0.00    +0.140 C 
ATOM     24  O   LIG    1       20.993 -31.682  10.002  0.00  0.00    -0.297 OA
BRANCH  23  26
ATOM     25  C   LIG    1       20.535 -32.665  12.858  0.00  0.00    +0.012 C 
ATOM     26  C   LIG    1       21.494 -33.183  11.797  0.00  0.00    +0.071 C 
ENDBRANCH  23  26
ENDBRANCH   1  23
BRANCH   8  27
ATOM     27  O   LIG    1       25.197 -30.951  15.169  0.00  0.00    -0.391 OA
ATOM     28  H   LIG    1       25.770 -31.695  15.427  0.00  0.00    +0.210 HD
ENDBRANCH   8  27
TORSDOF 3
ENDMDL
MODEL 4
REMARK VINA RESULT:      -5.3      3.091      5.729
REMARK  Name = *****
REMARK                            x       y       z     vdW  Elec       q    Type
REMARK                         _______ _______ _______ _____ _____    ______ ____
ROOT
ATOM      1  C   LIG    1       25.470 -30.321  11.054  0.00  0.00    +0.034 C 
ATOM      2  C   LIG    1       24.089 -29.652  11.193  0.00  0.00    +0.020 C 
ATOM      3  C   LIG    1       25.568 -31.371   9.868  0.00  0.00    -0.014 C 
ATOM      4  C   LIG    1       26.837 -32.267  10.060  0.00  0.00    +0.012 C 
ATOM      5  C   LIG    1       25.818 -30.495   8.592  0.00  0.00    -0.000 C 
ATOM      6  C   LIG    1       24.593 -30.209   7.691  0.00  0.00    -0.000 C 
ATOM      7  C   LIG    1       23.750 -31.454   7.372  0.00  0.00    +0.035 C 
ATOM      8  C   LIG    1       23.275 -32.017   8.729  0.00  0.00    +0.119 C 
ATOM      9  C   LIG    1       24.320 -32.427   6.252  0.00  0.00    +0.013 C 
ATOM     10  C   LIG    1       23.121 -33.200   5.626  0.00  0.00    +0.020 C 
ATOM     11  C   LIG    1       25.030 -31.651   5.105  0.00  0.00    -0.056 C 
ATOM     12  C   LIG    1       25.637 -32.366   4.125  0.00  0.00    +0.051 C 
ATOM     13  C   LIG    1       26.712 -33.241   4.726  0.00  0.00    +0.179 C 
ATOM     14  O   LIG    1       27.725 -33.532   4.104  0.00  0.00    -0.288 OA
ATOM     15  C   LIG    1       26.422 -33.825   6.066  0.00  0.00    +0.047 C 
ATOM     16  C   LIG    1       25.721 -30.344   5.431  0.00  0.00    +0.032 C 
ATOM     17  C   LIG    1       25.309 -33.480   6.739  0.00  0.00    -0.012 C 
ATOM     18  C   LIG    1       24.935 -29.475   6.390  0.00  0.00    +0.008 C 
ATOM     19  C   LIG    1       26.423 -29.167   9.103  0.00  0.00    +0.008 C 
ATOM     20  C   LIG    1       24.372 -32.348   9.741  0.00  0.00    +0.039 C 
ATOM     21  C   LIG    1       26.549 -29.274  10.623  0.00  0.00    -0.000 C 
ATOM     22  C   LIG    1       26.471 -27.902  11.294  0.00  0.00    +0.008 C 
ENDROOT
BRANCH   1  23
ATOM     23  C   LIG    1       25.869 -30.910  12.445  0.00  0.00    +0.140 C 
ATOM     24  O   LIG    1       27.008 -30.765  12.898  0.00  0.00    -0.297 OA
BRANCH  23  26
ATOM     25  C   LIG    1       25.240 -33.177  13.377  0.00  0.00    +0.012 C 
ATOM     26  C   LIG    1       24.838 -31.718  13.226  0.00  0.00    +0.071 C 
ENDBRANCH  23  26
ENDBRANCH   1  23
BRANCH   8  27
ATOM     27  O   LIG    1       22.446 -33.159   8.562  0.00  0.00    -0.391 OA
ATOM     28  H   LIG    1       22.603 -33.760   9.312  0.00  0.00    +0.210 HD
ENDBRANCH   8  27
TORSDOF 3
ENDMDL
MODEL 5
REMARK VINA RESULT:      -5.3      2.154      6.793
REMARK  Name = *****
REMARK                            x       y       z     vdW  Elec       q    Type
REMARK                         _______ _______ _______ _____ _____    ______ ____
ROOT
ATOM      1  C   LIG    1       24.662 -31.814   8.735  0.00  0.00    +0.034 C 
ATOM      2  C   LIG    1       25.853 -32.773   8.924  0.00  0.00    +0.020 C 
ATOM      3  C   LIG    1       24.282 -30.985  10.034  0.00  0.00    -0.014 C 
ATOM      4  C   LIG    1       22.854 -30.368   9.867  0.00  0.00    +0.012 C 
ATOM      5  C   LIG    1       25.296 -29.789  10.044  0.00  0.00    -0.000 C 
ATOM      6  C   LIG    1       26.519 -29.919  10.983  0.00  0.00    -0.000 C 
ATOM      7  C   LIG    1       26.166 -30.379  12.406  0.00  0.00    +0.035 C 
ATOM      8  C   LIG    1       25.476 -31.752  12.262  0.00  0.00    +0.119 C 
ATOM      9  C   LIG    1       25.564 -29.274  13.378  0.00  0.00    +0.013 C 
ATOM     10  C   LIG    1       25.874 -29.698  14.844  0.00  0.00    +0.020 C 
ATOM     11  C   LIG    1       26.206 -27.875  13.146  0.00  0.00    -0.056 C 
ATOM     12  C   LIG    1       25.722 -26.822  13.852  0.00  0.00    +0.051 C 
ATOM     13  C   LIG    1       24.255 -26.633  13.542  0.00  0.00    +0.179 C 
ATOM     14  O   LIG    1       23.732 -25.527  13.563  0.00  0.00    -0.288 OA
ATOM     15  C   LIG    1       23.457 -27.872  13.326  0.00  0.00    +0.047 C 
ATOM     16  C   LIG    1       26.684 -27.517  11.756  0.00  0.00    +0.032 C 
ATOM     17  C   LIG    1       24.054 -29.078  13.292  0.00  0.00    -0.012 C 
ATOM     18  C   LIG    1       27.388 -28.658  11.052  0.00  0.00    +0.008 C 
ATOM     19  C   LIG    1       25.766 -29.622   8.580  0.00  0.00    +0.008 C 
ATOM     20  C   LIG    1       24.245 -31.794  11.355  0.00  0.00    +0.039 C 
ATOM     21  C   LIG    1       25.031 -30.666   7.739  0.00  0.00    -0.000 C 
ATOM     22  C   LIG    1       25.840 -31.069   6.506  0.00  0.00    +0.008 C 
ENDROOT
BRANCH   1  23
ATOM     23  C   LIG    1       23.468 -32.629   8.143  0.00  0.00    +0.140 C 
ATOM     24  O   LIG    1       22.932 -32.298   7.081  0.00  0.00    -0.297 OA
BRANCH  23  26
ATOM     25  C   LIG    1       21.424 -33.773   9.098  0.00  0.00    +0.012 C 
ATOM     26  C   LIG    1       22.934 -33.825   8.924  0.00  0.00    +0.071 C 
ENDBRANCH  23  26
ENDBRANCH   1  23
BRANCH   8  27
ATOM     27  O   LIG    1       25.133 -32.304  13.525  0.00  0.00    -0.391 OA
ATOM     28  H   LIG    1       24.509 -33.037  13.378  0.00  0.00    +0.210 HD
ENDBRANCH   8  27
TORSDOF 3
ENDMDL
MODEL 6
REMARK VINA RESULT:      -4.9      2.361      7.144
REMARK  Name = *****
REMARK                            x       y       z     vdW  Elec       q    Type
REMARK                         _______ _______ _______ _____ _____    ______ ____
ROOT
ATOM      1  C   LIG    1       24.668 -31.761   8.028  0.00  0.00    +0.034 C 
ATOM      2  C   LIG    1       23.586 -32.855   8.113  0.00  0.00    +0.020 C 
ATOM      3  C   LIG    1       24.621 -30.707   9.213  0.00  0.00    -0.014 C 
ATOM      4  C   LIG    1       25.464 -29.445   8.830  0.00  0.00    +0.012 C 
ATOM      5  C   LIG    1       25.371 -31.414  10.395  0.00  0.00    -0.000 C 
ATOM      6  C   LIG    1       24.491 -32.067  11.487  0.00  0.00    -0.000 C 
ATOM      7  C   LIG    1       23.353 -31.165  11.992  0.00  0.00    +0.035 C 
ATOM      8  C   LIG    1       22.485 -30.829  10.761  0.00  0.00    +0.119 C 
ATOM      9  C   LIG    1       23.757 -30.027  13.026  0.00  0.00    +0.013 C 
ATOM     10  C   LIG    1       22.501 -29.681  13.880  0.00  0.00    +0.020 C 
ATOM     11  C   LIG    1       24.877 -30.492  14.003  0.00  0.00    -0.056 C 
ATOM     12  C   LIG    1       25.376 -29.588  14.884  0.00  0.00    +0.051 C 
ATOM     13  C   LIG    1       25.974 -28.423  14.132  0.00  0.00    +0.179 C 
ATOM     14  O   LIG    1       26.926 -27.794  14.575  0.00  0.00    -0.288 OA
ATOM     15  C   LIG    1       25.273 -28.006  12.884  0.00  0.00    +0.047 C 
ATOM     16  C   LIG    1       25.892 -31.502  13.516  0.00  0.00    +0.032 C 
ATOM     17  C   LIG    1       24.237 -28.719  12.408  0.00  0.00    -0.012 C 
ATOM     18  C   LIG    1       25.283 -32.610  12.682  0.00  0.00    +0.008 C 
ATOM     19  C   LIG    1       26.281 -32.479   9.740  0.00  0.00    +0.008 C 
ATOM     20  C   LIG    1       23.211 -30.181   9.582  0.00  0.00    +0.039 C 
ATOM     21  C   LIG    1       26.092 -32.378   8.226  0.00  0.00    -0.000 C 
ATOM     22  C   LIG    1       26.356 -33.715   7.534  0.00  0.00    +0.008 C 
ENDROOT
BRANCH   1  23
ATOM     23  C   LIG    1       24.594 -31.112   6.610  0.00  0.00    +0.140 C 
ATOM     24  O   LIG    1       23.529 -30.678   6.159  0.00  0.00    -0.297 OA
BRANCH  23  26
ATOM     25  C   LIG    1       25.717 -31.856   4.468  0.00  0.00    +0.012 C 
ATOM     26  C   LIG    1       25.857 -31.060   5.756  0.00  0.00    +0.071 C 
ENDBRANCH  23  26
ENDBRANCH   1  23
BRANCH   8  27
ATOM     27  O   LIG    1       21.367 -30.025  11.109  0.00  0.00    -0.391 OA
ATOM     28  H   LIG    1       21.033 -30.326  11.973  0.00  0.00    +0.210 HD
ENDBRANCH   8  27
TORSDOF 3
ENDMDL
MODEL 7
REMARK VINA RESULT:      -4.8      2.448      7.143
REMARK  Name = *****
REMARK                            x       y       z     vdW  Elec       q    Type
REMARK                         _______ _______ _______ _____ _____    ______ ____
ROOT
ATOM      1  C   LIG    1       25.078 -31.440   7.466  0.00  0.00    +0.034 C 
ATOM      2  C   LIG    1       24.078 -32.586   7.221  0.00  0.00    +0.020 C 
ATOM      3  C   LIG    1       24.809 -30.615   8.795  0.00  0.00    -0.014 C 
ATOM      4  C   LIG    1       25.596 -29.264   8.746  0.00  0.00    +0.012 C 
ATOM      5  C   LIG    1       25.461 -31.481   9.929  0.00  0.00    -0.000 C 
ATOM      6  C   LIG    1       24.506 -32.362  10.770  0.00  0.00    -0.000 C 
ATOM      7  C   LIG    1       23.251 -31.624  11.264  0.00  0.00    +0.035 C 
ATOM      8  C   LIG    1       22.516 -31.122  10.004  0.00  0.00    +0.119 C 
ATOM      9  C   LIG    1       23.441 -30.668  12.520  0.00  0.00    +0.013 C 
ATOM     10  C   LIG    1       22.069 -30.545  13.246  0.00  0.00    +0.020 C 
ATOM     11  C   LIG    1       24.466 -31.239  13.544  0.00  0.00    -0.056 C 
ATOM     12  C   LIG    1       24.785 -30.481  14.623  0.00  0.00    +0.051 C 
ATOM     13  C   LIG    1       25.382 -29.171  14.165  0.00  0.00    +0.179 C 
ATOM     14  O   LIG    1       26.224 -28.582  14.830  0.00  0.00    -0.288 OA
ATOM     15  C   LIG    1       24.808 -28.577  12.924  0.00  0.00    +0.047 C 
ATOM     16  C   LIG    1       25.605 -32.093  13.032  0.00  0.00    +0.032 C 
ATOM     17  C   LIG    1       23.894 -29.248  12.200  0.00  0.00    -0.012 C 
ATOM     18  C   LIG    1       25.186 -33.066  11.950  0.00  0.00    +0.008 C 
ATOM     19  C   LIG    1       26.520 -32.364   9.230  0.00  0.00    +0.008 C 
ATOM     20  C   LIG    1       23.330 -30.237   9.058  0.00  0.00    +0.039 C 
ATOM     21  C   LIG    1       26.509 -32.006   7.744  0.00  0.00    -0.000 C 
ATOM     22  C   LIG    1       26.954 -33.184   6.876  0.00  0.00    +0.008 C 
ENDROOT
BRANCH   1  23
ATOM     23  C   LIG    1       25.129 -30.554   6.181  0.00  0.00    +0.140 C 
ATOM     24  O   LIG    1       26.116 -30.557   5.440  0.00  0.00    -0.297 OA
BRANCH  23  26
ATOM     25  C   LIG    1       24.395 -28.235   5.482  0.00  0.00    +0.012 C 
ATOM     26  C   LIG    1       23.950 -29.637   5.871  0.00  0.00    +0.071 C 
ENDBRANCH  23  26
ENDBRANCH   1  23
BRANCH   8  27
ATOM     27  O   LIG    1       21.307 -30.451  10.332  0.00  0.00    -0.391 OA
ATOM     28  H   LIG    1       20.589 -30.844   9.805  0.00  0.00    +0.210 HD
ENDBRANCH   8  27
TORSDOF 3
ENDMDL
MODEL 8
REMARK VINA RESULT:      -4.7      3.028      4.720
REMARK  Name = *****
REMARK                            x       y       z     vdW  Elec       q    Type
REMARK                         _______ _______ _______ _____ _____    ______ ____
ROOT
ATOM      1  C   LIG    1       25.335 -27.890  13.606  0.00  0.00    +0.034 C 
ATOM      2  C   LIG    1       25.496 -28.056  15.130  0.00  0.00    +0.020 C 
ATOM      3  C   LIG    1       24.406 -28.984  12.928  0.00  0.00    -0.014 C 
ATOM      4  C   LIG    1       24.629 -28.977  11.379  0.00  0.00    +0.012 C 
ATOM      5  C   LIG    1       22.947 -28.467  13.180  0.00  0.00    -0.000 C 
ATOM      6  C   LIG    1       22.168 -29.120  14.346  0.00  0.00    -0.000 C 
ATOM      7  C   LIG    1       22.239 -30.656  14.361  0.00  0.00    +0.035 C 
ATOM      8  C   LIG    1       23.735 -31.021  14.469  0.00  0.00    +0.119 C 
ATOM      9  C   LIG    1       21.298 -31.418  13.332  0.00  0.00    +0.013 C 
ATOM     10  C   LIG    1       21.013 -32.841  13.898  0.00  0.00    +0.020 C 
ATOM     11  C   LIG    1       19.927 -30.702  13.147  0.00  0.00    -0.056 C 
ATOM     12  C   LIG    1       19.061 -31.201  12.231  0.00  0.00    +0.051 C 
ATOM     13  C   LIG    1       19.699 -31.178  10.862  0.00  0.00    +0.179 C 
ATOM     14  O   LIG    1       19.033 -31.028   9.846  0.00  0.00    -0.288 OA
ATOM     15  C   LIG    1       21.160 -31.465  10.804  0.00  0.00    +0.047 C 
ATOM     16  C   LIG    1       19.869 -29.197  13.294  0.00  0.00    +0.032 C 
ATOM     17  C   LIG    1       21.876 -31.613  11.934  0.00  0.00    -0.012 C 
ATOM     18  C   LIG    1       20.704 -28.674  14.444  0.00  0.00    +0.008 C 
ATOM     19  C   LIG    1       23.074 -26.944  13.414  0.00  0.00    +0.008 C 
ATOM     20  C   LIG    1       24.649 -30.443  13.388  0.00  0.00    +0.039 C 
ATOM     21  C   LIG    1       24.552 -26.578  13.275  0.00  0.00    -0.000 C 
ATOM     22  C   LIG    1       24.909 -25.345  14.105  0.00  0.00    +0.008 C 
ENDROOT
BRANCH   1  23
ATOM     23  C   LIG    1       26.759 -27.800  12.972  0.00  0.00    +0.140 C 
ATOM     24  O   LIG    1       27.045 -26.910  12.165  0.00  0.00    -0.297 OA
BRANCH  23  26
ATOM     25  C   LIG    1       28.505 -29.409  12.100  0.00  0.00    +0.012 C 
ATOM     26  C   LIG    1       27.793 -28.863  13.327  0.00  0.00    +0.071 C 
ENDBRANCH  23  26
ENDBRANCH   1  23
BRANCH   8  27
ATOM     27  O   LIG    1       23.930 -32.427  14.531  0.00  0.00    -0.391 OA
ATOM     28  H   LIG    1       23.969 -32.687  15.469  0.00  0.00    +0.210 HD
ENDBRANCH   8  27
TORSDOF 3
ENDMDL
MODEL 9
REMARK VINA RESULT:      -4.7      2.704      5.365
REMARK  Name = *****
REMARK                            x       y       z     vdW  Elec       q    Type
REMARK                         _______ _______ _______ _____ _____    ______ ____
ROOT
ATOM      1  C   LIG    1       26.832 -28.157  13.406  0.00  0.00    +0.034 C 
ATOM      2  C   LIG    1       26.733 -27.018  12.373  0.00  0.00    +0.020 C 
ATOM      3  C   LIG    1       25.439 -28.592  14.030  0.00  0.00    -0.014 C 
ATOM      4  C   LIG    1       25.682 -29.439  15.323  0.00  0.00    +0.012 C 
ATOM      5  C   LIG    1       24.818 -29.558  12.963  0.00  0.00    -0.000 C 
ATOM      6  C   LIG    1       23.745 -28.961  12.021  0.00  0.00    -0.000 C 
ATOM      7  C   LIG    1       22.665 -28.144  12.747  0.00  0.00    +0.035 C 
ATOM      8  C   LIG    1       23.402 -27.003  13.482  0.00  0.00    +0.119 C 
ATOM      9  C   LIG    1       21.526 -28.972  13.485  0.00  0.00    +0.013 C 
ATOM     10  C   LIG    1       20.257 -28.075  13.577  0.00  0.00    +0.020 C 
ATOM     11  C   LIG    1       21.136 -30.261  12.702  0.00  0.00    -0.056 C 
ATOM     12  C   LIG    1       20.235 -31.105  13.264  0.00  0.00    +0.051 C 
ATOM     13  C   LIG    1       20.761 -31.600  14.591  0.00  0.00    +0.179 C 
ATOM     14  O   LIG    1       20.479 -32.712  15.018  0.00  0.00    -0.288 OA
ATOM     15  C   LIG    1       21.541 -30.624  15.403  0.00  0.00    +0.047 C 
ATOM     16  C   LIG    1       22.194 -30.953  11.871  0.00  0.00    +0.032 C 
ATOM     17  C   LIG    1       21.853 -29.412  14.908  0.00  0.00    -0.012 C 
ATOM     18  C   LIG    1       23.078 -29.992  11.104  0.00  0.00    +0.008 C 
ATOM     19  C   LIG    1       26.010 -30.096  12.136  0.00  0.00    +0.008 C 
ATOM     20  C   LIG    1       24.505 -27.430  14.451  0.00  0.00    +0.039 C 
ATOM     21  C   LIG    1       27.285 -29.487  12.719  0.00  0.00    -0.000 C 
ATOM     22  C   LIG    1       28.386 -29.366  11.664  0.00  0.00    +0.008 C 
ENDROOT
BRANCH   1  23
ATOM     23  C   LIG    1       27.897 -27.755  14.475  0.00  0.00    +0.140 C 
ATOM     24  O   LIG    1       28.744 -28.563  14.870  0.00  0.00    -0.297 OA
BRANCH  23  26
ATOM     25  C   LIG    1       29.224 -25.861  15.500  0.00  0.00    +0.012 C 
ATOM     26  C   LIG    1       27.851 -26.352  15.070  0.00  0.00    +0.071 C 
ENDBRANCH  23  26
ENDBRANCH   1  23
BRANCH   8  27
ATOM     27  O   LIG    1       22.497 -26.147  14.165  0.00  0.00    -0.391 OA
ATOM     28  H   LIG    1       21.890 -25.761  13.509  0.00  0.00    +0.210 HD
ENDBRANCH   8  27
TORSDOF 3
ENDMDL
