MODEL 1
REMARK VINA RESULT:      -7.5      0.000      0.000
REMARK  Name = *****
REMARK                            x       y       z     vdW  Elec       q    Type
REMARK                         _______ _______ _______ _____ _____    ______ ____
ROOT
ATOM      1  C   LIG    1       27.537 -21.470   7.994  0.00  0.00    +0.125 C 
ENDROOT
BRANCH   1   5
ATOM      2  C   LIG    1       30.397 -19.295   7.498  0.00  0.00    +0.233 A 
ATOM      3  S   LIG    1       29.802 -18.803   5.965  0.00  0.00    -0.041 S 
ATOM      4  C   LIG    1       28.478 -19.880   6.142  0.00  0.00    +0.074 A 
ATOM      5  C   LIG    1       28.496 -20.477   7.390  0.00  0.00    +0.062 A 
ATOM      6  N   LIG    1       29.621 -20.146   8.141  0.00  0.00    -0.213 NA
BRANCH   2   7
ATOM      7  N   LIG    1       31.598 -18.864   7.940  0.00  0.00    -0.222 N 
ATOM      8  H   LIG    1       32.427 -19.347   7.623  0.00  0.00    +0.267 HD
BRANCH   7  11
ATOM      9  N   LIG    1       32.408 -16.839   8.689  0.00  0.00    -0.129 NA
ATOM     10  H   LIG    1       32.558 -16.358   9.579  0.00  0.00    +0.306 HD
ATOM     11  C   LIG    1       31.854 -17.976   8.933  0.00  0.00    +0.383 C 
BRANCH  11  12
ATOM     12  N   LIG    1       31.555 -18.363  10.192  0.00  0.00    -0.289 N 
ATOM     13  H   LIG    1       32.290 -18.113  10.857  0.00  0.00    +0.255 HD
ATOM     14  H   LIG    1       31.226 -19.308  10.316  0.00  0.00    +0.255 HD
ENDBRANCH  11  12
ENDBRANCH   7  11
ENDBRANCH   2   7
ENDBRANCH   1   5
BRANCH   1  15
ATOM     15  S   LIG    1       25.890 -20.796   8.402  0.00  0.00    -0.154 S 
BRANCH  15  16
ATOM     16  C   LIG    1       24.979 -21.133   6.837  0.00  0.00    +0.081 C 
BRANCH  16  17
ATOM     17  C   LIG    1       23.579 -21.677   7.077  0.00  0.00    +0.140 C 
BRANCH  17  18
ATOM     18  C   LIG    1       23.541 -23.172   6.897  0.00  0.00    +0.303 C 
ATOM     19  N   LIG    1       22.429 -23.775   6.652  0.00  0.00    -0.102 NA
ATOM     20  H   LIG    1       22.564 -24.783   6.573  0.00  0.00    +0.363 HD
BRANCH  18  21
ATOM     21  N   LIG    1       24.723 -23.923   6.908  0.00  0.00    -0.085 N 
ATOM     22  H   LIG    1       25.571 -23.533   7.302  0.00  0.00    +0.327 HD
BRANCH  21  23
ATOM     23  S   LIG    1       25.037 -25.229   5.941  0.00  0.00    +0.168 S 
ATOM     24  O   LIG    1       23.969 -26.173   6.163  0.00  0.00    -0.118 OA
ATOM     25  O   LIG    1       26.417 -25.597   5.961  0.00  0.00    -0.118 OA
BRANCH  23  26
ATOM     26  N   LIG    1       24.710 -24.538   4.459  0.00  0.00    -0.173 NA
ATOM     27  H   LIG    1       25.440 -23.859   4.237  0.00  0.00    +0.147 HD
ATOM     28  H   LIG    1       23.799 -24.075   4.503  0.00  0.00    +0.147 HD
ENDBRANCH  23  26
ENDBRANCH  21  23
ENDBRANCH  18  21
ENDBRANCH  17  18
ENDBRANCH  16  17
ENDBRANCH  15  16
ENDBRANCH   1  15
TORSDOF 11
ENDMDL
MODEL 2
REMARK VINA RESULT:      -7.4      3.464      7.954
REMARK  Name = *****
REMARK                            x       y       z     vdW  Elec       q    Type
REMARK                         _______ _______ _______ _____ _____    ______ ____
ROOT
ATOM      1  C   LIG    1       26.693 -22.212   7.882  0.00  0.00    +0.125 C 
ENDROOT
BRANCH   1   5
ATOM      2  C   LIG    1       24.821 -24.991   6.493  0.00  0.00    +0.233 A 
ATOM      3  S   LIG    1       23.376 -24.065   6.494  0.00  0.00    -0.041 S 
ATOM      4  C   LIG    1       24.222 -22.761   7.220  0.00  0.00    +0.074 A 
ATOM      5  C   LIG    1       25.570 -23.052   7.328  0.00  0.00    +0.062 A 
ATOM      6  N   LIG    1       25.887 -24.347   6.928  0.00  0.00    -0.213 NA
BRANCH   2   7
ATOM      7  N   LIG    1       24.806 -26.289   6.121  0.00  0.00    -0.222 N 
ATOM      8  H   LIG    1       23.911 -26.732   5.964  0.00  0.00    +0.267 HD
BRANCH   7  11
ATOM      9  N   LIG    1       26.953 -26.897   5.540  0.00  0.00    -0.129 NA
ATOM     10  H   LIG    1       27.560 -27.717   5.612  0.00  0.00    +0.306 HD
ATOM     11  C   LIG    1       25.836 -27.172   6.121  0.00  0.00    +0.383 C 
BRANCH  11  12
ATOM     12  N   LIG    1       25.616 -28.369   6.705  0.00  0.00    -0.289 N 
ATOM     13  H   LIG    1       26.323 -29.060   6.447  0.00  0.00    +0.255 HD
ATOM     14  H   LIG    1       24.678 -28.737   6.659  0.00  0.00    +0.255 HD
ENDBRANCH  11  12
ENDBRANCH   7  11
ENDBRANCH   2   7
ENDBRANCH   1   5
BRANCH   1  15
ATOM     15  S   LIG    1       26.627 -20.446   7.424  0.00  0.00    -0.154 S 
BRANCH  15  16
ATOM     16  C   LIG    1       28.054 -20.335   6.262  0.00  0.00    +0.081 C 
BRANCH  16  17
ATOM     17  C   LIG    1       29.119 -19.355   6.731  0.00  0.00    +0.140 C 
BRANCH  17  18
ATOM     18  C   LIG    1       30.361 -20.081   7.178  0.00  0.00    +0.303 C 
ATOM     19  N   LIG    1       31.528 -19.653   6.837  0.00  0.00    -0.102 NA
ATOM     20  H   LIG    1       32.265 -20.258   7.201  0.00  0.00    +0.363 HD
BRANCH  18  21
ATOM     21  N   LIG    1       30.275 -21.182   8.039  0.00  0.00    -0.085 N 
ATOM     22  H   LIG    1       29.388 -21.651   8.178  0.00  0.00    +0.327 HD
BRANCH  21  23
ATOM     23  S   LIG    1       31.365 -21.554   9.228  0.00  0.00    +0.168 S 
ATOM     24  O   LIG    1       30.610 -22.135  10.312  0.00  0.00    -0.118 OA
ATOM     25  O   LIG    1       32.330 -20.519   9.419  0.00  0.00    -0.118 OA
BRANCH  23  26
ATOM     26  N   LIG    1       32.127 -22.839   8.488  0.00  0.00    -0.173 NA
ATOM     27  H   LIG    1       32.916 -23.138   9.062  0.00  0.00    +0.147 HD
ATOM     28  H   LIG    1       32.455 -22.543   7.565  0.00  0.00    +0.147 HD
ENDBRANCH  23  26
ENDBRANCH  21  23
ENDBRANCH  18  21
ENDBRANCH  17  18
ENDBRANCH  16  17
ENDBRANCH  15  16
ENDBRANCH   1  15
TORSDOF 11
ENDMDL
MODEL 3
REMARK VINA RESULT:      -7.4      3.872      8.490
REMARK  Name = *****
REMARK                            x       y       z     vdW  Elec       q    Type
REMARK                         _______ _______ _______ _____ _____    ______ ____
ROOT
ATOM      1  C   LIG    1       26.754 -20.538   8.075  0.00  0.00    +0.125 C 
ENDROOT
BRANCH   1   5
ATOM      2  C   LIG    1       24.883 -22.635   5.782  0.00  0.00    +0.233 A 
ATOM      3  S   LIG    1       23.468 -21.693   6.019  0.00  0.00    -0.041 S 
ATOM      4  C   LIG    1       24.309 -20.732   7.163  0.00  0.00    +0.074 A 
ATOM      5  C   LIG    1       25.640 -21.103   7.231  0.00  0.00    +0.062 A 
ATOM      6  N   LIG    1       25.941 -22.215   6.449  0.00  0.00    -0.213 NA
BRANCH   2   7
ATOM      7  N   LIG    1       24.851 -23.744   5.011  0.00  0.00    -0.222 N 
ATOM      8  H   LIG    1       24.484 -23.663   4.072  0.00  0.00    +0.267 HD
BRANCH   7  11
ATOM      9  N   LIG    1       26.215 -25.433   5.786  0.00  0.00    -0.129 NA
ATOM     10  H   LIG    1       26.160 -26.439   5.961  0.00  0.00    +0.306 HD
ATOM     11  C   LIG    1       25.058 -25.030   5.386  0.00  0.00    +0.383 C 
BRANCH  11  12
ATOM     12  N   LIG    1       24.014 -25.878   5.266  0.00  0.00    -0.289 N 
ATOM     13  H   LIG    1       24.210 -26.791   5.681  0.00  0.00    +0.255 HD
ATOM     14  H   LIG    1       23.582 -25.949   4.358  0.00  0.00    +0.255 HD
ENDBRANCH  11  12
ENDBRANCH   7  11
ENDBRANCH   2   7
ENDBRANCH   1   5
BRANCH   1  15
ATOM     15  S   LIG    1       28.427 -21.110   7.620  0.00  0.00    -0.154 S 
BRANCH  15  16
ATOM     16  C   LIG    1       29.113 -19.590   6.836  0.00  0.00    +0.081 C 
BRANCH  16  17
ATOM     17  C   LIG    1       30.626 -19.495   6.962  0.00  0.00    +0.140 C 
BRANCH  17  18
ATOM     18  C   LIG    1       31.030 -19.144   8.370  0.00  0.00    +0.303 C 
ATOM     19  N   LIG    1       31.890 -19.865   9.003  0.00  0.00    -0.102 NA
ATOM     20  H   LIG    1       32.046 -19.511   9.948  0.00  0.00    +0.363 HD
BRANCH  18  21
ATOM     21  N   LIG    1       30.544 -17.984   8.985  0.00  0.00    -0.085 N 
ATOM     22  H   LIG    1       30.233 -17.201   8.422  0.00  0.00    +0.327 HD
BRANCH  21  23
ATOM     23  S   LIG    1       30.830 -17.541  10.554  0.00  0.00    +0.168 S 
ATOM     24  O   LIG    1       30.636 -18.723  11.358  0.00  0.00    -0.118 OA
ATOM     25  O   LIG    1       30.243 -16.278  10.873  0.00  0.00    -0.118 OA
BRANCH  23  26
ATOM     26  N   LIG    1       32.481 -17.335  10.468  0.00  0.00    -0.173 NA
ATOM     27  H   LIG    1       32.754 -17.207   9.493  0.00  0.00    +0.147 HD
ATOM     28  H   LIG    1       32.940 -18.162  10.858  0.00  0.00    +0.147 HD
ENDBRANCH  23  26
ENDBRANCH  21  23
ENDBRANCH  18  21
ENDBRANCH  17  18
ENDBRANCH  16  17
ENDBRANCH  15  16
ENDBRANCH   1  15
TORSDOF 11
ENDMDL
MODEL 4
REMARK VINA RESULT:      -7.4      3.886      8.745
REMARK  Name = *****
REMARK                            x       y       z     vdW  Elec       q    Type
REMARK                         _______ _______ _______ _____ _____    ______ ____
ROOT
ATOM      1  C   LIG    1       27.394 -21.226   7.249  0.00  0.00    +0.125 C 
ENDROOT
BRANCH   1   5
ATOM      2  C   LIG    1       24.291 -23.012   6.669  0.00  0.00    +0.233 A 
ATOM      3  S   LIG    1       23.373 -21.613   7.053  0.00  0.00    -0.041 S 
ATOM      4  C   LIG    1       24.823 -20.768   7.405  0.00  0.00    +0.074 A 
ATOM      5  C   LIG    1       25.928 -21.548   7.116  0.00  0.00    +0.062 A 
ATOM      6  N   LIG    1       25.598 -22.841   6.720  0.00  0.00    -0.213 NA
BRANCH   2   7
ATOM      7  N   LIG    1       23.678 -24.185   6.401  0.00  0.00    -0.222 N 
ATOM      8  H   LIG    1       22.832 -24.409   6.907  0.00  0.00    +0.267 HD
BRANCH   7  11
ATOM      9  N   LIG    1       23.957 -26.446   6.049  0.00  0.00    -0.129 NA
ATOM     10  H   LIG    1       24.442 -27.063   5.393  0.00  0.00    +0.306 HD
ATOM     11  C   LIG    1       24.150 -25.229   5.675  0.00  0.00    +0.383 C 
BRANCH  11  12
ATOM     12  N   LIG    1       24.877 -24.931   4.577  0.00  0.00    -0.289 N 
ATOM     13  H   LIG    1       24.421 -24.229   3.991  0.00  0.00    +0.255 HD
ATOM     14  H   LIG    1       25.242 -25.705   4.044  0.00  0.00    +0.255 HD
ENDBRANCH  11  12
ENDBRANCH   7  11
ENDBRANCH   2   7
ENDBRANCH   1   5
BRANCH   1  15
ATOM     15  S   LIG    1       28.061 -20.135   5.945  0.00  0.00    -0.154 S 
BRANCH  15  16
ATOM     16  C   LIG    1       29.646 -19.600   6.717  0.00  0.00    +0.081 C 
BRANCH  16  17
ATOM     17  C   LIG    1       29.969 -20.367   7.991  0.00  0.00    +0.140 C 
BRANCH  17  18
ATOM     18  C   LIG    1       31.262 -19.888   8.597  0.00  0.00    +0.303 C 
ATOM     19  N   LIG    1       32.036 -20.707   9.221  0.00  0.00    -0.102 NA
ATOM     20  H   LIG    1       32.861 -20.231   9.587  0.00  0.00    +0.363 HD
BRANCH  18  21
ATOM     21  N   LIG    1       31.686 -18.564   8.422  0.00  0.00    -0.085 N 
ATOM     22  H   LIG    1       32.361 -18.337   7.702  0.00  0.00    +0.327 HD
BRANCH  21  23
ATOM     23  S   LIG    1       31.561 -17.362   9.553  0.00  0.00    +0.168 S 
ATOM     24  O   LIG    1       32.280 -17.815  10.719  0.00  0.00    -0.118 OA
ATOM     25  O   LIG    1       30.243 -16.815   9.615  0.00  0.00    -0.118 OA
BRANCH  23  26
ATOM     26  N   LIG    1       32.554 -16.230   8.837  0.00  0.00    -0.173 NA
ATOM     27  H   LIG    1       32.868 -16.583   7.932  0.00  0.00    +0.147 HD
ATOM     28  H   LIG    1       33.358 -16.061   9.447  0.00  0.00    +0.147 HD
ENDBRANCH  23  26
ENDBRANCH  21  23
ENDBRANCH  18  21
ENDBRANCH  17  18
ENDBRANCH  16  17
ENDBRANCH  15  16
ENDBRANCH   1  15
TORSDOF 11
ENDMDL
MODEL 5
REMARK VINA RESULT:      -7.1      2.065      2.813
REMARK  Name = *****
REMARK                            x       y       z     vdW  Elec       q    Type
REMARK                         _______ _______ _______ _____ _____    ______ ____
ROOT
ATOM      1  C   LIG    1       25.602 -21.887   8.242  0.00  0.00    +0.125 C 
ENDROOT
BRANCH   1   5
ATOM      2  C   LIG    1       29.053 -21.041   7.512  0.00  0.00    +0.233 A 
ATOM      3  S   LIG    1       28.569 -20.054   6.193  0.00  0.00    -0.041 S 
ATOM      4  C   LIG    1       26.935 -20.497   6.472  0.00  0.00    +0.074 A 
ATOM      5  C   LIG    1       26.827 -21.282   7.606  0.00  0.00    +0.062 A 
ATOM      6  N   LIG    1       28.058 -21.602   8.171  0.00  0.00    -0.213 NA
BRANCH   2   7
ATOM      7  N   LIG    1       30.362 -21.242   7.776  0.00  0.00    -0.222 N 
ATOM      8  H   LIG    1       30.936 -21.661   7.058  0.00  0.00    +0.267 HD
BRANCH   7  11
ATOM      9  N   LIG    1       30.868 -22.053   9.874  0.00  0.00    -0.129 NA
ATOM     10  H   LIG    1       31.384 -21.752  10.705  0.00  0.00    +0.306 HD
ATOM     11  C   LIG    1       30.999 -21.145   8.970  0.00  0.00    +0.383 C 
BRANCH  11  12
ATOM     12  N   LIG    1       31.727 -20.028   9.185  0.00  0.00    -0.289 N 
ATOM     13  H   LIG    1       31.815 -19.811  10.180  0.00  0.00    +0.255 HD
ATOM     14  H   LIG    1       31.499 -19.217   8.630  0.00  0.00    +0.255 HD
ENDBRANCH  11  12
ENDBRANCH   7  11
ENDBRANCH   2   7
ENDBRANCH   1   5
BRANCH   1  15
ATOM     15  S   LIG    1       24.014 -21.323   7.540  0.00  0.00    -0.154 S 
BRANCH  15  16
ATOM     16  C   LIG    1       23.786 -22.541   6.175  0.00  0.00    +0.081 C 
BRANCH  16  17
ATOM     17  C   LIG    1       23.679 -23.973   6.678  0.00  0.00    +0.140 C 
BRANCH  17  18
ATOM     18  C   LIG    1       24.673 -24.865   5.981  0.00  0.00    +0.303 C 
ATOM     19  N   LIG    1       25.876 -24.458   5.761  0.00  0.00    -0.102 NA
ATOM     20  H   LIG    1       26.421 -25.166   5.268  0.00  0.00    +0.363 HD
BRANCH  18  21
ATOM     21  N   LIG    1       24.335 -26.180   5.637  0.00  0.00    -0.085 N 
ATOM     22  H   LIG    1       23.385 -26.510   5.759  0.00  0.00    +0.327 HD
BRANCH  21  23
ATOM     23  S   LIG    1       25.406 -27.430   5.467  0.00  0.00    +0.168 S 
ATOM     24  O   LIG    1       26.461 -26.956   4.604  0.00  0.00    -0.118 OA
ATOM     25  O   LIG    1       24.747 -28.683   5.275  0.00  0.00    -0.118 OA
BRANCH  23  26
ATOM     26  N   LIG    1       26.059 -27.422   7.001  0.00  0.00    -0.173 NA
ATOM     27  H   LIG    1       26.605 -26.569   7.130  0.00  0.00    +0.147 HD
ATOM     28  H   LIG    1       26.657 -28.244   7.112  0.00  0.00    +0.147 HD
ENDBRANCH  23  26
ENDBRANCH  21  23
ENDBRANCH  18  21
ENDBRANCH  17  18
ENDBRANCH  16  17
ENDBRANCH  15  16
ENDBRANCH   1  15
TORSDOF 11
ENDMDL
MODEL 6
REMARK VINA RESULT:      -7.0      2.917      3.601
REMARK  Name = *****
REMARK                            x       y       z     vdW  Elec       q    Type
REMARK                         _______ _______ _______ _____ _____    ______ ____
ROOT
ATOM      1  C   LIG    1       25.860 -22.061   8.138  0.00  0.00    +0.125 C 
ENDROOT
BRANCH   1   5
ATOM      2  C   LIG    1       29.280 -20.889   7.837  0.00  0.00    +0.233 A 
ATOM      3  S   LIG    1       28.892 -20.013   6.413  0.00  0.00    -0.041 S 
ATOM      4  C   LIG    1       27.287 -20.613   6.490  0.00  0.00    +0.074 A 
ATOM      5  C   LIG    1       27.097 -21.357   7.641  0.00  0.00    +0.062 A 
ATOM      6  N   LIG    1       28.262 -21.524   8.385  0.00  0.00    -0.213 NA
BRANCH   2   7
ATOM      7  N   LIG    1       30.552 -20.942   8.288  0.00  0.00    -0.222 N 
ATOM      8  H   LIG    1       31.211 -20.258   7.941  0.00  0.00    +0.267 HD
BRANCH   7  11
ATOM      9  N   LIG    1       30.778 -22.190  10.213  0.00  0.00    -0.129 NA
ATOM     10  H   LIG    1       31.390 -22.922  10.581  0.00  0.00    +0.306 HD
ATOM     11  C   LIG    1       31.145 -21.927   9.006  0.00  0.00    +0.383 C 
BRANCH  11  12
ATOM     12  N   LIG    1       32.173 -22.578   8.420  0.00  0.00    -0.289 N 
ATOM     13  H   LIG    1       32.678 -21.985   7.759  0.00  0.00    +0.255 HD
ATOM     14  H   LIG    1       31.983 -23.497   8.050  0.00  0.00    +0.255 HD
ENDBRANCH  11  12
ENDBRANCH   7  11
ENDBRANCH   2   7
ENDBRANCH   1   5
BRANCH   1  15
ATOM     15  S   LIG    1       24.737 -22.656   6.826  0.00  0.00    -0.154 S 
BRANCH  15  16
ATOM     16  C   LIG    1       25.250 -24.422   6.705  0.00  0.00    +0.081 C 
BRANCH  16  17
ATOM     17  C   LIG    1       25.130 -24.974   5.293  0.00  0.00    +0.140 C 
BRANCH  17  18
ATOM     18  C   LIG    1       25.410 -26.454   5.265  0.00  0.00    +0.303 C 
ATOM     19  N   LIG    1       26.608 -26.889   5.079  0.00  0.00    -0.102 NA
ATOM     20  H   LIG    1       26.634 -27.910   5.069  0.00  0.00    +0.363 HD
BRANCH  18  21
ATOM     21  N   LIG    1       24.392 -27.379   5.526  0.00  0.00    -0.085 N 
ATOM     22  H   LIG    1       23.447 -27.060   5.702  0.00  0.00    +0.327 HD
BRANCH  21  23
ATOM     23  S   LIG    1       24.622 -28.938   6.032  0.00  0.00    +0.168 S 
ATOM     24  O   LIG    1       24.520 -28.924   7.471  0.00  0.00    -0.118 OA
ATOM     25  O   LIG    1       25.691 -29.580   5.333  0.00  0.00    -0.118 OA
BRANCH  23  26
ATOM     26  N   LIG    1       23.188 -29.598   5.497  0.00  0.00    -0.173 NA
ATOM     27  H   LIG    1       23.099 -29.439   4.492  0.00  0.00    +0.147 HD
ATOM     28  H   LIG    1       22.412 -29.154   5.994  0.00  0.00    +0.147 HD
ENDBRANCH  23  26
ENDBRANCH  21  23
ENDBRANCH  18  21
ENDBRANCH  17  18
ENDBRANCH  16  17
ENDBRANCH  15  16
ENDBRANCH   1  15
TORSDOF 11
ENDMDL
MODEL 7
REMARK VINA RESULT:      -7.0      4.449      8.804
REMARK  Name = *****
REMARK                            x       y       z     vdW  Elec       q    Type
REMARK                         _______ _______ _______ _____ _____    ______ ____
ROOT
ATOM      1  C   LIG    1       27.651 -19.774   5.751  0.00  0.00    +0.125 C 
ENDROOT
BRANCH   1   5
ATOM      2  C   LIG    1       24.615 -21.647   5.089  0.00  0.00    +0.233 A 
ATOM      3  S   LIG    1       24.196 -20.583   3.808  0.00  0.00    -0.041 S 
ATOM      4  C   LIG    1       25.586 -19.638   4.149  0.00  0.00    +0.074 A 
ATOM      5  C   LIG    1       26.349 -20.228   5.140  0.00  0.00    +0.062 A 
ATOM      6  N   LIG    1       25.759 -21.367   5.682  0.00  0.00    -0.213 NA
BRANCH   2   7
ATOM      7  N   LIG    1       23.779 -22.640   5.459  0.00  0.00    -0.222 N 
ATOM      8  H   LIG    1       23.470 -23.294   4.753  0.00  0.00    +0.267 HD
BRANCH   7  11
ATOM      9  N   LIG    1       22.303 -23.762   6.830  0.00  0.00    -0.129 NA
ATOM     10  H   LIG    1       21.873 -23.641   7.750  0.00  0.00    +0.306 HD
ATOM     11  C   LIG    1       23.114 -22.780   6.633  0.00  0.00    +0.383 C 
BRANCH  11  12
ATOM     12  N   LIG    1       23.298 -21.815   7.559  0.00  0.00    -0.289 N 
ATOM     13  H   LIG    1       23.324 -20.882   7.144  0.00  0.00    +0.255 HD
ATOM     14  H   LIG    1       24.034 -21.960   8.233  0.00  0.00    +0.255 HD
ENDBRANCH  11  12
ENDBRANCH   7  11
ENDBRANCH   2   7
ENDBRANCH   1   5
BRANCH   1  15
ATOM     15  S   LIG    1       28.456 -20.999   6.838  0.00  0.00    -0.154 S 
BRANCH  15  16
ATOM     16  C   LIG    1       29.277 -19.892   8.061  0.00  0.00    +0.081 C 
BRANCH  16  17
ATOM     17  C   LIG    1       30.390 -19.058   7.444  0.00  0.00    +0.140 C 
BRANCH  17  18
ATOM     18  C   LIG    1       31.534 -18.885   8.410  0.00  0.00    +0.303 C 
ATOM     19  N   LIG    1       31.950 -19.878   9.117  0.00  0.00    -0.102 NA
ATOM     20  H   LIG    1       32.715 -19.600   9.732  0.00  0.00    +0.363 HD
BRANCH  18  21
ATOM     21  N   LIG    1       32.219 -17.666   8.495  0.00  0.00    -0.085 N 
ATOM     22  H   LIG    1       32.965 -17.454   7.843  0.00  0.00    +0.327 HD
BRANCH  21  23
ATOM     23  S   LIG    1       32.270 -16.689   9.830  0.00  0.00    +0.168 S 
ATOM     24  O   LIG    1       32.718 -15.394   9.376  0.00  0.00    -0.118 OA
ATOM     25  O   LIG    1       32.831 -17.353  10.964  0.00  0.00    -0.118 OA
BRANCH  23  26
ATOM     26  N   LIG    1       30.632 -16.520  10.090  0.00  0.00    -0.173 NA
ATOM     27  H   LIG    1       30.272 -15.774   9.493  0.00  0.00    +0.147 HD
ATOM     28  H   LIG    1       30.474 -16.291  11.075  0.00  0.00    +0.147 HD
ENDBRANCH  23  26
ENDBRANCH  21  23
ENDBRANCH  18  21
ENDBRANCH  17  18
ENDBRANCH  16  17
ENDBRANCH  15  16
ENDBRANCH   1  15
TORSDOF 11
ENDMDL
MODEL 8
REMARK VINA RESULT:      -7.0      4.289      8.457
REMARK  Name = *****
REMARK                            x       y       z     vdW  Elec       q    Type
REMARK                         _______ _______ _______ _____ _____    ______ ____
ROOT
ATOM      1  C   LIG    1       27.573 -21.258   7.014  0.00  0.00    +0.125 C 
ENDROOT
BRANCH   1   5
ATOM      2  C   LIG    1       24.053 -21.133   6.146  0.00  0.00    +0.233 A 
ATOM      3  S   LIG    1       23.767 -22.625   6.944  0.00  0.00    -0.041 S 
ATOM      4  C   LIG    1       25.440 -22.745   7.303  0.00  0.00    +0.074 A 
ATOM      5  C   LIG    1       26.111 -21.607   6.895  0.00  0.00    +0.062 A 
ATOM      6  N   LIG    1       25.300 -20.706   6.211  0.00  0.00    -0.213 NA
BRANCH   2   7
ATOM      7  N   LIG    1       23.062 -20.512   5.471  0.00  0.00    -0.222 N 
ATOM      8  H   LIG    1       22.131 -20.904   5.520  0.00  0.00    +0.267 HD
BRANCH   7  11
ATOM      9  N   LIG    1       24.117 -19.526   3.673  0.00  0.00    -0.129 NA
ATOM     10  H   LIG    1       24.041 -18.670   3.119  0.00  0.00    +0.306 HD
ATOM     11  C   LIG    1       23.169 -19.526   4.546  0.00  0.00    +0.383 C 
BRANCH  11  12
ATOM     12  N   LIG    1       22.274 -18.518   4.621  0.00  0.00    -0.289 N 
ATOM     13  H   LIG    1       22.725 -17.601   4.623  0.00  0.00    +0.255 HD
ATOM     14  H   LIG    1       21.551 -18.597   5.319  0.00  0.00    +0.255 HD
ENDBRANCH  11  12
ENDBRANCH   7  11
ENDBRANCH   2   7
ENDBRANCH   1   5
BRANCH   1  15
ATOM     15  S   LIG    1       28.145 -19.951   5.875  0.00  0.00    -0.154 S 
BRANCH  15  16
ATOM     16  C   LIG    1       29.728 -19.459   6.678  0.00  0.00    +0.081 C 
BRANCH  16  17
ATOM     17  C   LIG    1       30.031 -20.271   7.928  0.00  0.00    +0.140 C 
BRANCH  17  18
ATOM     18  C   LIG    1       31.301 -19.797   8.586  0.00  0.00    +0.303 C 
ATOM     19  N   LIG    1       32.047 -20.621   9.238  0.00  0.00    -0.102 NA
ATOM     20  H   LIG    1       32.858 -20.148   9.638  0.00  0.00    +0.363 HD
BRANCH  18  21
ATOM     21  N   LIG    1       31.736 -18.475   8.431  0.00  0.00    -0.085 N 
ATOM     22  H   LIG    1       32.428 -18.246   7.727  0.00  0.00    +0.327 HD
BRANCH  21  23
ATOM     23  S   LIG    1       31.593 -17.281   9.568  0.00  0.00    +0.168 S 
ATOM     24  O   LIG    1       32.294 -17.742  10.742  0.00  0.00    -0.118 OA
ATOM     25  O   LIG    1       30.274 -16.735   9.613  0.00  0.00    -0.118 OA
BRANCH  23  26
ATOM     26  N   LIG    1       32.597 -16.144   8.876  0.00  0.00    -0.173 NA
ATOM     27  H   LIG    1       33.056 -15.607   9.614  0.00  0.00    +0.147 HD
ATOM     28  H   LIG    1       32.039 -15.524   8.284  0.00  0.00    +0.147 HD
ENDBRANCH  23  26
ENDBRANCH  21  23
ENDBRANCH  18  21
ENDBRANCH  17  18
ENDBRANCH  16  17
ENDBRANCH  15  16
ENDBRANCH   1  15
TORSDOF 11
ENDMDL
MODEL 9
REMARK VINA RESULT:      -7.0      3.738      8.025
REMARK  Name = *****
REMARK                            x       y       z     vdW  Elec       q    Type
REMARK                         _______ _______ _______ _____ _____    ______ ____
ROOT
ATOM      1  C   LIG    1       25.499 -22.506   7.585  0.00  0.00    +0.125 C 
ENDROOT
BRANCH   1   5
ATOM      2  C   LIG    1       25.895 -25.832   6.191  0.00  0.00    +0.233 A 
ATOM      3  S   LIG    1       25.026 -25.383   4.781  0.00  0.00    -0.041 S 
ATOM      4  C   LIG    1       24.760 -23.826   5.450  0.00  0.00    +0.074 A 
ATOM      5  C   LIG    1       25.428 -23.689   6.654  0.00  0.00    +0.062 A 
ATOM      6  N   LIG    1       26.051 -24.862   7.072  0.00  0.00    -0.213 NA
BRANCH   2   7
ATOM      7  N   LIG    1       26.314 -27.103   6.366  0.00  0.00    -0.222 N 
ATOM      8  H   LIG    1       26.925 -27.505   5.668  0.00  0.00    +0.267 HD
BRANCH   7  11
ATOM      9  N   LIG    1       24.911 -28.830   6.968  0.00  0.00    -0.129 NA
ATOM     10  H   LIG    1       24.697 -29.386   7.800  0.00  0.00    +0.306 HD
ATOM     11  C   LIG    1       25.866 -28.017   7.262  0.00  0.00    +0.383 C 
BRANCH  11  12
ATOM     12  N   LIG    1       26.426 -27.994   8.491  0.00  0.00    -0.289 N 
ATOM     13  H   LIG    1       25.791 -28.344   9.210  0.00  0.00    +0.255 HD
ATOM     14  H   LIG    1       26.894 -27.145   8.766  0.00  0.00    +0.255 HD
ENDBRANCH  11  12
ENDBRANCH   7  11
ENDBRANCH   2   7
ENDBRANCH   1   5
BRANCH   1  15
ATOM     15  S   LIG    1       26.072 -20.955   6.811  0.00  0.00    -0.154 S 
BRANCH  15  16
ATOM     16  C   LIG    1       27.544 -20.571   7.851  0.00  0.00    +0.081 C 
BRANCH  16  17
ATOM     17  C   LIG    1       28.575 -19.724   7.121  0.00  0.00    +0.140 C 
BRANCH  17  18
ATOM     18  C   LIG    1       29.954 -20.317   7.254  0.00  0.00    +0.303 C 
ATOM     19  N   LIG    1       30.972 -19.731   6.725  0.00  0.00    -0.102 NA
ATOM     20  H   LIG    1       31.829 -20.262   6.886  0.00  0.00    +0.363 HD
BRANCH  18  21
ATOM     21  N   LIG    1       30.166 -21.468   8.022  0.00  0.00    -0.085 N 
ATOM     22  H   LIG    1       29.432 -22.161   8.115  0.00  0.00    +0.327 HD
BRANCH  21  23
ATOM     23  S   LIG    1       31.328 -21.641   9.187  0.00  0.00    +0.168 S 
ATOM     24  O   LIG    1       30.680 -22.231  10.333  0.00  0.00    -0.118 OA
ATOM     25  O   LIG    1       32.176 -20.494   9.277  0.00  0.00    -0.118 OA
BRANCH  23  26
ATOM     26  N   LIG    1       32.207 -22.877   8.495  0.00  0.00    -0.173 NA
ATOM     27  H   LIG    1       31.784 -23.772   8.746  0.00  0.00    +0.147 HD
ATOM     28  H   LIG    1       33.169 -22.834   8.839  0.00  0.00    +0.147 HD
ENDBRANCH  23  26
ENDBRANCH  21  23
ENDBRANCH  18  21
ENDBRANCH  17  18
ENDBRANCH  16  17
ENDBRANCH  15  16
ENDBRANCH   1  15
TORSDOF 11
ENDMDL
