MODEL 1
REMARK VINA RESULT:      -6.5      0.000      0.000
REMARK  Name = *****
REMARK                            x       y       z     vdW  Elec       q    Type
REMARK                         _______ _______ _______ _____ _____    ______ ____
ROOT
ATOM      1  N   UNK A  1       25.322 -24.214   6.875  0.00  0.00    -0.296 N 
ATOM      2  H   UNK A  1       26.294 -24.330   6.582  0.00  0.00    +0.150 HD
ATOM      3  C   UNK A  0       24.469 -25.229   6.491  0.00  0.00    +0.268 C 
ATOM      4  O   UNK A  0       23.250 -25.130   6.554  0.00  0.00    -0.268 OA
ENDROOT
BRANCH   1  12
ATOM      5  C   UNK A  1       27.258 -19.849   5.806  0.00  0.00    -0.010 C 
ATOM      6  C   UNK A  1       28.051 -20.415   6.976  0.00  0.00    +0.108 C 
ATOM      7  S   UNK A  1       27.590 -22.130   7.389  0.00  0.00    -0.131 S 
ATOM      8  C   UNK A  1       25.834 -21.723   7.461  0.00  0.00    +0.169 C 
ATOM      9  N   UNK A  1       25.407 -21.288   6.143  0.00  0.00    -0.249 N 
ATOM     10  C   UNK A  1       24.230 -21.960   6.155  0.00  0.00    +0.244 C 
ATOM     11  O   UNK A  1       23.195 -21.826   5.556  0.00  0.00    -0.273 OA
ATOM     12  C   UNK A  1       24.805 -22.877   7.305  0.00  0.00    +0.191 C 
ATOM     13  C   UNK A  1       26.034 -20.286   5.434  0.00  0.00    +0.126 C 
BRANCH   5  15
ATOM     14  C   UNK A  1       29.214 -18.390   5.432  0.00  0.00    +0.009 C 
ATOM     15  C   UNK A  1       27.998 -18.822   5.075  0.00  0.00    -0.001 C 
ENDBRANCH   5  15
BRANCH  13  16
ATOM     16  C   UNK A  1       25.371 -19.750   4.199  0.00  0.00    +0.352 C 
ATOM     17  O   UNK A  1       24.551 -18.846   4.135  0.00  0.00    -0.244 OA
BRANCH  16  18
ATOM     18  O   UNK A  1       25.811 -20.342   3.078  0.00  0.00    -0.476 OA
ATOM     19  H   UNK A  1       26.785 -20.377   3.169  0.00  0.00    +0.295 HD
ENDBRANCH  16  18
ENDBRANCH  13  16
ENDBRANCH   1  12
BRANCH   3  20
ATOM     20  C   UNK A  0       25.130 -26.548   6.040  0.00  0.00    +0.190 C 
ATOM     21  N   UNK A  0       25.647 -26.726   4.852  0.00  0.00    -0.080 NA
BRANCH  20  22
ATOM     22  C   UNK A  0       25.231 -27.691   6.969  0.00  0.00    +0.107 A 
ATOM     23  N   UNK A  0       26.152 -27.687   8.029  0.00  0.00    -0.223 NA
ATOM     24  C   UNK A  0       26.069 -28.791   8.728  0.00  0.00    +0.156 A 
ATOM     25  S   UNK A  0       24.883 -29.905   8.200  0.00  0.00    -0.060 S 
ATOM     26  C   UNK A  0       24.466 -28.844   6.923  0.00  0.00    +0.078 A 
BRANCH  24  27
ATOM     27  N   UNK A  0       26.833 -29.051   9.800  0.00  0.00    -0.338 N 
ATOM     28  H   UNK A  0       26.346 -29.318  10.647  0.00  0.00    +0.144 HD
ATOM     29  H   UNK A  0       27.720 -29.517   9.655  0.00  0.00    +0.144 HD
ENDBRANCH  24  27
ENDBRANCH  20  22
BRANCH  21  30
ATOM     30  O   UNK A  0       25.504 -25.641   3.983  0.00  0.00    -0.409 OA
ATOM     31  H   UNK A  0       24.540 -25.651   3.808  0.00  0.00    +0.328 HD
ENDBRANCH  21  30
ENDBRANCH   3  20
TORSDOF 8
ENDMDL
MODEL 2
REMARK VINA RESULT:      -6.3      5.270      8.294
REMARK  Name = *****
REMARK                            x       y       z     vdW  Elec       q    Type
REMARK                         _______ _______ _______ _____ _____    ______ ____
ROOT
ATOM      1  N   UNK A  1       25.384 -29.314   8.573  0.00  0.00    -0.296 N 
ATOM      2  H   UNK A  1       25.935 -28.453   8.586  0.00  0.00    +0.150 HD
ATOM      3  C   UNK A  0       24.554 -29.461   7.479  0.00  0.00    +0.268 C 
ATOM      4  O   UNK A  0       23.667 -30.305   7.428  0.00  0.00    -0.268 OA
ENDROOT
BRANCH   1  12
ATOM      5  C   UNK A  1       25.426 -27.638  13.169  0.00  0.00    -0.010 C 
ATOM      6  C   UNK A  1       26.877 -27.822  12.747  0.00  0.00    +0.108 C 
ATOM      7  S   UNK A  1       27.060 -28.262  10.987  0.00  0.00    -0.131 S 
ATOM      8  C   UNK A  1       25.867 -29.609  11.120  0.00  0.00    +0.169 C 
ATOM      9  N   UNK A  1       24.574 -29.048  11.466  0.00  0.00    -0.249 N 
ATOM     10  C   UNK A  1       23.858 -29.829  10.621  0.00  0.00    +0.244 C 
ATOM     11  O   UNK A  1       22.704 -30.168  10.586  0.00  0.00    -0.273 OA
ATOM     12  C   UNK A  1       25.187 -30.118   9.819  0.00  0.00    +0.191 C 
ATOM     13  C   UNK A  1       24.374 -28.212  12.544  0.00  0.00    +0.126 C 
BRANCH   5  15
ATOM     14  C   UNK A  1       25.417 -25.382  14.172  0.00  0.00    +0.009 C 
ATOM     15  C   UNK A  1       25.284 -26.709  14.289  0.00  0.00    -0.001 C 
ENDBRANCH   5  15
BRANCH  13  16
ATOM     16  C   UNK A  1       22.967 -27.887  12.956  0.00  0.00    +0.352 C 
ATOM     17  O   UNK A  1       22.409 -26.803  12.884  0.00  0.00    -0.244 OA
BRANCH  16  18
ATOM     18  O   UNK A  1       22.297 -28.964  13.395  0.00  0.00    -0.476 OA
ATOM     19  H   UNK A  1       21.384 -28.855  13.059  0.00  0.00    +0.295 HD
ENDBRANCH  16  18
ENDBRANCH  13  16
ENDBRANCH   1  12
BRANCH   3  20
ATOM     20  C   UNK A  0       24.845 -28.550   6.268  0.00  0.00    +0.190 C 
ATOM     21  N   UNK A  0       25.016 -29.000   5.052  0.00  0.00    -0.080 NA
BRANCH  20  22
ATOM     22  C   UNK A  0       24.917 -27.085   6.434  0.00  0.00    +0.107 A 
ATOM     23  N   UNK A  0       23.780 -26.277   6.270  0.00  0.00    -0.223 NA
ATOM     24  C   UNK A  0       24.067 -25.015   6.467  0.00  0.00    +0.156 A 
ATOM     25  S   UNK A  0       25.696 -24.691   6.883  0.00  0.00    -0.060 S 
ATOM     26  C   UNK A  0       26.050 -26.361   6.764  0.00  0.00    +0.078 A 
BRANCH  24  27
ATOM     27  N   UNK A  0       23.167 -24.025   6.376  0.00  0.00    -0.338 N 
ATOM     28  H   UNK A  0       23.463 -23.190   5.885  0.00  0.00    +0.144 HD
ATOM     29  H   UNK A  0       22.194 -24.272   6.245  0.00  0.00    +0.144 HD
ENDBRANCH  24  27
ENDBRANCH  20  22
BRANCH  21  30
ATOM     30  O   UNK A  0       24.978 -30.392   4.933  0.00  0.00    -0.409 OA
ATOM     31  H   UNK A  0       24.182 -30.617   5.458  0.00  0.00    +0.328 HD
ENDBRANCH  21  30
ENDBRANCH   3  20
TORSDOF 8
ENDMDL
MODEL 3
REMARK VINA RESULT:      -6.1      4.282      8.648
REMARK  Name = *****
REMARK                            x       y       z     vdW  Elec       q    Type
REMARK                         _______ _______ _______ _____ _____    ______ ____
ROOT
ATOM      1  N   UNK A  1       25.944 -28.611   7.638  0.00  0.00    -0.296 N 
ATOM      2  H   UNK A  1       26.549 -27.936   8.110  0.00  0.00    +0.150 HD
ATOM      3  C   UNK A  0       25.238 -28.113   6.561  0.00  0.00    +0.268 C 
ATOM      4  O   UNK A  0       24.306 -28.715   6.042  0.00  0.00    -0.268 OA
ENDROOT
BRANCH   1  12
ATOM      5  C   UNK A  1       25.677 -29.418  12.456  0.00  0.00    -0.010 C 
ATOM      6  C   UNK A  1       27.140 -29.561  12.060  0.00  0.00    +0.108 C 
ATOM      7  S   UNK A  1       27.458 -29.103  10.323  0.00  0.00    -0.131 S 
ATOM      8  C   UNK A  1       26.137 -30.174   9.719  0.00  0.00    +0.169 C 
ATOM      9  N   UNK A  1       24.874 -29.690  10.245  0.00  0.00    -0.249 N 
ATOM     10  C   UNK A  1       24.177 -29.857   9.094  0.00  0.00    +0.244 C 
ATOM     11  O   UNK A  1       23.006 -29.981   8.847  0.00  0.00    -0.273 OA
ATOM     12  C   UNK A  1       25.548 -29.888   8.311  0.00  0.00    +0.191 C 
ATOM     13  C   UNK A  1       24.644 -29.469  11.586  0.00  0.00    +0.126 C 
BRANCH   5  15
ATOM     14  C   UNK A  1       26.316 -29.639  14.831  0.00  0.00    +0.009 C 
ATOM     15  C   UNK A  1       25.510 -29.145  13.883  0.00  0.00    -0.001 C 
ENDBRANCH   5  15
BRANCH  13  16
ATOM     16  C   UNK A  1       23.240 -29.206  12.045  0.00  0.00    +0.352 C 
ATOM     17  O   UNK A  1       22.791 -28.156  12.479  0.00  0.00    -0.244 OA
BRANCH  16  18
ATOM     18  O   UNK A  1       22.437 -30.270  11.888  0.00  0.00    -0.476 OA
ATOM     19  H   UNK A  1       22.283 -30.336  10.924  0.00  0.00    +0.295 HD
ENDBRANCH  16  18
ENDBRANCH  13  16
ENDBRANCH   1  12
BRANCH   3  20
ATOM     20  C   UNK A  0       25.730 -26.771   5.979  0.00  0.00    +0.190 C 
ATOM     21  N   UNK A  0       26.675 -26.679   5.080  0.00  0.00    -0.080 NA
BRANCH  20  22
ATOM     22  C   UNK A  0       25.116 -25.499   6.407  0.00  0.00    +0.107 A 
ATOM     23  N   UNK A  0       23.734 -25.280   6.285  0.00  0.00    -0.223 NA
ATOM     24  C   UNK A  0       23.405 -24.093   6.729  0.00  0.00    +0.156 A 
ATOM     25  S   UNK A  0       24.699 -23.155   7.342  0.00  0.00    -0.060 S 
ATOM     26  C   UNK A  0       25.786 -24.422   6.962  0.00  0.00    +0.078 A 
BRANCH  24  27
ATOM     27  N   UNK A  0       22.148 -23.623   6.732  0.00  0.00    -0.338 N 
ATOM     28  H   UNK A  0       21.583 -23.854   7.540  0.00  0.00    +0.144 HD
ATOM     29  H   UNK A  0       21.979 -22.704   6.343  0.00  0.00    +0.144 HD
ENDBRANCH  24  27
ENDBRANCH  20  22
BRANCH  21  30
ATOM     30  O   UNK A  0       27.262 -27.896   4.721  0.00  0.00    -0.409 OA
ATOM     31  H   UNK A  0       28.215 -27.693   4.812  0.00  0.00    +0.328 HD
ENDBRANCH  21  30
ENDBRANCH   3  20
TORSDOF 8
ENDMDL
MODEL 4
REMARK VINA RESULT:      -5.7      6.186      8.304
REMARK  Name = *****
REMARK                            x       y       z     vdW  Elec       q    Type
REMARK                         _______ _______ _______ _____ _____    ______ ____
ROOT
ATOM      1  N   UNK A  1       24.240 -30.004   9.435  0.00  0.00    -0.296 N 
ATOM      2  H   UNK A  1       23.420 -29.449   9.183  0.00  0.00    +0.150 HD
ATOM      3  C   UNK A  0       24.816 -30.704   8.393  0.00  0.00    +0.268 C 
ATOM      4  O   UNK A  0       25.646 -31.588   8.566  0.00  0.00    -0.268 OA
ENDROOT
BRANCH   1  12
ATOM      5  C   UNK A  1       25.896 -26.981  12.908  0.00  0.00    -0.010 C 
ATOM      6  C   UNK A  1       27.103 -27.431  12.094  0.00  0.00    +0.108 C 
ATOM      7  S   UNK A  1       26.649 -28.417  10.629  0.00  0.00    -0.131 S 
ATOM      8  C   UNK A  1       25.614 -29.529  11.602  0.00  0.00    +0.169 C 
ATOM      9  N   UNK A  1       24.520 -28.762  12.170  0.00  0.00    -0.249 N 
ATOM     10  C   UNK A  1       23.565 -29.695  11.932  0.00  0.00    +0.244 C 
ATOM     11  O   UNK A  1       22.484 -29.912  12.413  0.00  0.00    -0.273 OA
ATOM     12  C   UNK A  1       24.523 -30.351  10.862  0.00  0.00    +0.191 C 
ATOM     13  C   UNK A  1       24.703 -27.615  12.912  0.00  0.00    +0.126 C 
BRANCH   5  15
ATOM     14  C   UNK A  1       27.364 -25.206  13.796  0.00  0.00    +0.009 C 
ATOM     15  C   UNK A  1       26.146 -25.738  13.635  0.00  0.00    -0.001 C 
ENDBRANCH   5  15
BRANCH  13  16
ATOM     16  C   UNK A  1       23.532 -27.040  13.654  0.00  0.00    +0.352 C 
ATOM     17  O   UNK A  1       22.709 -26.242  13.230  0.00  0.00    -0.244 OA
BRANCH  16  18
ATOM     18  O   UNK A  1       23.411 -27.538  14.894  0.00  0.00    -0.476 OA
ATOM     19  H   UNK A  1       23.935 -28.365  14.892  0.00  0.00    +0.295 HD
ENDBRANCH  16  18
ENDBRANCH  13  16
ENDBRANCH   1  12
BRANCH   3  20
ATOM     20  C   UNK A  0       24.417 -30.266   6.968  0.00  0.00    +0.190 C 
ATOM     21  N   UNK A  0       23.631 -30.966   6.192  0.00  0.00    -0.080 NA
BRANCH  20  22
ATOM     22  C   UNK A  0       24.902 -28.986   6.415  0.00  0.00    +0.107 A 
ATOM     23  N   UNK A  0       25.169 -27.888   7.248  0.00  0.00    -0.223 NA
ATOM     24  C   UNK A  0       25.593 -26.862   6.553  0.00  0.00    +0.156 A 
ATOM     25  S   UNK A  0       25.729 -27.126   4.867  0.00  0.00    -0.060 S 
ATOM     26  C   UNK A  0       25.152 -28.724   5.078  0.00  0.00    +0.078 A 
BRANCH  24  27
ATOM     27  N   UNK A  0       25.922 -25.681   7.096  0.00  0.00    -0.338 N 
ATOM     28  H   UNK A  0       25.340 -25.358   7.860  0.00  0.00    +0.144 HD
ATOM     29  H   UNK A  0       26.904 -25.450   7.184  0.00  0.00    +0.144 HD
ENDBRANCH  24  27
ENDBRANCH  20  22
BRANCH  21  30
ATOM     30  O   UNK A  0       23.217 -32.189   6.729  0.00  0.00    -0.409 OA
ATOM     31  H   UNK A  0       22.878 -32.651   5.935  0.00  0.00    +0.328 HD
ENDBRANCH  21  30
ENDBRANCH   3  20
TORSDOF 8
ENDMDL
MODEL 5
REMARK VINA RESULT:      -5.7      5.553      9.617
REMARK  Name = *****
REMARK                            x       y       z     vdW  Elec       q    Type
REMARK                         _______ _______ _______ _____ _____    ______ ____
ROOT
ATOM      1  N   UNK A  1       25.932 -29.611   8.321  0.00  0.00    -0.296 N 
ATOM      2  H   UNK A  1       25.351 -28.895   8.762  0.00  0.00    +0.150 HD
ATOM      3  C   UNK A  0       25.544 -29.979   7.049  0.00  0.00    +0.268 C 
ATOM      4  O   UNK A  0       25.981 -30.974   6.484  0.00  0.00    -0.268 OA
ENDROOT
BRANCH   1  12
ATOM      5  C   UNK A  1       26.216 -29.751  13.204  0.00  0.00    -0.010 C 
ATOM      6  C   UNK A  1       27.029 -28.548  12.743  0.00  0.00    +0.108 C 
ATOM      7  S   UNK A  1       26.878 -28.226  10.954  0.00  0.00    -0.131 S 
ATOM      8  C   UNK A  1       27.275 -29.935  10.535  0.00  0.00    +0.169 C 
ATOM      9  N   UNK A  1       26.240 -30.796  11.078  0.00  0.00    -0.249 N 
ATOM     10  C   UNK A  1       26.150 -31.600   9.991  0.00  0.00    +0.244 C 
ATOM     11  O   UNK A  1       25.749 -32.722   9.823  0.00  0.00    -0.273 OA
ATOM     12  C   UNK A  1       26.847 -30.467   9.140  0.00  0.00    +0.191 C 
ATOM     13  C   UNK A  1       25.853 -30.776  12.402  0.00  0.00    +0.126 C 
BRANCH   5  15
ATOM     14  C   UNK A  1       24.880 -28.778  15.039  0.00  0.00    +0.009 C 
ATOM     15  C   UNK A  1       25.805 -29.643  14.603  0.00  0.00    -0.001 C 
ENDBRANCH   5  15
BRANCH  13  16
ATOM     16  C   UNK A  1       24.956 -31.866  12.909  0.00  0.00    +0.352 C 
ATOM     17  O   UNK A  1       23.759 -31.789  13.140  0.00  0.00    -0.244 OA
BRANCH  16  18
ATOM     18  O   UNK A  1       25.597 -33.036  13.055  0.00  0.00    -0.476 OA
ATOM     19  H   UNK A  1       26.309 -33.026  12.383  0.00  0.00    +0.295 HD
ENDBRANCH  16  18
ENDBRANCH  13  16
ENDBRANCH   1  12
BRANCH   3  20
ATOM     20  C   UNK A  0       24.574 -29.025   6.323  0.00  0.00    +0.190 C 
ATOM     21  N   UNK A  0       23.480 -29.424   5.728  0.00  0.00    -0.080 NA
BRANCH  20  22
ATOM     22  C   UNK A  0       24.835 -27.572   6.292  0.00  0.00    +0.107 A 
ATOM     23  N   UNK A  0       23.783 -26.645   6.219  0.00  0.00    -0.223 NA
ATOM     24  C   UNK A  0       24.238 -25.417   6.210  0.00  0.00    +0.156 A 
ATOM     25  S   UNK A  0       25.940 -25.266   6.309  0.00  0.00    -0.060 S 
ATOM     26  C   UNK A  0       26.082 -26.972   6.340  0.00  0.00    +0.078 A 
BRANCH  24  27
ATOM     27  N   UNK A  0       23.450 -24.333   6.147  0.00  0.00    -0.338 N 
ATOM     28  H   UNK A  0       22.898 -24.128   6.971  0.00  0.00    +0.144 HD
ATOM     29  H   UNK A  0       23.793 -23.519   5.652  0.00  0.00    +0.144 HD
ENDBRANCH  24  27
ENDBRANCH  20  22
BRANCH  21  30
ATOM     30  O   UNK A  0       23.278 -30.807   5.742  0.00  0.00    -0.409 OA
ATOM     31  H   UNK A  0       22.384 -30.875   6.134  0.00  0.00    +0.328 HD
ENDBRANCH  21  30
ENDBRANCH   3  20
TORSDOF 8
ENDMDL
MODEL 6
REMARK VINA RESULT:      -5.6      3.948      9.133
REMARK  Name = *****
REMARK                            x       y       z     vdW  Elec       q    Type
REMARK                         _______ _______ _______ _____ _____    ______ ____
ROOT
ATOM      1  N   UNK A  1       24.407 -28.389   6.135  0.00  0.00    -0.296 N 
ATOM      2  H   UNK A  1       24.306 -28.179   5.140  0.00  0.00    +0.150 HD
ATOM      3  C   UNK A  0       25.345 -27.627   6.802  0.00  0.00    +0.268 C 
ATOM      4  O   UNK A  0       25.752 -27.908   7.923  0.00  0.00    -0.268 OA
ENDROOT
BRANCH   1  12
ATOM      5  C   UNK A  1       26.892 -32.577   6.603  0.00  0.00    -0.010 C 
ATOM      6  C   UNK A  1       26.406 -32.504   5.161  0.00  0.00    +0.108 C 
ATOM      7  S   UNK A  1       25.620 -30.911   4.752  0.00  0.00    -0.131 S 
ATOM      8  C   UNK A  1       24.526 -30.995   6.184  0.00  0.00    +0.169 C 
ATOM      9  N   UNK A  1       25.338 -30.971   7.387  0.00  0.00    -0.249 N 
ATOM     10  C   UNK A  1       24.533 -30.124   8.075  0.00  0.00    +0.244 C 
ATOM     11  O   UNK A  1       24.379 -29.899   9.247  0.00  0.00    -0.273 OA
ATOM     12  C   UNK A  1       23.894 -29.675   6.703  0.00  0.00    +0.191 C 
ATOM     13  C   UNK A  1       26.383 -31.841   7.615  0.00  0.00    +0.126 C 
BRANCH   5  15
ATOM     14  C   UNK A  1       29.001 -33.622   5.856  0.00  0.00    +0.009 C 
ATOM     15  C   UNK A  1       28.026 -33.485   6.764  0.00  0.00    -0.001 C 
ENDBRANCH   5  15
BRANCH  13  16
ATOM     16  C   UNK A  1       26.996 -31.892   8.984  0.00  0.00    +0.352 C 
ATOM     17  O   UNK A  1       27.149 -32.879   9.687  0.00  0.00    -0.244 OA
BRANCH  16  18
ATOM     18  O   UNK A  1       27.444 -30.695   9.394  0.00  0.00    -0.476 OA
ATOM     19  H   UNK A  1       27.032 -30.551  10.270  0.00  0.00    +0.295 HD
ENDBRANCH  16  18
ENDBRANCH  13  16
ENDBRANCH   1  12
BRANCH   3  20
ATOM     20  C   UNK A  0       25.815 -26.340   6.094  0.00  0.00    +0.190 C 
ATOM     21  N   UNK A  0       26.718 -26.326   5.148  0.00  0.00    -0.080 NA
BRANCH  20  22
ATOM     22  C   UNK A  0       25.227 -25.033   6.449  0.00  0.00    +0.107 A 
ATOM     23  N   UNK A  0       26.027 -23.977   6.915  0.00  0.00    -0.223 NA
ATOM     24  C   UNK A  0       25.304 -22.914   7.163  0.00  0.00    +0.156 A 
ATOM     25  S   UNK A  0       23.631 -23.074   6.842  0.00  0.00    -0.060 S 
ATOM     26  C   UNK A  0       23.886 -24.697   6.361  0.00  0.00    +0.078 A 
BRANCH  24  27
ATOM     27  N   UNK A  0       25.814 -21.759   7.619  0.00  0.00    -0.338 N 
ATOM     28  H   UNK A  0       26.756 -21.534   7.324  0.00  0.00    +0.144 HD
ATOM     29  H   UNK A  0       25.195 -20.963   7.706  0.00  0.00    +0.144 HD
ENDBRANCH  24  27
ENDBRANCH  20  22
BRANCH  21  30
ATOM     30  O   UNK A  0       27.282 -27.571   4.860  0.00  0.00    -0.409 OA
ATOM     31  H   UNK A  0       26.968 -28.113   5.613  0.00  0.00    +0.328 HD
ENDBRANCH  21  30
ENDBRANCH   3  20
TORSDOF 8
ENDMDL
MODEL 7
REMARK VINA RESULT:      -5.4      7.785     10.050
REMARK  Name = *****
REMARK                            x       y       z     vdW  Elec       q    Type
REMARK                         _______ _______ _______ _____ _____    ______ ____
ROOT
ATOM      1  N   UNK A  1       25.319 -27.856  12.392  0.00  0.00    -0.296 N 
ATOM      2  H   UNK A  1       24.514 -27.498  11.874  0.00  0.00    +0.150 HD
ATOM      3  C   UNK A  0       25.778 -27.033  13.402  0.00  0.00    +0.268 C 
ATOM      4  O   UNK A  0       26.860 -27.198  13.952  0.00  0.00    -0.268 OA
ENDROOT
BRANCH   1  12
ATOM      5  C   UNK A  1       23.788 -31.643   9.700  0.00  0.00    -0.010 C 
ATOM      6  C   UNK A  1       23.517 -31.992  11.157  0.00  0.00    +0.108 C 
ATOM      7  S   UNK A  1       23.851 -30.609  12.298  0.00  0.00    -0.131 S 
ATOM      8  C   UNK A  1       25.497 -30.339  11.612  0.00  0.00    +0.169 C 
ATOM      9  N   UNK A  1       25.359 -29.949  10.220  0.00  0.00    -0.249 N 
ATOM     10  C   UNK A  1       26.306 -28.979  10.259  0.00  0.00    +0.244 C 
ATOM     11  O   UNK A  1       26.977 -28.445   9.414  0.00  0.00    -0.273 OA
ATOM     12  C   UNK A  1       26.166 -28.954  11.831  0.00  0.00    +0.191 C 
ATOM     13  C   UNK A  1       24.641 -30.677   9.295  0.00  0.00    +0.126 C 
BRANCH   5  15
ATOM     14  C   UNK A  1       22.012 -33.276   9.175  0.00  0.00    +0.009 C 
ATOM     15  C   UNK A  1       22.964 -32.423   8.777  0.00  0.00    -0.001 C 
ENDBRANCH   5  15
BRANCH  13  16
ATOM     16  C   UNK A  1       24.764 -30.321   7.842  0.00  0.00    +0.352 C 
ATOM     17  O   UNK A  1       23.940 -29.739   7.153  0.00  0.00    -0.244 OA
BRANCH  16  18
ATOM     18  O   UNK A  1       25.953 -30.667   7.325  0.00  0.00    -0.476 OA
ATOM     19  H   UNK A  1       26.578 -29.979   7.629  0.00  0.00    +0.295 HD
ENDBRANCH  16  18
ENDBRANCH  13  16
ENDBRANCH   1  12
BRANCH   3  20
ATOM     20  C   UNK A  0       24.820 -25.919  13.870  0.00  0.00    +0.190 C 
ATOM     21  N   UNK A  0       25.184 -24.672  14.025  0.00  0.00    -0.080 NA
BRANCH  20  22
ATOM     22  C   UNK A  0       23.401 -26.219  14.146  0.00  0.00    +0.107 A 
ATOM     23  N   UNK A  0       22.506 -26.524  13.108  0.00  0.00    -0.223 NA
ATOM     24  C   UNK A  0       21.306 -26.762  13.576  0.00  0.00    +0.156 A 
ATOM     25  S   UNK A  0       21.151 -26.664  15.278  0.00  0.00    -0.060 S 
ATOM     26  C   UNK A  0       22.806 -26.247  15.397  0.00  0.00    +0.078 A 
BRANCH  24  27
ATOM     27  N   UNK A  0       20.257 -27.080  12.803  0.00  0.00    -0.338 N 
ATOM     28  H   UNK A  0       20.468 -27.520  11.915  0.00  0.00    +0.144 HD
ATOM     29  H   UNK A  0       19.414 -27.414  13.253  0.00  0.00    +0.144 HD
ENDBRANCH  24  27
ENDBRANCH  20  22
BRANCH  21  30
ATOM     30  O   UNK A  0       26.539 -24.426  13.791  0.00  0.00    -0.409 OA
ATOM     31  H   UNK A  0       26.906 -24.446  14.699  0.00  0.00    +0.328 HD
ENDBRANCH  21  30
ENDBRANCH   3  20
TORSDOF 8
ENDMDL
MODEL 8
REMARK VINA RESULT:      -5.3      0.928      1.207
REMARK  Name = *****
REMARK                            x       y       z     vdW  Elec       q    Type
REMARK                         _______ _______ _______ _____ _____    ______ ____
ROOT
ATOM      1  N   UNK A  1       25.253 -24.083   6.868  0.00  0.00    -0.296 N 
ATOM      2  H   UNK A  1       26.225 -24.143   6.556  0.00  0.00    +0.150 HD
ATOM      3  C   UNK A  0       24.464 -25.167   6.537  0.00  0.00    +0.268 C 
ATOM      4  O   UNK A  0       23.243 -25.150   6.625  0.00  0.00    -0.268 OA
ENDROOT
BRANCH   1  12
ATOM      5  C   UNK A  1       26.146 -19.727   4.825  0.00  0.00    -0.010 C 
ATOM      6  C   UNK A  1       27.284 -20.007   5.798  0.00  0.00    +0.108 C 
ATOM      7  S   UNK A  1       27.217 -21.683   6.513  0.00  0.00    -0.131 S 
ATOM      8  C   UNK A  1       25.493 -21.488   7.005  0.00  0.00    +0.169 C 
ATOM      9  N   UNK A  1       24.688 -21.315   5.809  0.00  0.00    -0.249 N 
ATOM     10  C   UNK A  1       23.673 -22.117   6.212  0.00  0.00    +0.244 C 
ATOM     11  O   UNK A  1       22.514 -22.204   5.900  0.00  0.00    -0.273 OA
ATOM     12  C   UNK A  1       24.654 -22.770   7.263  0.00  0.00    +0.191 C 
ATOM     13  C   UNK A  1       24.953 -20.363   4.847  0.00  0.00    +0.126 C 
BRANCH   5  15
ATOM     14  C   UNK A  1       25.756 -17.675   3.510  0.00  0.00    +0.009 C 
ATOM     15  C   UNK A  1       26.509 -18.740   3.810  0.00  0.00    -0.001 C 
ENDBRANCH   5  15
BRANCH  13  16
ATOM     16  C   UNK A  1       23.928 -20.107   3.782  0.00  0.00    +0.352 C 
ATOM     17  O   UNK A  1       23.015 -19.295   3.817  0.00  0.00    -0.244 OA
BRANCH  16  18
ATOM     18  O   UNK A  1       24.128 -20.851   2.683  0.00  0.00    -0.476 OA
ATOM     19  H   UNK A  1       23.465 -20.539   2.035  0.00  0.00    +0.295 HD
ENDBRANCH  16  18
ENDBRANCH  13  16
ENDBRANCH   1  12
BRANCH   3  20
ATOM     20  C   UNK A  0       25.205 -26.453   6.116  0.00  0.00    +0.190 C 
ATOM     21  N   UNK A  0       25.748 -26.620   4.939  0.00  0.00    -0.080 NA
BRANCH  20  22
ATOM     22  C   UNK A  0       25.359 -27.574   7.066  0.00  0.00    +0.107 A 
ATOM     23  N   UNK A  0       26.260 -27.500   8.139  0.00  0.00    -0.223 NA
ATOM     24  C   UNK A  0       26.231 -28.596   8.854  0.00  0.00    +0.156 A 
ATOM     25  S   UNK A  0       25.121 -29.786   8.326  0.00  0.00    -0.060 S 
ATOM     26  C   UNK A  0       24.663 -28.770   7.026  0.00  0.00    +0.078 A 
BRANCH  24  27
ATOM     27  N   UNK A  0       26.992 -28.794   9.941  0.00  0.00    -0.338 N 
ATOM     28  H   UNK A  0       27.988 -28.897   9.782  0.00  0.00    +0.144 HD
ATOM     29  H   UNK A  0       26.746 -28.308  10.794  0.00  0.00    +0.144 HD
ENDBRANCH  24  27
ENDBRANCH  20  22
BRANCH  21  30
ATOM     30  O   UNK A  0       25.556 -25.558   4.050  0.00  0.00    -0.409 OA
ATOM     31  H   UNK A  0       26.236 -25.740   3.370  0.00  0.00    +0.328 HD
ENDBRANCH  21  30
ENDBRANCH   3  20
TORSDOF 8
ENDMDL
MODEL 9
REMARK VINA RESULT:      -5.3      2.707      8.602
REMARK  Name = *****
REMARK                            x       y       z     vdW  Elec       q    Type
REMARK                         _______ _______ _______ _____ _____    ______ ____
ROOT
ATOM      1  N   UNK A  1       25.015 -26.367   6.880  0.00  0.00    -0.296 N 
ATOM      2  H   UNK A  1       24.289 -26.210   7.581  0.00  0.00    +0.150 HD
ATOM      3  C   UNK A  0       25.280 -25.290   6.058  0.00  0.00    +0.268 C 
ATOM      4  O   UNK A  0       25.941 -25.385   5.031  0.00  0.00    -0.268 OA
ENDROOT
BRANCH   1  12
ATOM      5  C   UNK A  1       25.376 -30.208   9.890  0.00  0.00    -0.010 C 
ATOM      6  C   UNK A  1       26.648 -29.387  10.058  0.00  0.00    +0.108 C 
ATOM      7  S   UNK A  1       26.604 -27.806   9.149  0.00  0.00    -0.131 S 
ATOM      8  C   UNK A  1       26.119 -28.616   7.612  0.00  0.00    +0.169 C 
ATOM      9  N   UNK A  1       24.819 -29.232   7.804  0.00  0.00    -0.249 N 
ATOM     10  C   UNK A  1       24.316 -28.862   6.602  0.00  0.00    +0.244 C 
ATOM     11  O   UNK A  1       23.421 -29.282   5.915  0.00  0.00    -0.273 OA
ATOM     12  C   UNK A  1       25.438 -27.755   6.513  0.00  0.00    +0.191 C 
ATOM     13  C   UNK A  1       24.538 -30.104   8.835  0.00  0.00    +0.126 C 
BRANCH   5  15
ATOM     14  C   UNK A  1       24.888 -30.623  12.274  0.00  0.00    +0.009 C 
ATOM     15  C   UNK A  1       25.118 -31.077  11.036  0.00  0.00    -0.001 C 
ENDBRANCH   5  15
BRANCH  13  16
ATOM     16  C   UNK A  1       23.247 -30.869   8.803  0.00  0.00    +0.352 C 
ATOM     17  O   UNK A  1       22.256 -30.674   9.490  0.00  0.00    -0.244 OA
BRANCH  16  18
ATOM     18  O   UNK A  1       23.237 -31.824   7.859  0.00  0.00    -0.476 OA
ATOM     19  H   UNK A  1       22.361 -31.754   7.430  0.00  0.00    +0.295 HD
ENDBRANCH  16  18
ENDBRANCH  13  16
ENDBRANCH   1  12
BRANCH   3  20
ATOM     20  C   UNK A  0       24.764 -23.917   6.537  0.00  0.00    +0.190 C 
ATOM     21  N   UNK A  0       23.510 -23.678   6.822  0.00  0.00    -0.080 NA
BRANCH  20  22
ATOM     22  C   UNK A  0       25.697 -22.789   6.723  0.00  0.00    +0.107 A 
ATOM     23  N   UNK A  0       25.898 -21.836   5.712  0.00  0.00    -0.223 NA
ATOM     24  C   UNK A  0       26.758 -20.924   6.089  0.00  0.00    +0.156 A 
ATOM     25  S   UNK A  0       27.378 -21.112   7.673  0.00  0.00    -0.060 S 
ATOM     26  C   UNK A  0       26.446 -22.535   7.860  0.00  0.00    +0.078 A 
BRANCH  24  27
ATOM     27  N   UNK A  0       27.134 -19.893   5.317  0.00  0.00    -0.338 N 
ATOM     28  H   UNK A  0       26.793 -18.978   5.588  0.00  0.00    +0.144 HD
ATOM     29  H   UNK A  0       28.070 -19.899   4.930  0.00  0.00    +0.144 HD
ENDBRANCH  24  27
ENDBRANCH  20  22
BRANCH  21  30
ATOM     30  O   UNK A  0       22.645 -24.754   6.602  0.00  0.00    -0.409 OA
ATOM     31  H   UNK A  0       22.688 -25.224   7.460  0.00  0.00    +0.328 HD
ENDBRANCH  21  30
ENDBRANCH   3  20
TORSDOF 8
ENDMDL
