MODEL 1
REMARK VINA RESULT:      -5.6      0.000      0.000
REMARK  Name = *****
REMARK                            x       y       z     vdW  Elec       q    Type
REMARK                         _______ _______ _______ _____ _____    ______ ____
ROOT
ATOM      1  C   LIG    1       25.538 -15.266   3.681  0.00  0.00    +0.167 A 
ATOM      2  N   LIG    1       26.834 -15.676   3.463  0.00  0.00    -0.125 NA
ATOM      3  N   LIG    1       26.824 -16.981   3.229  0.00  0.00    -0.065 NA
ATOM      4  N   LIG    1       25.546 -17.398   3.311  0.00  0.00    -0.246 N 
ATOM      5  C   LIG    1       24.704 -16.361   3.582  0.00  0.00    +0.143 A 
ENDROOT
BRANCH   1   9
ATOM      6  N   LIG    1       24.099 -13.433   3.241  0.00  0.00    -0.324 N 
ATOM      7  H   LIG    1       23.631 -14.032   2.573  0.00  0.00    +0.145 HD
ATOM      8  H   LIG    1       23.785 -12.485   3.383  0.00  0.00    +0.145 HD
ATOM      9  C   LIG    1       25.168 -13.891   3.959  0.00  0.00    +0.263 C 
ATOM     10  O   LIG    1       25.748 -13.175   4.770  0.00  0.00    -0.269 OA
ENDBRANCH   1   9
BRANCH   4  11
ATOM     11  C   LIG    1       25.204 -18.787   3.069  0.00  0.00    +0.186 C 
BRANCH  11  12
ATOM     12  C   LIG    1       24.660 -19.436   4.304  0.00  0.00    +0.044 A 
ATOM     13  C   LIG    1       25.503 -20.079   5.210  0.00  0.00    +0.131 A 
ATOM     14  F   LIG    1       26.826 -20.085   4.993  0.00  0.00    -0.205 F 
ATOM     15  C   LIG    1       25.005 -20.718   6.344  0.00  0.00    +0.039 A 
ATOM     16  C   LIG    1       23.632 -20.725   6.586  0.00  0.00    +0.006 A 
ATOM     17  C   LIG    1       22.772 -20.088   5.693  0.00  0.00    +0.039 A 
ATOM     18  C   LIG    1       23.290 -19.452   4.566  0.00  0.00    +0.131 A 
ATOM     19  F   LIG    1       22.444 -18.836   3.728  0.00  0.00    -0.205 F 
ENDBRANCH  11  12
ENDBRANCH   4  11
TORSDOF 3
ENDMDL
MODEL 2
REMARK VINA RESULT:      -5.5      0.918      2.177
REMARK  Name = *****
REMARK                            x       y       z     vdW  Elec       q    Type
REMARK                         _______ _______ _______ _____ _____    ______ ____
ROOT
ATOM      1  C   LIG    1       25.279 -15.557   3.662  0.00  0.00    +0.167 A 
ATOM      2  N   LIG    1       26.536 -16.010   3.327  0.00  0.00    -0.125 NA
ATOM      3  N   LIG    1       26.469 -17.321   3.140  0.00  0.00    -0.065 NA
ATOM      4  N   LIG    1       25.197 -17.698   3.366  0.00  0.00    -0.246 N 
ATOM      5  C   LIG    1       24.412 -16.630   3.686  0.00  0.00    +0.143 A 
ENDROOT
BRANCH   1   9
ATOM      6  N   LIG    1       25.826 -13.554   4.808  0.00  0.00    -0.324 N 
ATOM      7  H   LIG    1       26.593 -14.067   5.223  0.00  0.00    +0.145 HD
ATOM      8  H   LIG    1       25.674 -12.585   5.042  0.00  0.00    +0.145 HD
ATOM      9  C   LIG    1       24.974 -14.164   3.931  0.00  0.00    +0.263 C 
ATOM     10  O   LIG    1       24.036 -13.557   3.423  0.00  0.00    -0.269 OA
ENDBRANCH   1   9
BRANCH   4  11
ATOM     11  C   LIG    1       24.797 -19.084   3.206  0.00  0.00    +0.186 C 
BRANCH  11  12
ATOM     12  C   LIG    1       24.552 -19.735   4.533  0.00  0.00    +0.044 A 
ATOM     13  C   LIG    1       23.258 -19.880   5.034  0.00  0.00    +0.131 A 
ATOM     14  F   LIG    1       22.214 -19.467   4.302  0.00  0.00    -0.205 F 
ATOM     15  C   LIG    1       23.020 -20.451   6.283  0.00  0.00    +0.039 A 
ATOM     16  C   LIG    1       24.093 -20.884   7.062  0.00  0.00    +0.006 A 
ATOM     17  C   LIG    1       25.393 -20.747   6.579  0.00  0.00    +0.039 A 
ATOM     18  C   LIG    1       25.611 -20.177   5.325  0.00  0.00    +0.131 A 
ATOM     19  F   LIG    1       26.869 -20.066   4.878  0.00  0.00    -0.205 F 
ENDBRANCH  11  12
ENDBRANCH   4  11
TORSDOF 3
ENDMDL
MODEL 3
REMARK VINA RESULT:      -5.5      3.673      4.595
REMARK  Name = *****
REMARK                            x       y       z     vdW  Elec       q    Type
REMARK                         _______ _______ _______ _____ _____    ______ ____
ROOT
ATOM      1  C   LIG    1       27.943 -19.771   6.032  0.00  0.00    +0.167 A 
ATOM      2  N   LIG    1       27.907 -20.837   6.903  0.00  0.00    -0.125 NA
ATOM      3  N   LIG    1       26.834 -21.566   6.624  0.00  0.00    -0.065 NA
ATOM      4  N   LIG    1       26.191 -20.966   5.604  0.00  0.00    -0.246 N 
ATOM      5  C   LIG    1       26.851 -19.847   5.192  0.00  0.00    +0.143 A 
ENDROOT
BRANCH   1   9
ATOM      6  N   LIG    1       29.409 -18.373   4.799  0.00  0.00    -0.324 N 
ATOM      7  H   LIG    1       29.003 -18.778   3.965  0.00  0.00    +0.145 HD
ATOM      8  H   LIG    1       30.135 -17.676   4.727  0.00  0.00    +0.145 HD
ATOM      9  C   LIG    1       28.990 -18.766   6.039  0.00  0.00    +0.263 C 
ATOM     10  O   LIG    1       29.475 -18.287   7.059  0.00  0.00    -0.269 OA
ENDBRANCH   1   9
BRANCH   4  11
ATOM     11  C   LIG    1       24.985 -21.549   5.045  0.00  0.00    +0.186 C 
BRANCH  11  12
ATOM     12  C   LIG    1       23.962 -20.497   4.745  0.00  0.00    +0.044 A 
ATOM     13  C   LIG    1       24.014 -19.761   3.561  0.00  0.00    +0.131 A 
ATOM     14  F   LIG    1       24.969 -20.024   2.659  0.00  0.00    -0.205 F 
ATOM     15  C   LIG    1       23.089 -18.755   3.287  0.00  0.00    +0.039 A 
ATOM     16  C   LIG    1       22.089 -18.464   4.214  0.00  0.00    +0.006 A 
ATOM     17  C   LIG    1       22.021 -19.188   5.404  0.00  0.00    +0.039 A 
ATOM     18  C   LIG    1       22.953 -20.193   5.658  0.00  0.00    +0.131 A 
ATOM     19  F   LIG    1       22.860 -20.883   6.803  0.00  0.00    -0.205 F 
ENDBRANCH  11  12
ENDBRANCH   4  11
TORSDOF 3
ENDMDL
MODEL 4
REMARK VINA RESULT:      -5.2      1.155      1.438
REMARK  Name = *****
REMARK                            x       y       z     vdW  Elec       q    Type
REMARK                         _______ _______ _______ _____ _____    ______ ____
ROOT
ATOM      1  C   LIG    1       26.345 -15.399   3.635  0.00  0.00    +0.167 A 
ATOM      2  N   LIG    1       24.985 -15.367   3.844  0.00  0.00    -0.125 NA
ATOM      3  N   LIG    1       24.508 -16.591   3.667  0.00  0.00    -0.065 NA
ATOM      4  N   LIG    1       25.543 -17.386   3.336  0.00  0.00    -0.246 N 
ATOM      5  C   LIG    1       26.714 -16.688   3.312  0.00  0.00    +0.143 A 
ENDROOT
BRANCH   1   9
ATOM      6  N   LIG    1       27.600 -13.697   2.562  0.00  0.00    -0.324 N 
ATOM      7  H   LIG    1       27.305 -14.109   1.686  0.00  0.00    +0.145 HD
ATOM      8  H   LIG    1       28.198 -12.884   2.568  0.00  0.00    +0.145 HD
ATOM      9  C   LIG    1       27.203 -14.234   3.754  0.00  0.00    +0.263 C 
ATOM     10  O   LIG    1       27.556 -13.748   4.824  0.00  0.00    -0.269 OA
ENDBRANCH   1   9
BRANCH   4  11
ATOM     11  C   LIG    1       25.343 -18.805   3.107  0.00  0.00    +0.186 C 
BRANCH  11  12
ATOM     12  C   LIG    1       24.715 -19.463   4.296  0.00  0.00    +0.044 A 
ATOM     13  C   LIG    1       25.496 -20.081   5.273  0.00  0.00    +0.131 A 
ATOM     14  F   LIG    1       26.832 -20.053   5.167  0.00  0.00    -0.205 F 
ATOM     15  C   LIG    1       24.922 -20.728   6.365  0.00  0.00    +0.039 A 
ATOM     16  C   LIG    1       23.533 -20.772   6.491  0.00  0.00    +0.006 A 
ATOM     17  C   LIG    1       22.735 -20.161   5.525  0.00  0.00    +0.039 A 
ATOM     18  C   LIG    1       23.329 -19.515   4.442  0.00  0.00    +0.131 A 
ATOM     19  F   LIG    1       22.541 -18.925   3.533  0.00  0.00    -0.205 F 
ENDBRANCH  11  12
ENDBRANCH   4  11
TORSDOF 3
ENDMDL
MODEL 5
REMARK VINA RESULT:      -5.2      1.138      2.453
REMARK  Name = *****
REMARK                            x       y       z     vdW  Elec       q    Type
REMARK                         _______ _______ _______ _____ _____    ______ ____
ROOT
ATOM      1  C   LIG    1       26.327 -15.370   3.682  0.00  0.00    +0.167 A 
ATOM      2  N   LIG    1       24.956 -15.356   3.800  0.00  0.00    -0.125 NA
ATOM      3  N   LIG    1       24.508 -16.586   3.592  0.00  0.00    -0.065 NA
ATOM      4  N   LIG    1       25.573 -17.367   3.331  0.00  0.00    -0.246 N 
ATOM      5  C   LIG    1       26.734 -16.655   3.385  0.00  0.00    +0.143 A 
ENDROOT
BRANCH   1   9
ATOM      6  N   LIG    1       27.662 -13.675   2.697  0.00  0.00    -0.324 N 
ATOM      7  H   LIG    1       27.454 -14.107   1.806  0.00  0.00    +0.145 HD
ATOM      8  H   LIG    1       28.250 -12.857   2.743  0.00  0.00    +0.145 HD
ATOM      9  C   LIG    1       27.160 -14.194   3.857  0.00  0.00    +0.263 C 
ATOM     10  O   LIG    1       27.407 -13.684   4.946  0.00  0.00    -0.269 OA
ENDBRANCH   1   9
BRANCH   4  11
ATOM     11  C   LIG    1       25.407 -18.789   3.091  0.00  0.00    +0.186 C 
BRANCH  11  12
ATOM     12  C   LIG    1       24.820 -19.477   4.284  0.00  0.00    +0.044 A 
ATOM     13  C   LIG    1       23.440 -19.515   4.485  0.00  0.00    +0.131 A 
ATOM     14  F   LIG    1       22.623 -18.961   3.578  0.00  0.00    -0.205 F 
ATOM     15  C   LIG    1       22.883 -20.120   5.610  0.00  0.00    +0.039 A 
ATOM     16  C   LIG    1       23.716 -20.699   6.567  0.00  0.00    +0.006 A 
ATOM     17  C   LIG    1       25.097 -20.670   6.385  0.00  0.00    +0.039 A 
ATOM     18  C   LIG    1       25.635 -20.063   5.251  0.00  0.00    +0.131 A 
ATOM     19  F   LIG    1       26.966 -20.059   5.092  0.00  0.00    -0.205 F 
ENDBRANCH  11  12
ENDBRANCH   4  11
TORSDOF 3
ENDMDL
MODEL 6
REMARK VINA RESULT:      -4.6      3.606      5.159
REMARK  Name = *****
REMARK                            x       y       z     vdW  Elec       q    Type
REMARK                         _______ _______ _______ _____ _____    ______ ____
ROOT
ATOM      1  C   LIG    1       27.470 -20.451   6.078  0.00  0.00    +0.167 A 
ATOM      2  N   LIG    1       26.566 -21.366   6.569  0.00  0.00    -0.125 NA
ATOM      3  N   LIG    1       25.521 -21.396   5.753  0.00  0.00    -0.065 NA
ATOM      4  N   LIG    1       25.749 -20.505   4.769  0.00  0.00    -0.246 N 
ATOM      5  C   LIG    1       26.959 -19.896   4.923  0.00  0.00    +0.143 A 
ENDROOT
BRANCH   1   9
ATOM      6  N   LIG    1       29.467 -21.267   7.062  0.00  0.00    -0.324 N 
ATOM      7  H   LIG    1       29.110 -22.196   6.882  0.00  0.00    +0.145 HD
ATOM      8  H   LIG    1       30.363 -21.143   7.508  0.00  0.00    +0.145 HD
ATOM      9  C   LIG    1       28.743 -20.162   6.713  0.00  0.00    +0.263 C 
ATOM     10  O   LIG    1       29.161 -19.029   6.929  0.00  0.00    -0.269 OA
ENDBRANCH   1   9
BRANCH   4  11
ATOM     11  C   LIG    1       24.790 -20.329   3.694  0.00  0.00    +0.186 C 
BRANCH  11  12
ATOM     12  C   LIG    1       23.808 -19.245   4.014  0.00  0.00    +0.044 A 
ATOM     13  C   LIG    1       22.541 -19.547   4.514  0.00  0.00    +0.131 A 
ATOM     14  F   LIG    1       22.210 -20.825   4.749  0.00  0.00    -0.205 F 
ATOM     15  C   LIG    1       21.605 -18.550   4.781  0.00  0.00    +0.039 A 
ATOM     16  C   LIG    1       21.929 -17.215   4.540  0.00  0.00    +0.006 A 
ATOM     17  C   LIG    1       23.190 -16.892   4.040  0.00  0.00    +0.039 A 
ATOM     18  C   LIG    1       24.113 -17.904   3.782  0.00  0.00    +0.131 A 
ATOM     19  F   LIG    1       25.323 -17.568   3.312  0.00  0.00    -0.205 F 
ENDBRANCH  11  12
ENDBRANCH   4  11
TORSDOF 3
ENDMDL
MODEL 7
REMARK VINA RESULT:      -4.4      1.298      2.615
REMARK  Name = *****
REMARK                            x       y       z     vdW  Elec       q    Type
REMARK                         _______ _______ _______ _____ _____    ______ ____
ROOT
ATOM      1  C   LIG    1       25.479 -15.934   3.597  0.00  0.00    +0.167 A 
ATOM      2  N   LIG    1       24.180 -15.740   4.010  0.00  0.00    -0.125 NA
ATOM      3  N   LIG    1       23.546 -16.903   3.947  0.00  0.00    -0.065 NA
ATOM      4  N   LIG    1       24.420 -17.818   3.488  0.00  0.00    -0.246 N 
ATOM      5  C   LIG    1       25.645 -17.263   3.264  0.00  0.00    +0.143 A 
ENDROOT
BRANCH   1   9
ATOM      6  N   LIG    1       27.711 -15.237   3.994  0.00  0.00    -0.324 N 
ATOM      7  H   LIG    1       27.884 -16.175   4.332  0.00  0.00    +0.145 HD
ATOM      8  H   LIG    1       28.451 -14.552   3.988  0.00  0.00    +0.145 HD
ATOM      9  C   LIG    1       26.471 -14.876   3.546  0.00  0.00    +0.263 C 
ATOM     10  O   LIG    1       26.245 -13.742   3.137  0.00  0.00    -0.269 OA
ENDBRANCH   1   9
BRANCH   4  11
ATOM     11  C   LIG    1       24.028 -19.207   3.339  0.00  0.00    +0.186 C 
BRANCH  11  12
ATOM     12  C   LIG    1       24.213 -19.964   4.618  0.00  0.00    +0.044 A 
ATOM     13  C   LIG    1       23.141 -20.188   5.482  0.00  0.00    +0.131 A 
ATOM     14  F   LIG    1       21.918 -19.755   5.147  0.00  0.00    -0.205 F 
ATOM     15  C   LIG    1       23.308 -20.860   6.692  0.00  0.00    +0.039 A 
ATOM     16  C   LIG    1       24.573 -21.316   7.061  0.00  0.00    +0.006 A 
ATOM     17  C   LIG    1       25.657 -21.100   6.212  0.00  0.00    +0.039 A 
ATOM     18  C   LIG    1       25.469 -20.430   5.004  0.00  0.00    +0.131 A 
ATOM     19  F   LIG    1       26.525 -20.246   4.199  0.00  0.00    -0.205 F 
ENDBRANCH  11  12
ENDBRANCH   4  11
TORSDOF 3
ENDMDL
MODEL 8
REMARK VINA RESULT:      -4.2      3.721      5.078
REMARK  Name = *****
REMARK                            x       y       z     vdW  Elec       q    Type
REMARK                         _______ _______ _______ _____ _____    ______ ____
ROOT
ATOM      1  C   LIG    1       27.145 -20.565   5.995  0.00  0.00    +0.167 A 
ATOM      2  N   LIG    1       26.161 -21.445   6.385  0.00  0.00    -0.125 NA
ATOM      3  N   LIG    1       25.129 -21.304   5.564  0.00  0.00    -0.065 NA
ATOM      4  N   LIG    1       25.445 -20.342   4.677  0.00  0.00    -0.246 N 
ATOM      5  C   LIG    1       26.699 -19.856   4.899  0.00  0.00    +0.143 A 
ENDROOT
BRANCH   1   9
ATOM      6  N   LIG    1       28.871 -19.168   6.828  0.00  0.00    -0.324 N 
ATOM      7  H   LIG    1       28.323 -18.386   6.492  0.00  0.00    +0.145 HD
ATOM      8  H   LIG    1       29.756 -19.012   7.286  0.00  0.00    +0.145 HD
ATOM      9  C   LIG    1       28.428 -20.450   6.664  0.00  0.00    +0.263 C 
ATOM     10  O   LIG    1       29.083 -21.409   7.062  0.00  0.00    -0.269 OA
ENDBRANCH   1   9
BRANCH   4  11
ATOM     11  C   LIG    1       24.520 -19.979   3.619  0.00  0.00    +0.186 C 
BRANCH  11  12
ATOM     12  C   LIG    1       23.883 -18.650   3.886  0.00  0.00    +0.044 A 
ATOM     13  C   LIG    1       24.564 -17.461   3.628  0.00  0.00    +0.131 A 
ATOM     14  F   LIG    1       25.794 -17.504   3.097  0.00  0.00    -0.205 F 
ATOM     15  C   LIG    1       23.995 -16.219   3.907  0.00  0.00    +0.039 A 
ATOM     16  C   LIG    1       22.718 -16.153   4.464  0.00  0.00    +0.006 A 
ATOM     17  C   LIG    1       22.021 -17.331   4.729  0.00  0.00    +0.039 A 
ATOM     18  C   LIG    1       22.606 -18.562   4.440  0.00  0.00    +0.131 A 
ATOM     19  F   LIG    1       21.911 -19.681   4.693  0.00  0.00    -0.205 F 
ENDBRANCH  11  12
ENDBRANCH   4  11
TORSDOF 3
ENDMDL
MODEL 9
REMARK VINA RESULT:      -4.1      1.338      1.603
REMARK  Name = *****
REMARK                            x       y       z     vdW  Elec       q    Type
REMARK                         _______ _______ _______ _____ _____    ______ ____
ROOT
ATOM      1  C   LIG    1       24.480 -15.395   3.968  0.00  0.00    +0.167 A 
ATOM      2  N   LIG    1       23.208 -15.659   4.424  0.00  0.00    -0.125 NA
ATOM      3  N   LIG    1       22.971 -16.954   4.270  0.00  0.00    -0.065 NA
ATOM      4  N   LIG    1       24.066 -17.503   3.711  0.00  0.00    -0.246 N 
ATOM      5  C   LIG    1       25.041 -16.570   3.512  0.00  0.00    +0.143 A 
ENDROOT
BRANCH   1   9
ATOM      6  N   LIG    1       24.306 -13.086   3.458  0.00  0.00    -0.324 N 
ATOM      7  H   LIG    1       23.392 -13.295   3.079  0.00  0.00    +0.145 HD
ATOM      8  H   LIG    1       24.661 -12.141   3.441  0.00  0.00    +0.145 HD
ATOM      9  C   LIG    1       25.083 -14.075   3.992  0.00  0.00    +0.263 C 
ATOM     10  O   LIG    1       26.196 -13.837   4.451  0.00  0.00    -0.269 OA
ENDBRANCH   1   9
BRANCH   4  11
ATOM     11  C   LIG    1       24.126 -18.928   3.445  0.00  0.00    +0.186 C 
BRANCH  11  12
ATOM     12  C   LIG    1       24.217 -19.715   4.716  0.00  0.00    +0.044 A 
ATOM     13  C   LIG    1       25.453 -20.073   5.253  0.00  0.00    +0.131 A 
ATOM     14  F   LIG    1       26.579 -19.676   4.646  0.00  0.00    -0.205 F 
ATOM     15  C   LIG    1       25.549 -20.836   6.416  0.00  0.00    +0.039 A 
ATOM     16  C   LIG    1       24.389 -21.262   7.062  0.00  0.00    +0.006 A 
ATOM     17  C   LIG    1       23.144 -20.915   6.540  0.00  0.00    +0.039 A 
ATOM     18  C   LIG    1       23.069 -20.148   5.378  0.00  0.00    +0.131 A 
ATOM     19  F   LIG    1       21.860 -19.817   4.903  0.00  0.00    -0.205 F 
ENDBRANCH  11  12
ENDBRANCH   4  11
TORSDOF 3
ENDMDL
