MODEL 1
REMARK VINA RESULT:      -2.4      0.000      0.000
REMARK  Name = *****
REMARK                            x       y       z     vdW  Elec       q    Type
REMARK                         _______ _______ _______ _____ _____    ______ ____
ROOT
ATOM      1  C   LIG    1       23.492 -18.515   4.188  0.00  0.00    +0.122 A 
ATOM      2  C   LIG    1       22.488 -17.583   4.499  0.00  0.00    +0.046 A 
ATOM      3  C   LIG    1       22.696 -16.199   4.321  0.00  0.00    +0.015 A 
ATOM      4  C   LIG    1       23.916 -15.729   3.820  0.00  0.00    +0.022 A 
ATOM      5  C   LIG    1       24.900 -16.658   3.485  0.00  0.00    +0.015 A 
ATOM      6  C   LIG    1       24.690 -18.026   3.680  0.00  0.00    +0.046 A 
ENDROOT
BRANCH   4   7
ATOM      7  C   LIG    1       24.234 -14.293   3.588  0.00  0.00    +0.193 C 
ATOM      8  O   LIG    1       23.385 -13.576   3.058  0.00  0.00    -0.287 OA
BRANCH   7   9
ATOM      9  C   LIG    1       25.537 -13.683   3.955  0.00  0.00    +0.022 A 
ATOM     10  C   LIG    1       25.731 -13.272   5.282  0.00  0.00    +0.013 A 
ATOM     11  C   LIG    1       26.947 -12.709   5.677  0.00  0.00    +0.021 A 
ATOM     12  C   LIG    1       27.966 -12.544   4.741  0.00  0.00    +0.041 A 
ATOM     13 CL   LIG    1       29.475 -11.878   5.229  0.00  0.00    -0.084 Cl
ATOM     14  C   LIG    1       27.767 -12.908   3.410  0.00  0.00    +0.021 A 
ATOM     15  C   LIG    1       26.547 -13.463   3.011  0.00  0.00    +0.013 A 
ENDBRANCH   7   9
ENDBRANCH   4   7
BRANCH   1  16
ATOM     16  O   LIG    1       23.199 -19.839   4.379  0.00  0.00    -0.475 OA
BRANCH  16  18
ATOM     17  C   LIG    1       23.205 -19.474   6.854  0.00  0.00    +0.067 C 
ATOM     18  C   LIG    1       23.247 -20.473   5.681  0.00  0.00    +0.200 C 
ATOM     19  C   LIG    1       22.190 -21.570   5.911  0.00  0.00    +0.067 C 
BRANCH  18  20
ATOM     20  C   LIG    1       24.621 -21.189   5.720  0.00  0.00    +0.348 C 
ATOM     21  O   LIG    1       25.253 -21.449   6.756  0.00  0.00    -0.246 OA
BRANCH  20  22
ATOM     22  O   LIG    1       25.137 -21.529   4.520  0.00  0.00    -0.478 OA
ATOM     23  H   LIG    1       26.109 -21.374   4.452  0.00  0.00    +0.295 HD
ENDBRANCH  20  22
ENDBRANCH  18  20
ENDBRANCH  16  18
ENDBRANCH   1  16
TORSDOF 6
ENDMDL
MODEL 2
REMARK VINA RESULT:      -2.0      2.724      7.023
REMARK  Name = *****
REMARK                            x       y       z     vdW  Elec       q    Type
REMARK                         _______ _______ _______ _____ _____    ______ ____
ROOT
ATOM      1  C   LIG    1       23.454 -15.216   3.680  0.00  0.00    +0.122 A 
ATOM      2  C   LIG    1       22.429 -15.792   4.448  0.00  0.00    +0.046 A 
ATOM      3  C   LIG    1       22.474 -17.152   4.822  0.00  0.00    +0.015 A 
ATOM      4  C   LIG    1       23.554 -17.954   4.435  0.00  0.00    +0.022 A 
ATOM      5  C   LIG    1       24.584 -17.372   3.698  0.00  0.00    +0.015 A 
ATOM      6  C   LIG    1       24.523 -16.028   3.318  0.00  0.00    +0.046 A 
ENDROOT
BRANCH   4   7
ATOM      7  C   LIG    1       23.700 -19.395   4.783  0.00  0.00    +0.193 C 
ATOM      8  O   LIG    1       22.746 -20.149   4.595  0.00  0.00    -0.287 OA
BRANCH   7   9
ATOM      9  C   LIG    1       24.943 -19.965   5.362  0.00  0.00    +0.022 A 
ATOM     10  C   LIG    1       26.170 -19.616   4.780  0.00  0.00    +0.013 A 
ATOM     11  C   LIG    1       27.366 -20.115   5.302  0.00  0.00    +0.021 A 
ATOM     12  C   LIG    1       27.335 -20.975   6.397  0.00  0.00    +0.041 A 
ATOM     13 CL   LIG    1       28.806 -21.569   7.061  0.00  0.00    -0.084 Cl
ATOM     14  C   LIG    1       26.117 -21.365   6.954  0.00  0.00    +0.021 A 
ATOM     15  C   LIG    1       24.918 -20.873   6.427  0.00  0.00    +0.013 A 
ENDBRANCH   7   9
ENDBRANCH   4   7
BRANCH   1  16
ATOM     16  O   LIG    1       23.336 -13.886   3.374  0.00  0.00    -0.475 OA
BRANCH  16  18
ATOM     17  C   LIG    1       25.779 -13.701   2.874  0.00  0.00    +0.067 C 
ATOM     18  C   LIG    1       24.476 -12.996   3.295  0.00  0.00    +0.200 C 
ATOM     19  C   LIG    1       24.267 -11.748   2.414  0.00  0.00    +0.067 C 
BRANCH  18  20
ATOM     20  C   LIG    1       24.667 -12.471   4.740  0.00  0.00    +0.348 C 
ATOM     21  O   LIG    1       23.922 -11.648   5.296  0.00  0.00    -0.246 OA
BRANCH  20  22
ATOM     22  O   LIG    1       25.735 -12.960   5.403  0.00  0.00    -0.478 OA
ATOM     23  H   LIG    1       26.330 -13.510   4.840  0.00  0.00    +0.295 HD
ENDBRANCH  20  22
ENDBRANCH  18  20
ENDBRANCH  16  18
ENDBRANCH   1  16
TORSDOF 6
ENDMDL
MODEL 3
REMARK VINA RESULT:      -1.5      3.547      7.904
REMARK  Name = *****
REMARK                            x       y       z     vdW  Elec       q    Type
REMARK                         _______ _______ _______ _____ _____    ______ ____
ROOT
ATOM      1  C   LIG    1       27.466 -15.863   3.689  0.00  0.00    +0.122 A 
ATOM      2  C   LIG    1       28.360 -16.630   4.455  0.00  0.00    +0.046 A 
ATOM      3  C   LIG    1       28.034 -17.942   4.859  0.00  0.00    +0.015 A 
ATOM      4  C   LIG    1       26.806 -18.507   4.495  0.00  0.00    +0.022 A 
ATOM      5  C   LIG    1       25.934 -17.754   3.710  0.00  0.00    +0.015 A 
ATOM      6  C   LIG    1       26.259 -16.450   3.328  0.00  0.00    +0.046 A 
ENDROOT
BRANCH   4   7
ATOM      7  C   LIG    1       26.370 -19.883   4.864  0.00  0.00    +0.193 C 
ATOM      8  O   LIG    1       27.223 -20.706   5.196  0.00  0.00    -0.287 OA
BRANCH   7   9
ATOM      9  C   LIG    1       24.950 -20.315   4.837  0.00  0.00    +0.022 A 
ATOM     10  C   LIG    1       24.311 -20.582   6.057  0.00  0.00    +0.013 A 
ATOM     11  C   LIG    1       22.971 -20.975   6.081  0.00  0.00    +0.021 A 
ATOM     12  C   LIG    1       22.272 -21.116   4.884  0.00  0.00    +0.041 A 
ATOM     13 CL   LIG    1       20.614 -21.571   4.910  0.00  0.00    -0.084 Cl
ATOM     14  C   LIG    1       22.911 -20.897   3.664  0.00  0.00    +0.021 A 
ATOM     15  C   LIG    1       24.255 -20.512   3.638  0.00  0.00    +0.013 A 
ENDBRANCH   7   9
ENDBRANCH   4   7
BRANCH   1  16
ATOM     16  O   LIG    1       27.870 -14.605   3.329  0.00  0.00    -0.475 OA
BRANCH  16  18
ATOM     17  C   LIG    1       27.080 -13.661   5.506  0.00  0.00    +0.067 C 
ATOM     18  C   LIG    1       27.436 -13.413   4.028  0.00  0.00    +0.200 C 
ATOM     19  C   LIG    1       28.402 -12.215   3.933  0.00  0.00    +0.067 C 
BRANCH  18  20
ATOM     20  C   LIG    1       26.142 -12.976   3.297  0.00  0.00    +0.348 C 
ATOM     21  O   LIG    1       24.991 -13.166   3.723  0.00  0.00    -0.246 OA
BRANCH  20  22
ATOM     22  O   LIG    1       26.320 -12.358   2.111  0.00  0.00    -0.478 OA
ATOM     23  H   LIG    1       27.224 -11.978   1.997  0.00  0.00    +0.295 HD
ENDBRANCH  20  22
ENDBRANCH  18  20
ENDBRANCH  16  18
ENDBRANCH   1  16
TORSDOF 6
ENDMDL
MODEL 4
REMARK VINA RESULT:      -1.3      3.971      8.063
REMARK  Name = *****
REMARK                            x       y       z     vdW  Elec       q    Type
REMARK                         _______ _______ _______ _____ _____    ______ ____
ROOT
ATOM      1  C   LIG    1       27.855 -15.885   3.931  0.00  0.00    +0.122 A 
ATOM      2  C   LIG    1       26.606 -16.303   3.441  0.00  0.00    +0.046 A 
ATOM      3  C   LIG    1       26.111 -17.596   3.712  0.00  0.00    +0.015 A 
ATOM      4  C   LIG    1       26.862 -18.489   4.485  0.00  0.00    +0.022 A 
ATOM      5  C   LIG    1       28.087 -18.062   4.994  0.00  0.00    +0.015 A 
ATOM      6  C   LIG    1       28.576 -16.785   4.707  0.00  0.00    +0.046 A 
ENDROOT
BRANCH   4   7
ATOM      7  C   LIG    1       26.428 -19.871   4.833  0.00  0.00    +0.193 C 
ATOM      8  O   LIG    1       27.288 -20.720   5.069  0.00  0.00    -0.287 OA
BRANCH   7   9
ATOM      9  C   LIG    1       25.002 -20.279   4.897  0.00  0.00    +0.022 A 
ATOM     10  C   LIG    1       24.246 -20.246   3.716  0.00  0.00    +0.013 A 
ATOM     11  C   LIG    1       22.905 -20.637   3.725  0.00  0.00    +0.021 A 
ATOM     12  C   LIG    1       22.315 -21.048   4.918  0.00  0.00    +0.041 A 
ATOM     13 CL   LIG    1       20.672 -21.559   4.929  0.00  0.00    -0.084 Cl
ATOM     14  C   LIG    1       23.046 -21.042   6.106  0.00  0.00    +0.021 A 
ATOM     15  C   LIG    1       24.385 -20.642   6.100  0.00  0.00    +0.013 A 
ENDBRANCH   7   9
ENDBRANCH   4   7
BRANCH   1  16
ATOM     16  O   LIG    1       28.250 -14.608   3.631  0.00  0.00    -0.475 OA
BRANCH  16  18
ATOM     17  C   LIG    1       26.610 -12.831   2.994  0.00  0.00    +0.067 C 
ATOM     18  C   LIG    1       27.524 -13.437   4.076  0.00  0.00    +0.200 C 
ATOM     19  C   LIG    1       26.714 -13.628   5.374  0.00  0.00    +0.067 C 
BRANCH  18  20
ATOM     20  C   LIG    1       28.621 -12.395   4.407  0.00  0.00    +0.348 C 
ATOM     21  O   LIG    1       29.287 -11.778   3.560  0.00  0.00    -0.246 OA
BRANCH  20  22
ATOM     22  O   LIG    1       28.846 -12.179   5.720  0.00  0.00    -0.478 OA
ATOM     23  H   LIG    1       28.082 -12.421   6.295  0.00  0.00    +0.295 HD
ENDBRANCH  20  22
ENDBRANCH  18  20
ENDBRANCH  16  18
ENDBRANCH   1  16
TORSDOF 6
ENDMDL
