MODEL 1
REMARK VINA RESULT:      -8.2      0.000      0.000
REMARK  Name = *****
REMARK                            x       y       z     vdW  Elec       q    Type
REMARK                         _______ _______ _______ _____ _____    ______ ____
ROOT
ATOM      1  C   LIG    1       25.965 -30.382   9.889  0.00  0.00    +0.133 C 
ATOM      2  C   LIG    1       24.490 -29.903  10.287  0.00  0.00    +0.012 C 
ATOM      3  C   LIG    1       23.373 -30.600   9.451  0.00  0.00    +0.011 C 
ATOM      4  C   LIG    1       22.822 -31.875  10.148  0.00  0.00    +0.089 C 
ATOM      5  N   LIG    1       22.335 -31.683  11.537  0.00  0.00    -0.293 NA
ATOM      6  C   LIG    1       22.498 -30.282  12.011  0.00  0.00    +0.104 C 
ATOM      7  C   LIG    1       21.665 -30.034  13.302  0.00  0.00    +0.038 C 
ATOM      8  C   LIG    1       20.521 -30.775  13.619  0.00  0.00    -0.016 C 
ATOM      9  C   LIG    1       19.508 -29.858  14.048  0.00  0.00    +0.003 C 
ATOM     10  C   LIG    1       20.147 -28.635  14.241  0.00  0.00    +0.051 C 
ATOM     11  C   LIG    1       19.423 -27.444  14.494  0.00  0.00    +0.072 C 
ATOM     12  C   LIG    1       18.018 -27.492  14.424  0.00  0.00    +0.122 C 
ATOM     13  C   LIG    1       17.368 -28.714  14.260  0.00  0.00    +0.046 C 
ATOM     14  C   LIG    1       18.095 -29.908  14.131  0.00  0.00    +0.014 C 
ATOM     15  C   LIG    1       20.360 -32.156  13.107  0.00  0.00    +0.053 C 
ATOM     16  N   LIG    1       21.512 -28.866  14.034  0.00  0.00    -0.356 NA
ATOM     17  H   LIG    1       22.223 -28.166  14.183  0.00  0.00    +0.166 HD
ATOM     18  C   LIG    1       20.961 -32.242  11.689  0.00  0.00    +0.090 C 
ATOM     19  C   LIG    1       23.653 -30.801   7.949  0.00  0.00    +0.052 C 
ATOM     20  C   LIG    1       24.992 -30.244   7.496  0.00  0.00    +0.206 C 
ATOM     21  C   LIG    1       24.025 -29.899  11.839  0.00  0.00    +0.030 C 
ATOM     22  C   LIG    1       26.143 -30.779   8.378  0.00  0.00    +0.172 C 
ENDROOT
BRANCH   1  23
ATOM     23  C   LIG    1       27.112 -29.386  10.145  0.00  0.00    +0.313 C 
ATOM     24  O   LIG    1       27.045 -28.189   9.886  0.00  0.00    -0.250 OA
BRANCH  23  26
ATOM     25  C   LIG    1       28.614 -29.416  12.014  0.00  0.00    +0.280 C 
ATOM     26  O   LIG    1       28.171 -29.958  10.759  0.00  0.00    -0.468 OA
ENDBRANCH  23  26
ENDBRANCH   1  23
BRANCH  12  27
ATOM     27  O   LIG    1       17.182 -26.406  14.357  0.00  0.00    -0.495 OA
ATOM     28  C   LIG    1       15.818 -26.609  14.016  0.00  0.00    +0.277 C 
ENDBRANCH  12  27
BRANCH  22  29
ATOM     29  O   LIG    1       26.293 -32.206   8.215  0.00  0.00    -0.375 OA
ATOM     30  C   LIG    1       26.832 -32.560   6.934  0.00  0.00    +0.194 C 
ENDBRANCH  22  29
BRANCH  20  31
ATOM     31  O   LIG    1       24.923 -28.798   7.607  0.00  0.00    -0.456 OA
BRANCH  31  32
ATOM     32  C   LIG    1       24.720 -28.150   6.430  0.00  0.00    +0.332 C 
ATOM     33  O   LIG    1       23.757 -28.283   5.760  0.00  0.00    -0.246 OA
BRANCH  32  34
ATOM     34  C   LIG    1       26.004 -27.439   6.068  0.00  0.00    +0.092 C 
ATOM     35  C   LIG    1       26.350 -26.151   6.030  0.00  0.00    +0.015 C 
BRANCH  35  36
ATOM     36  C   LIG    1       25.657 -24.971   6.538  0.00  0.00    -0.018 A 
ATOM     37  C   LIG    1       26.319 -23.889   7.092  0.00  0.00    +0.057 A 
ATOM     38  C   LIG    1       25.686 -22.761   7.589  0.00  0.00    +0.166 A 
ATOM     39  C   LIG    1       24.326 -22.584   7.400  0.00  0.00    +0.203 A 
ATOM     40  C   LIG    1       23.619 -23.696   6.854  0.00  0.00    +0.166 A 
ATOM     41  C   LIG    1       24.282 -24.867   6.435  0.00  0.00    +0.057 A 
BRANCH  38  42
ATOM     42  O   LIG    1       26.393 -21.814   8.258  0.00  0.00    -0.491 OA
ATOM     43  C   LIG    1       27.705 -21.515   7.823  0.00  0.00    +0.277 C 
ENDBRANCH  38  42
BRANCH  39  44
ATOM     44  O   LIG    1       23.688 -21.444   7.836  0.00  0.00    -0.488 OA
ATOM     45  C   LIG    1       23.467 -20.321   6.961  0.00  0.00    +0.277 C 
ENDBRANCH  39  44
BRANCH  40  46
ATOM     46  O   LIG    1       22.272 -23.869   6.663  0.00  0.00    -0.491 OA
ATOM     47  C   LIG    1       21.650 -22.859   5.910  0.00  0.00    +0.277 C 
ENDBRANCH  40  46
ENDBRANCH  35  36
ENDBRANCH  32  34
ENDBRANCH  31  32
ENDBRANCH  20  31
TORSDOF 11
ENDMDL
MODEL 2
REMARK VINA RESULT:      -8.1      0.466      1.840
REMARK  Name = *****
REMARK                            x       y       z     vdW  Elec       q    Type
REMARK                         _______ _______ _______ _____ _____    ______ ____
ROOT
ATOM      1  C   LIG    1       25.954 -30.407   9.869  0.00  0.00    +0.133 C 
ATOM      2  C   LIG    1       24.485 -29.915  10.271  0.00  0.00    +0.012 C 
ATOM      3  C   LIG    1       23.356 -30.641   9.477  0.00  0.00    +0.011 C 
ATOM      4  C   LIG    1       22.817 -31.892  10.225  0.00  0.00    +0.089 C 
ATOM      5  N   LIG    1       22.351 -31.654  11.613  0.00  0.00    -0.293 NA
ATOM      6  C   LIG    1       22.518 -30.236  12.037  0.00  0.00    +0.104 C 
ATOM      7  C   LIG    1       21.704 -29.944  13.330  0.00  0.00    +0.038 C 
ATOM      8  C   LIG    1       20.566 -30.676  13.690  0.00  0.00    -0.016 C 
ATOM      9  C   LIG    1       19.558 -29.745  14.101  0.00  0.00    +0.003 C 
ATOM     10  C   LIG    1       20.198 -28.516  14.243  0.00  0.00    +0.051 C 
ATOM     11  C   LIG    1       19.476 -27.317  14.465  0.00  0.00    +0.072 C 
ATOM     12  C   LIG    1       18.070 -27.369  14.418  0.00  0.00    +0.122 C 
ATOM     13  C   LIG    1       17.420 -28.597  14.306  0.00  0.00    +0.046 C 
ATOM     14  C   LIG    1       18.146 -29.793  14.207  0.00  0.00    +0.014 C 
ATOM     15  C   LIG    1       20.399 -32.074  13.228  0.00  0.00    +0.053 C 
ATOM     16  N   LIG    1       21.561 -28.752  14.024  0.00  0.00    -0.356 NA
ATOM     17  H   LIG    1       22.273 -28.047  14.138  0.00  0.00    +0.166 HD
ATOM     18  C   LIG    1       20.979 -32.208  11.805  0.00  0.00    +0.090 C 
ATOM     19  C   LIG    1       23.614 -30.894   7.978  0.00  0.00    +0.052 C 
ATOM     20  C   LIG    1       24.945 -30.352   7.487  0.00  0.00    +0.206 C 
ATOM     21  C   LIG    1       24.042 -29.858  11.829  0.00  0.00    +0.030 C 
ATOM     22  C   LIG    1       26.110 -30.855   8.370  0.00  0.00    +0.172 C 
ENDROOT
BRANCH   1  23
ATOM     23  C   LIG    1       27.103 -29.401  10.073  0.00  0.00    +0.313 C 
ATOM     24  O   LIG    1       27.044 -28.221   9.741  0.00  0.00    -0.250 OA
BRANCH  23  26
ATOM     25  C   LIG    1       28.482 -29.433  12.034  0.00  0.00    +0.280 C 
ATOM     26  O   LIG    1       28.154 -29.939  10.730  0.00  0.00    -0.468 OA
ENDBRANCH  23  26
ENDBRANCH   1  23
BRANCH  12  27
ATOM     27  O   LIG    1       17.231 -26.287  14.326  0.00  0.00    -0.495 OA
ATOM     28  C   LIG    1       16.100 -26.220  15.181  0.00  0.00    +0.277 C 
ENDBRANCH  12  27
BRANCH  22  29
ATOM     29  O   LIG    1       26.259 -32.287   8.253  0.00  0.00    -0.375 OA
ATOM     30  C   LIG    1       26.274 -32.945   9.527  0.00  0.00    +0.194 C 
ENDBRANCH  22  29
BRANCH  20  31
ATOM     31  O   LIG    1       24.876 -28.903   7.549  0.00  0.00    -0.456 OA
BRANCH  31  32
ATOM     32  C   LIG    1       24.676 -28.295   6.350  0.00  0.00    +0.332 C 
ATOM     33  O   LIG    1       23.714 -28.450   5.683  0.00  0.00    -0.246 OA
BRANCH  32  34
ATOM     34  C   LIG    1       25.962 -27.598   5.967  0.00  0.00    +0.092 C 
ATOM     35  C   LIG    1       26.311 -26.313   5.894  0.00  0.00    +0.015 C 
BRANCH  35  36
ATOM     36  C   LIG    1       25.623 -25.117   6.371  0.00  0.00    -0.018 A 
ATOM     37  C   LIG    1       24.247 -24.978   6.340  0.00  0.00    +0.057 A 
ATOM     38  C   LIG    1       23.569 -23.851   6.778  0.00  0.00    +0.166 A 
ATOM     39  C   LIG    1       24.247 -22.843   7.442  0.00  0.00    +0.203 A 
ATOM     40  C   LIG    1       25.668 -22.953   7.463  0.00  0.00    +0.166 A 
ATOM     41  C   LIG    1       26.337 -24.075   6.932  0.00  0.00    +0.057 A 
BRANCH  38  42
ATOM     42  O   LIG    1       22.233 -23.728   6.570  0.00  0.00    -0.491 OA
ATOM     43  C   LIG    1       21.768 -22.664   5.763  0.00  0.00    +0.277 C 
ENDBRANCH  38  42
BRANCH  39  44
ATOM     44  O   LIG    1       23.583 -21.742   7.936  0.00  0.00    -0.488 OA
ATOM     45  C   LIG    1       23.698 -20.448   7.313  0.00  0.00    +0.277 C 
ENDBRANCH  39  44
BRANCH  40  46
ATOM     46  O   LIG    1       26.608 -22.070   7.930  0.00  0.00    -0.491 OA
ATOM     47  C   LIG    1       27.309 -21.373   6.932  0.00  0.00    +0.277 C 
ENDBRANCH  40  46
ENDBRANCH  35  36
ENDBRANCH  32  34
ENDBRANCH  31  32
ENDBRANCH  20  31
TORSDOF 11
ENDMDL
MODEL 3
REMARK VINA RESULT:      -7.7      1.092      1.411
REMARK  Name = *****
REMARK                            x       y       z     vdW  Elec       q    Type
REMARK                         _______ _______ _______ _____ _____    ______ ____
ROOT
ATOM      1  C   LIG    1       25.981 -30.222   9.876  0.00  0.00    +0.133 C 
ATOM      2  C   LIG    1       24.449 -29.921  10.232  0.00  0.00    +0.012 C 
ATOM      3  C   LIG    1       23.449 -30.522   9.198  0.00  0.00    +0.011 C 
ATOM      4  C   LIG    1       22.954 -31.937   9.607  0.00  0.00    +0.089 C 
ATOM      5  N   LIG    1       22.361 -32.038  10.963  0.00  0.00    -0.293 NA
ATOM      6  C   LIG    1       22.380 -30.740  11.693  0.00  0.00    +0.104 C 
ATOM      7  C   LIG    1       21.444 -30.790  12.936  0.00  0.00    +0.038 C 
ATOM      8  C   LIG    1       20.344 -31.650  13.021  0.00  0.00    -0.016 C 
ATOM      9  C   LIG    1       19.235 -30.896  13.523  0.00  0.00    +0.003 C 
ATOM     10  C   LIG    1       19.761 -29.691  13.985  0.00  0.00    +0.051 C 
ATOM     11  C   LIG    1       18.930 -28.616  14.387  0.00  0.00    +0.072 C 
ATOM     12  C   LIG    1       17.541 -28.741  14.196  0.00  0.00    +0.122 C 
ATOM     13  C   LIG    1       17.002 -29.952  13.764  0.00  0.00    +0.046 C 
ATOM     14  C   LIG    1       17.828 -31.051  13.481  0.00  0.00    +0.014 C 
ATOM     15  C   LIG    1       20.326 -32.920  12.258  0.00  0.00    +0.053 C 
ATOM     16  N   LIG    1       21.151 -29.790  13.850  0.00  0.00    -0.356 NA
ATOM     17  H   LIG    1       21.793 -29.085  14.180  0.00  0.00    +0.166 HD
ATOM     18  C   LIG    1       21.027 -32.703  10.901  0.00  0.00    +0.090 C 
ATOM     19  C   LIG    1       23.845 -30.424   7.711  0.00  0.00    +0.052 C 
ATOM     20  C   LIG    1       25.164 -29.707   7.476  0.00  0.00    +0.206 C 
ATOM     21  C   LIG    1       23.881 -30.234  11.717  0.00  0.00    +0.030 C 
ATOM     22  C   LIG    1       26.291 -30.320   8.338  0.00  0.00    +0.172 C 
ENDROOT
BRANCH   1  23
ATOM     23  C   LIG    1       27.025 -29.217  10.399  0.00  0.00    +0.313 C 
ATOM     24  O   LIG    1       26.810 -28.017  10.532  0.00  0.00    -0.250 OA
BRANCH  23  26
ATOM     25  C   LIG    1       28.699 -29.549  12.084  0.00  0.00    +0.280 C 
ATOM     26  O   LIG    1       28.180 -29.814  10.770  0.00  0.00    -0.468 OA
ENDBRANCH  23  26
ENDBRANCH   1  23
BRANCH  12  27
ATOM     27  O   LIG    1       16.629 -27.719  14.257  0.00  0.00    -0.495 OA
ATOM     28  C   LIG    1       17.099 -26.380  14.308  0.00  0.00    +0.277 C 
ENDBRANCH  12  27
BRANCH  22  29
ATOM     29  O   LIG    1       26.563 -31.679   7.934  0.00  0.00    -0.375 OA
ATOM     30  C   LIG    1       26.683 -32.572   9.049  0.00  0.00    +0.194 C 
ENDBRANCH  22  29
BRANCH  20  31
ATOM     31  O   LIG    1       24.974 -28.314   7.838  0.00  0.00    -0.456 OA
BRANCH  31  32
ATOM     32  C   LIG    1       25.628 -27.428   7.042  0.00  0.00    +0.332 C 
ATOM     33  O   LIG    1       26.723 -27.040   7.246  0.00  0.00    -0.246 OA
BRANCH  32  34
ATOM     34  C   LIG    1       24.637 -26.904   6.026  0.00  0.00    +0.092 C 
ATOM     35  C   LIG    1       24.132 -25.692   5.793  0.00  0.00    +0.015 C 
BRANCH  35  36
ATOM     36  C   LIG    1       24.528 -24.386   6.312  0.00  0.00    -0.018 A 
ATOM     37  C   LIG    1       25.837 -24.065   6.625  0.00  0.00    +0.057 A 
ATOM     38  C   LIG    1       26.239 -22.838   7.127  0.00  0.00    +0.166 A 
ATOM     39  C   LIG    1       25.345 -21.782   7.186  0.00  0.00    +0.203 A 
ATOM     40  C   LIG    1       23.985 -22.095   6.892  0.00  0.00    +0.166 A 
ATOM     41  C   LIG    1       23.592 -23.380   6.465  0.00  0.00    +0.057 A 
BRANCH  38  42
ATOM     42  O   LIG    1       27.513 -22.654   7.556  0.00  0.00    -0.491 OA
ATOM     43  C   LIG    1       28.299 -21.653   6.938  0.00  0.00    +0.277 C 
ENDBRANCH  38  42
BRANCH  39  44
ATOM     44  O   LIG    1       25.738 -20.538   7.628  0.00  0.00    -0.488 OA
ATOM     45  C   LIG    1       25.896 -20.250   9.030  0.00  0.00    +0.277 C 
ENDBRANCH  39  44
BRANCH  40  46
ATOM     46  O   LIG    1       22.866 -21.307   6.979  0.00  0.00    -0.491 OA
ATOM     47  C   LIG    1       22.745 -20.343   5.965  0.00  0.00    +0.277 C 
ENDBRANCH  40  46
ENDBRANCH  35  36
ENDBRANCH  32  34
ENDBRANCH  31  32
ENDBRANCH  20  31
TORSDOF 11
ENDMDL
MODEL 4
REMARK VINA RESULT:      -6.1      2.530      8.937
REMARK  Name = *****
REMARK                            x       y       z     vdW  Elec       q    Type
REMARK                         _______ _______ _______ _____ _____    ______ ____
ROOT
ATOM      1  C   LIG    1       24.024 -31.736   9.285  0.00  0.00    +0.133 C 
ATOM      2  C   LIG    1       24.105 -30.140   9.188  0.00  0.00    +0.012 C 
ATOM      3  C   LIG    1       25.395 -29.551   9.836  0.00  0.00    +0.011 C 
ATOM      4  C   LIG    1       26.545 -29.372   8.807  0.00  0.00    +0.089 C 
ATOM      5  N   LIG    1       26.205 -28.575   7.603  0.00  0.00    -0.293 NA
ATOM      6  C   LIG    1       24.789 -28.114   7.603  0.00  0.00    +0.104 C 
ATOM      7  C   LIG    1       24.569 -27.001   6.538  0.00  0.00    +0.038 C 
ATOM      8  C   LIG    1       25.599 -26.168   6.089  0.00  0.00    -0.016 C 
ATOM      9  C   LIG    1       25.101 -24.825   6.070  0.00  0.00    +0.003 C 
ATOM     10  C   LIG    1       23.721 -24.920   6.237  0.00  0.00    +0.051 C 
ATOM     11  C   LIG    1       22.912 -23.776   6.450  0.00  0.00    +0.072 C 
ATOM     12  C   LIG    1       23.549 -22.532   6.614  0.00  0.00    +0.122 C 
ATOM     13  C   LIG    1       24.925 -22.421   6.420  0.00  0.00    +0.046 C 
ATOM     14  C   LIG    1       25.701 -23.543   6.090  0.00  0.00    +0.014 C 
ATOM     15  C   LIG    1       27.006 -26.629   6.131  0.00  0.00    +0.053 C 
ATOM     16  N   LIG    1       23.417 -26.287   6.245  0.00  0.00    -0.356 NA
ATOM     17  H   LIG    1       22.476 -26.647   6.277  0.00  0.00    +0.166 HD
ATOM     18  C   LIG    1       27.215 -27.499   7.388  0.00  0.00    +0.090 C 
ATOM     19  C   LIG    1       25.859 -30.188  11.161  0.00  0.00    +0.052 C 
ATOM     20  C   LIG    1       24.946 -31.295  11.661  0.00  0.00    +0.206 C 
ATOM     21  C   LIG    1       23.875 -29.397   7.767  0.00  0.00    +0.030 C 
ATOM     22  C   LIG    1       24.702 -32.354  10.562  0.00  0.00    +0.172 C 
ENDROOT
BRANCH   1  23
ATOM     23  C   LIG    1       22.616 -32.362   9.278  0.00  0.00    +0.313 C 
ATOM     24  O   LIG    1       22.402 -33.558   9.111  0.00  0.00    -0.250 OA
BRANCH  23  26
ATOM     25  C   LIG    1       20.593 -31.842  10.455  0.00  0.00    +0.280 C 
ATOM     26  O   LIG    1       21.646 -31.462   9.553  0.00  0.00    -0.468 OA
ENDBRANCH  23  26
ENDBRANCH   1  23
BRANCH  12  27
ATOM     27  O   LIG    1       22.964 -21.391   7.102  0.00  0.00    -0.495 OA
ATOM     28  C   LIG    1       22.987 -20.214   6.308  0.00  0.00    +0.277 C 
ENDBRANCH  12  27
BRANCH  22  29
ATOM     29  O   LIG    1       25.928 -33.043  10.235  0.00  0.00    -0.375 OA
ATOM     30  C   LIG    1       26.136 -33.157   8.821  0.00  0.00    +0.194 C 
ENDBRANCH  22  29
BRANCH  20  31
ATOM     31  O   LIG    1       23.684 -30.682  12.037  0.00  0.00    -0.456 OA
BRANCH  31  32
ATOM     32  C   LIG    1       23.736 -29.931  13.169  0.00  0.00    +0.332 C 
ATOM     33  O   LIG    1       23.930 -30.372  14.246  0.00  0.00    -0.246 OA
BRANCH  32  34
ATOM     34  C   LIG    1       23.294 -28.530  12.812  0.00  0.00    +0.092 C 
ATOM     35  C   LIG    1       22.109 -27.918  12.830  0.00  0.00    +0.015 C 
BRANCH  35  36
ATOM     36  C   LIG    1       20.838 -28.336  13.413  0.00  0.00    -0.018 A 
ATOM     37  C   LIG    1       19.897 -27.441  13.889  0.00  0.00    +0.057 A 
ATOM     38  C   LIG    1       18.687 -27.811  14.455  0.00  0.00    +0.166 A 
ATOM     39  C   LIG    1       18.277 -29.133  14.421  0.00  0.00    +0.203 A 
ATOM     40  C   LIG    1       19.240 -30.076  13.959  0.00  0.00    +0.166 A 
ATOM     41  C   LIG    1       20.499 -29.675  13.467  0.00  0.00    +0.057 A 
BRANCH  38  42
ATOM     42  O   LIG    1       17.888 -26.882  15.039  0.00  0.00    -0.491 OA
ATOM     43  C   LIG    1       16.914 -26.231  14.247  0.00  0.00    +0.277 C 
ENDBRANCH  38  42
BRANCH  39  44
ATOM     44  O   LIG    1       17.053 -29.512  14.927  0.00  0.00    -0.488 OA
ATOM     45  C   LIG    1       15.965 -29.895  14.064  0.00  0.00    +0.277 C 
ENDBRANCH  39  44
BRANCH  40  46
ATOM     46  O   LIG    1       19.177 -31.446  13.921  0.00  0.00    -0.491 OA
ATOM     47  C   LIG    1       20.397 -32.099  14.161  0.00  0.00    +0.277 C 
ENDBRANCH  40  46
ENDBRANCH  35  36
ENDBRANCH  32  34
ENDBRANCH  31  32
ENDBRANCH  20  31
TORSDOF 11
ENDMDL
MODEL 5
REMARK VINA RESULT:      -6.1      2.563      8.925
REMARK  Name = *****
REMARK                            x       y       z     vdW  Elec       q    Type
REMARK                         _______ _______ _______ _____ _____    ______ ____
ROOT
ATOM      1  C   LIG    1       24.090 -31.918   9.128  0.00  0.00    +0.133 C 
ATOM      2  C   LIG    1       24.140 -30.319   9.072  0.00  0.00    +0.012 C 
ATOM      3  C   LIG    1       25.388 -29.720   9.789  0.00  0.00    +0.011 C 
ATOM      4  C   LIG    1       26.577 -29.492   8.814  0.00  0.00    +0.089 C 
ATOM      5  N   LIG    1       26.270 -28.672   7.615  0.00  0.00    -0.293 NA
ATOM      6  C   LIG    1       24.846 -28.241   7.567  0.00  0.00    +0.104 C 
ATOM      7  C   LIG    1       24.646 -27.107   6.520  0.00  0.00    +0.038 C 
ATOM      8  C   LIG    1       25.676 -26.241   6.135  0.00  0.00    -0.016 C 
ATOM      9  C   LIG    1       25.150 -24.909   6.126  0.00  0.00    +0.003 C 
ATOM     10  C   LIG    1       23.766 -25.037   6.233  0.00  0.00    +0.051 C 
ATOM     11  C   LIG    1       22.925 -23.915   6.438  0.00  0.00    +0.072 C 
ATOM     12  C   LIG    1       23.528 -22.663   6.659  0.00  0.00    +0.122 C 
ATOM     13  C   LIG    1       24.907 -22.518   6.526  0.00  0.00    +0.046 C 
ATOM     14  C   LIG    1       25.721 -23.615   6.203  0.00  0.00    +0.014 C 
ATOM     15  C   LIG    1       27.090 -26.675   6.225  0.00  0.00    +0.053 C 
ATOM     16  N   LIG    1       23.492 -26.409   6.196  0.00  0.00    -0.356 NA
ATOM     17  H   LIG    1       22.558 -26.789   6.179  0.00  0.00    +0.166 HD
ATOM     18  C   LIG    1       27.264 -27.570   7.469  0.00  0.00    +0.090 C 
ATOM     19  C   LIG    1       25.811 -30.379  11.116  0.00  0.00    +0.052 C 
ATOM     20  C   LIG    1       24.902 -31.516  11.551  0.00  0.00    +0.206 C 
ATOM     21  C   LIG    1       23.953 -29.546   7.661  0.00  0.00    +0.030 C 
ATOM     22  C   LIG    1       24.727 -32.553  10.417  0.00  0.00    +0.172 C 
ENDROOT
BRANCH   1  23
ATOM     23  C   LIG    1       22.697 -32.572   9.046  0.00  0.00    +0.313 C 
ATOM     24  O   LIG    1       22.508 -33.732   8.693  0.00  0.00    -0.250 OA
BRANCH  23  26
ATOM     25  C   LIG    1       20.699 -32.299  10.345  0.00  0.00    +0.280 C 
ATOM     26  O   LIG    1       21.713 -31.756   9.482  0.00  0.00    -0.468 OA
ENDBRANCH  23  26
ENDBRANCH   1  23
BRANCH  12  27
ATOM     27  O   LIG    1       22.898 -21.546   7.149  0.00  0.00    -0.495 OA
ATOM     28  C   LIG    1       23.147 -20.292   6.533  0.00  0.00    +0.277 C 
ENDBRANCH  12  27
BRANCH  22  29
ATOM     29  O   LIG    1       25.980 -33.208  10.126  0.00  0.00    -0.375 OA
ATOM     30  C   LIG    1       26.248 -33.286   8.720  0.00  0.00    +0.194 C 
ENDBRANCH  22  29
BRANCH  20  31
ATOM     31  O   LIG    1       23.613 -30.940  11.888  0.00  0.00    -0.456 OA
BRANCH  31  32
ATOM     32  C   LIG    1       23.591 -30.247  13.057  0.00  0.00    +0.332 C 
ATOM     33  O   LIG    1       23.684 -30.746  14.122  0.00  0.00    -0.246 OA
BRANCH  32  34
ATOM     34  C   LIG    1       23.220 -28.816  12.738  0.00  0.00    +0.092 C 
ATOM     35  C   LIG    1       22.058 -28.161  12.723  0.00  0.00    +0.015 C 
BRANCH  35  36
ATOM     36  C   LIG    1       20.745 -28.554  13.225  0.00  0.00    -0.018 A 
ATOM     37  C   LIG    1       20.239 -29.834  13.089  0.00  0.00    +0.057 A 
ATOM     38  C   LIG    1       18.993 -30.232  13.548  0.00  0.00    +0.166 A 
ATOM     39  C   LIG    1       18.236 -29.381  14.337  0.00  0.00    +0.203 A 
ATOM     40  C   LIG    1       18.726 -28.049  14.469  0.00  0.00    +0.166 A 
ATOM     41  C   LIG    1       19.960 -27.650  13.917  0.00  0.00    +0.057 A 
BRANCH  38  42
ATOM     42  O   LIG    1       18.505 -31.460  13.238  0.00  0.00    -0.491 OA
ATOM     43  C   LIG    1       17.691 -31.596  12.089  0.00  0.00    +0.277 C 
ENDBRANCH  38  42
BRANCH  39  44
ATOM     44  O   LIG    1       17.022 -29.777  14.850  0.00  0.00    -0.488 OA
ATOM     45  C   LIG    1       15.778 -29.384  14.238  0.00  0.00    +0.277 C 
ENDBRANCH  39  44
BRANCH  40  46
ATOM     46  O   LIG    1       18.151 -26.961  15.075  0.00  0.00    -0.491 OA
ATOM     47  C   LIG    1       17.666 -25.982  14.192  0.00  0.00    +0.277 C 
ENDBRANCH  40  46
ENDBRANCH  35  36
ENDBRANCH  32  34
ENDBRANCH  31  32
ENDBRANCH  20  31
TORSDOF 11
ENDMDL
MODEL 6
REMARK VINA RESULT:      -6.0      3.395      8.075
REMARK  Name = *****
REMARK                            x       y       z     vdW  Elec       q    Type
REMARK                         _______ _______ _______ _____ _____    ______ ____
ROOT
ATOM      1  C   LIG    1       23.401 -32.275   9.448  0.00  0.00    +0.133 C 
ATOM      2  C   LIG    1       23.489 -30.681   9.329  0.00  0.00    +0.012 C 
ATOM      3  C   LIG    1       24.504 -30.047  10.330  0.00  0.00    +0.011 C 
ATOM      4  C   LIG    1       25.917 -29.872   9.707  0.00  0.00    +0.089 C 
ATOM      5  N   LIG    1       25.962 -29.115   8.431  0.00  0.00    -0.293 NA
ATOM      6  C   LIG    1       24.612 -28.685   7.973  0.00  0.00    +0.104 C 
ATOM      7  C   LIG    1       24.724 -27.607   6.856  0.00  0.00    +0.038 C 
ATOM      8  C   LIG    1       25.833 -26.764   6.726  0.00  0.00    -0.016 C 
ATOM      9  C   LIG    1       25.350 -25.434   6.507  0.00  0.00    +0.003 C 
ATOM     10  C   LIG    1       23.988 -25.554   6.236  0.00  0.00    +0.051 C 
ATOM     11  C   LIG    1       23.141 -24.422   6.147  0.00  0.00    +0.072 C 
ATOM     12  C   LIG    1       23.679 -23.160   6.462  0.00  0.00    +0.122 C 
ATOM     13  C   LIG    1       25.045 -23.025   6.705  0.00  0.00    +0.046 C 
ATOM     14  C   LIG    1       25.899 -24.139   6.672  0.00  0.00    +0.014 C 
ATOM     15  C   LIG    1       27.162 -27.194   7.221  0.00  0.00    +0.053 C 
ATOM     16  N   LIG    1       23.714 -26.926   6.194  0.00  0.00    -0.356 NA
ATOM     17  H   LIG    1       22.814 -27.305   5.941  0.00  0.00    +0.166 HD
ATOM     18  C   LIG    1       26.976 -28.024   8.508  0.00  0.00    +0.090 C 
ATOM     19  C   LIG    1       24.536 -30.637  11.753  0.00  0.00    +0.052 C 
ATOM     20  C   LIG    1       23.526 -31.748  11.978  0.00  0.00    +0.206 C 
ATOM     21  C   LIG    1       23.708 -29.983   7.884  0.00  0.00    +0.030 C 
ATOM     22  C   LIG    1       23.652 -32.842  10.894  0.00  0.00    +0.172 C 
ENDROOT
BRANCH   1  23
ATOM     23  C   LIG    1       22.074 -32.931   9.022  0.00  0.00    +0.313 C 
ATOM     24  O   LIG    1       21.001 -32.726   9.580  0.00  0.00    -0.250 OA
BRANCH  23  26
ATOM     25  C   LIG    1       23.435 -33.633   7.176  0.00  0.00    +0.280 C 
ATOM     26  O   LIG    1       22.204 -33.697   7.916  0.00  0.00    -0.468 OA
ENDBRANCH  23  26
ENDBRANCH   1  23
BRANCH  12  27
ATOM     27  O   LIG    1       22.958 -22.019   6.704  0.00  0.00    -0.495 OA
ATOM     28  C   LIG    1       23.648 -20.835   7.074  0.00  0.00    +0.277 C 
ENDBRANCH  12  27
BRANCH  22  29
ATOM     29  O   LIG    1       24.926 -33.514  10.990  0.00  0.00    -0.375 OA
ATOM     30  C   LIG    1       25.601 -33.600   9.728  0.00  0.00    +0.194 C 
ENDBRANCH  22  29
BRANCH  20  31
ATOM     31  O   LIG    1       22.203 -31.153  11.920  0.00  0.00    -0.456 OA
BRANCH  31  32
ATOM     32  C   LIG    1       21.882 -30.383  12.993  0.00  0.00    +0.332 C 
ATOM     33  O   LIG    1       21.688 -30.807  14.077  0.00  0.00    -0.246 OA
BRANCH  32  34
ATOM     34  C   LIG    1       21.619 -28.981  12.491  0.00  0.00    +0.092 C 
ATOM     35  C   LIG    1       22.178 -27.800  12.760  0.00  0.00    +0.015 C 
BRANCH  35  36
ATOM     36  C   LIG    1       23.400 -27.477  13.490  0.00  0.00    -0.018 A 
ATOM     37  C   LIG    1       24.526 -28.281  13.468  0.00  0.00    +0.057 A 
ATOM     38  C   LIG    1       25.695 -28.003  14.158  0.00  0.00    +0.166 A 
ATOM     39  C   LIG    1       25.857 -26.782  14.792  0.00  0.00    +0.203 A 
ATOM     40  C   LIG    1       24.702 -25.948  14.849  0.00  0.00    +0.166 A 
ATOM     41  C   LIG    1       23.497 -26.299  14.208  0.00  0.00    +0.057 A 
BRANCH  38  42
ATOM     42  O   LIG    1       26.696 -28.918  14.212  0.00  0.00    -0.491 OA
ATOM     43  C   LIG    1       27.510 -29.100  13.069  0.00  0.00    +0.277 C 
ENDBRANCH  38  42
BRANCH  39  44
ATOM     44  O   LIG    1       27.032 -26.463  15.435  0.00  0.00    -0.488 OA
ATOM     45  C   LIG    1       28.117 -25.813  14.745  0.00  0.00    +0.277 C 
ENDBRANCH  39  44
BRANCH  40  46
ATOM     46  O   LIG    1       24.515 -24.755  15.499  0.00  0.00    -0.491 OA
ATOM     47  C   LIG    1       25.286 -23.689  15.007  0.00  0.00    +0.277 C 
ENDBRANCH  40  46
ENDBRANCH  35  36
ENDBRANCH  32  34
ENDBRANCH  31  32
ENDBRANCH  20  31
TORSDOF 11
ENDMDL
MODEL 7
REMARK VINA RESULT:      -5.9      3.251      8.249
REMARK  Name = *****
REMARK                            x       y       z     vdW  Elec       q    Type
REMARK                         _______ _______ _______ _____ _____    ______ ____
ROOT
ATOM      1  C   LIG    1       23.289 -32.552   9.388  0.00  0.00    +0.133 C 
ATOM      2  C   LIG    1       23.345 -30.956   9.280  0.00  0.00    +0.012 C 
ATOM      3  C   LIG    1       24.198 -30.295  10.406  0.00  0.00    +0.011 C 
ATOM      4  C   LIG    1       25.675 -30.076   9.978  0.00  0.00    +0.089 C 
ATOM      5  N   LIG    1       25.869 -29.315   8.719  0.00  0.00    -0.293 NA
ATOM      6  C   LIG    1       24.580 -28.924   8.084  0.00  0.00    +0.104 C 
ATOM      7  C   LIG    1       24.808 -27.840   6.991  0.00  0.00    +0.038 C 
ATOM      8  C   LIG    1       25.899 -26.964   7.009  0.00  0.00    -0.016 C 
ATOM      9  C   LIG    1       25.411 -25.648   6.726  0.00  0.00    +0.003 C 
ATOM     10  C   LIG    1       24.101 -25.807   6.276  0.00  0.00    +0.051 C 
ATOM     11  C   LIG    1       23.240 -24.701   6.074  0.00  0.00    +0.072 C 
ATOM     12  C   LIG    1       23.694 -23.424   6.456  0.00  0.00    +0.122 C 
ATOM     13  C   LIG    1       25.011 -23.250   6.879  0.00  0.00    +0.046 C 
ATOM     14  C   LIG    1       25.894 -24.337   6.963  0.00  0.00    +0.014 C 
ATOM     15  C   LIG    1       27.162 -27.356   7.678  0.00  0.00    +0.053 C 
ATOM     16  N   LIG    1       23.876 -27.187   6.199  0.00  0.00    -0.356 NA
ATOM     17  H   LIG    1       23.030 -27.591   5.829  0.00  0.00    +0.166 HD
ATOM     18  C   LIG    1       26.830 -28.194   8.930  0.00  0.00    +0.090 C 
ATOM     19  C   LIG    1       24.057 -30.888  11.822  0.00  0.00    +0.052 C 
ATOM     20  C   LIG    1       23.059 -32.029  11.911  0.00  0.00    +0.206 C 
ATOM     21  C   LIG    1       23.735 -30.247   7.877  0.00  0.00    +0.030 C 
ATOM     22  C   LIG    1       23.361 -33.116  10.854  0.00  0.00    +0.172 C 
ENDROOT
BRANCH   1  23
ATOM     23  C   LIG    1       22.051 -33.246   8.788  0.00  0.00    +0.313 C 
ATOM     24  O   LIG    1       21.986 -33.643   7.629  0.00  0.00    -0.250 OA
BRANCH  23  26
ATOM     25  C   LIG    1       19.762 -33.807   9.233  0.00  0.00    +0.280 C 
ATOM     26  O   LIG    1       21.072 -33.440   9.699  0.00  0.00    -0.468 OA
ENDBRANCH  23  26
ENDBRANCH   1  23
BRANCH  12  27
ATOM     27  O   LIG    1       22.913 -22.306   6.599  0.00  0.00    -0.495 OA
ATOM     28  C   LIG    1       22.869 -21.359   5.541  0.00  0.00    +0.277 C 
ENDBRANCH  12  27
BRANCH  22  29
ATOM     29  O   LIG    1       24.631 -33.750  11.121  0.00  0.00    -0.375 OA
ATOM     30  C   LIG    1       25.465 -33.825   9.957  0.00  0.00    +0.194 C 
ENDBRANCH  22  29
BRANCH  20  31
ATOM     31  O   LIG    1       21.738 -31.473  11.676  0.00  0.00    -0.456 OA
BRANCH  31  32
ATOM     32  C   LIG    1       21.183 -30.859  12.754  0.00  0.00    +0.332 C 
ATOM     33  O   LIG    1       20.811 -31.428  13.719  0.00  0.00    -0.246 OA
BRANCH  32  34
ATOM     34  C   LIG    1       20.950 -29.411  12.389  0.00  0.00    +0.092 C 
ATOM     35  C   LIG    1       21.586 -28.281  12.703  0.00  0.00    +0.015 C 
BRANCH  35  36
ATOM     36  C   LIG    1       22.878 -28.072  13.349  0.00  0.00    -0.018 A 
ATOM     37  C   LIG    1       23.580 -26.883  13.261  0.00  0.00    +0.057 A 
ATOM     38  C   LIG    1       24.811 -26.660  13.857  0.00  0.00    +0.166 A 
ATOM     39  C   LIG    1       25.340 -27.592  14.735  0.00  0.00    +0.203 A 
ATOM     40  C   LIG    1       24.646 -28.834  14.822  0.00  0.00    +0.166 A 
ATOM     41  C   LIG    1       23.437 -29.062  14.135  0.00  0.00    +0.057 A 
BRANCH  38  42
ATOM     42  O   LIG    1       25.508 -25.525  13.594  0.00  0.00    -0.491 OA
ATOM     43  C   LIG    1       25.155 -24.339  14.280  0.00  0.00    +0.277 C 
ENDBRANCH  38  42
BRANCH  39  44
ATOM     44  O   LIG    1       26.534 -27.364  15.381  0.00  0.00    -0.488 OA
ATOM     45  C   LIG    1       27.734 -28.077  15.024  0.00  0.00    +0.277 C 
ENDBRANCH  39  44
BRANCH  40  46
ATOM     46  O   LIG    1       24.981 -29.978  15.500  0.00  0.00    -0.491 OA
ATOM     47  C   LIG    1       24.009 -30.991  15.464  0.00  0.00    +0.277 C 
ENDBRANCH  40  46
ENDBRANCH  35  36
ENDBRANCH  32  34
ENDBRANCH  31  32
ENDBRANCH  20  31
TORSDOF 11
ENDMDL
MODEL 8
REMARK VINA RESULT:      -5.7      3.034      8.074
REMARK  Name = *****
REMARK                            x       y       z     vdW  Elec       q    Type
REMARK                         _______ _______ _______ _____ _____    ______ ____
ROOT
ATOM      1  C   LIG    1       23.948 -32.124   8.653  0.00  0.00    +0.133 C 
ATOM      2  C   LIG    1       24.034 -30.527   8.738  0.00  0.00    +0.012 C 
ATOM      3  C   LIG    1       25.282 -30.022   9.525  0.00  0.00    +0.011 C 
ATOM      4  C   LIG    1       26.493 -29.738   8.594  0.00  0.00    +0.089 C 
ATOM      5  N   LIG    1       26.227 -28.811   7.466  0.00  0.00    -0.293 NA
ATOM      6  C   LIG    1       24.814 -28.344   7.431  0.00  0.00    +0.104 C 
ATOM      7  C   LIG    1       24.659 -27.119   6.484  0.00  0.00    +0.038 C 
ATOM      8  C   LIG    1       25.715 -26.247   6.194  0.00  0.00    -0.016 C 
ATOM      9  C   LIG    1       25.218 -24.908   6.292  0.00  0.00    +0.003 C 
ATOM     10  C   LIG    1       23.830 -25.012   6.363  0.00  0.00    +0.051 C 
ATOM     11  C   LIG    1       23.010 -23.892   6.651  0.00  0.00    +0.072 C 
ATOM     12  C   LIG    1       23.636 -22.678   6.991  0.00  0.00    +0.122 C 
ATOM     13  C   LIG    1       25.021 -22.556   6.894  0.00  0.00    +0.046 C 
ATOM     14  C   LIG    1       25.816 -23.639   6.491  0.00  0.00    +0.014 C 
ATOM     15  C   LIG    1       27.117 -26.720   6.269  0.00  0.00    +0.053 C 
ATOM     16  N   LIG    1       23.527 -26.369   6.202  0.00  0.00    -0.356 NA
ATOM     17  H   LIG    1       22.585 -26.724   6.136  0.00  0.00    +0.166 HD
ATOM     18  C   LIG    1       27.248 -27.724   7.434  0.00  0.00    +0.090 C 
ATOM     19  C   LIG    1       25.664 -30.804  10.797  0.00  0.00    +0.052 C 
ATOM     20  C   LIG    1       24.722 -31.953  11.115  0.00  0.00    +0.206 C 
ATOM     21  C   LIG    1       23.892 -29.631   7.396  0.00  0.00    +0.030 C 
ATOM     22  C   LIG    1       24.546 -32.882   9.893  0.00  0.00    +0.172 C 
ENDROOT
BRANCH   1  23
ATOM     23  C   LIG    1       22.543 -32.735   8.491  0.00  0.00    +0.313 C 
ATOM     24  O   LIG    1       21.588 -32.449   9.206  0.00  0.00    -0.250 OA
BRANCH  23  26
ATOM     25  C   LIG    1       23.066 -33.160   6.190  0.00  0.00    +0.280 C 
ATOM     26  O   LIG    1       22.456 -33.563   7.427  0.00  0.00    -0.468 OA
ENDBRANCH  23  26
ENDBRANCH   1  23
BRANCH  12  27
ATOM     27  O   LIG    1       23.022 -21.594   7.565  0.00  0.00    -0.495 OA
ATOM     28  C   LIG    1       23.200 -20.313   6.978  0.00  0.00    +0.277 C 
ENDBRANCH  12  27
BRANCH  22  29
ATOM     29  O   LIG    1       25.790 -33.540   9.568  0.00  0.00    -0.375 OA
ATOM     30  C   LIG    1       26.111 -33.453   8.173  0.00  0.00    +0.194 C 
ENDBRANCH  22  29
BRANCH  20  31
ATOM     31  O   LIG    1       23.440 -31.377  11.479  0.00  0.00    -0.456 OA
BRANCH  31  32
ATOM     32  C   LIG    1       22.822 -31.989  12.524  0.00  0.00    +0.332 C 
ATOM     33  O   LIG    1       21.694 -32.336  12.512  0.00  0.00    -0.246 OA
BRANCH  32  34
ATOM     34  C   LIG    1       23.757 -31.931  13.711  0.00  0.00    +0.092 C 
ATOM     35  C   LIG    1       24.463 -30.944  14.263  0.00  0.00    +0.015 C 
BRANCH  35  36
ATOM     36  C   LIG    1       24.413 -29.503  14.036  0.00  0.00    -0.018 A 
ATOM     37  C   LIG    1       23.300 -28.733  14.327  0.00  0.00    +0.057 A 
ATOM     38  C   LIG    1       23.223 -27.366  14.113  0.00  0.00    +0.166 A 
ATOM     39  C   LIG    1       24.349 -26.653  13.739  0.00  0.00    +0.203 A 
ATOM     40  C   LIG    1       25.500 -27.428  13.410  0.00  0.00    +0.166 A 
ATOM     41  C   LIG    1       25.521 -28.830  13.557  0.00  0.00    +0.057 A 
BRANCH  38  42
ATOM     42  O   LIG    1       22.045 -26.710  14.276  0.00  0.00    -0.491 OA
ATOM     43  C   LIG    1       21.081 -26.782  13.244  0.00  0.00    +0.277 C 
ENDBRANCH  38  42
BRANCH  39  44
ATOM     44  O   LIG    1       24.307 -25.286  13.578  0.00  0.00    -0.488 OA
ATOM     45  C   LIG    1       25.089 -24.403  14.404  0.00  0.00    +0.277 C 
ENDBRANCH  39  44
BRANCH  40  46
ATOM     46  O   LIG    1       26.709 -27.028  12.901  0.00  0.00    -0.491 OA
ATOM     47  C   LIG    1       27.423 -28.029  12.223  0.00  0.00    +0.277 C 
ENDBRANCH  40  46
ENDBRANCH  35  36
ENDBRANCH  32  34
ENDBRANCH  31  32
ENDBRANCH  20  31
TORSDOF 11
ENDMDL
MODEL 9
REMARK VINA RESULT:      -5.6      2.678      8.592
REMARK  Name = *****
REMARK                            x       y       z     vdW  Elec       q    Type
REMARK                         _______ _______ _______ _____ _____    ______ ____
ROOT
ATOM      1  C   LIG    1       23.355 -32.577   8.748  0.00  0.00    +0.133 C 
ATOM      2  C   LIG    1       23.337 -30.976   8.746  0.00  0.00    +0.012 C 
ATOM      3  C   LIG    1       24.041 -30.353   9.991  0.00  0.00    +0.011 C 
ATOM      4  C   LIG    1       25.540 -30.038   9.726  0.00  0.00    +0.089 C 
ATOM      5  N   LIG    1       25.813 -29.186   8.543  0.00  0.00    -0.293 NA
ATOM      6  C   LIG    1       24.573 -28.813   7.808  0.00  0.00    +0.104 C 
ATOM      7  C   LIG    1       24.847 -27.648   6.813  0.00  0.00    +0.038 C 
ATOM      8  C   LIG    1       25.884 -26.726   6.994  0.00  0.00    -0.016 C 
ATOM      9  C   LIG    1       25.357 -25.418   6.747  0.00  0.00    +0.003 C 
ATOM     10  C   LIG    1       24.107 -25.607   6.160  0.00  0.00    +0.051 C 
ATOM     11  C   LIG    1       23.212 -24.530   5.942  0.00  0.00    +0.072 C 
ATOM     12  C   LIG    1       23.560 -23.263   6.447  0.00  0.00    +0.122 C 
ATOM     13  C   LIG    1       24.819 -23.057   7.009  0.00  0.00    +0.046 C 
ATOM     14  C   LIG    1       25.745 -24.105   7.111  0.00  0.00    +0.014 C 
ATOM     15  C   LIG    1       27.095 -27.104   7.759  0.00  0.00    +0.053 C 
ATOM     16  N   LIG    1       23.963 -26.987   5.975  0.00  0.00    -0.356 NA
ATOM     17  H   LIG    1       23.178 -27.405   5.497  0.00  0.00    +0.166 HD
ATOM     18  C   LIG    1       26.689 -28.039   8.917  0.00  0.00    +0.090 C 
ATOM     19  C   LIG    1       23.797 -31.046  11.346  0.00  0.00    +0.052 C 
ATOM     20  C   LIG    1       22.856 -32.236  11.264  0.00  0.00    +0.206 C 
ATOM     21  C   LIG    1       23.822 -30.156   7.435  0.00  0.00    +0.030 C 
ATOM     22  C   LIG    1       23.315 -33.234  10.176  0.00  0.00    +0.172 C 
ENDROOT
BRANCH   1  23
ATOM     23  C   LIG    1       22.218 -33.284   7.986  0.00  0.00    +0.313 C 
ATOM     24  O   LIG    1       21.060 -33.340   8.387  0.00  0.00    -0.250 OA
BRANCH  23  26
ATOM     25  C   LIG    1       23.737 -33.150   6.135  0.00  0.00    +0.280 C 
ATOM     26  O   LIG    1       22.618 -33.770   6.790  0.00  0.00    -0.468 OA
ENDBRANCH  23  26
ENDBRANCH   1  23
BRANCH  12  27
ATOM     27  O   LIG    1       22.711 -22.194   6.581  0.00  0.00    -0.495 OA
ATOM     28  C   LIG    1       23.201 -20.889   6.309  0.00  0.00    +0.277 C 
ENDBRANCH  12  27
BRANCH  22  29
ATOM     29  O   LIG    1       24.585 -33.825  10.528  0.00  0.00    -0.375 OA
ATOM     30  C   LIG    1       25.519 -33.812   9.440  0.00  0.00    +0.194 C 
ENDBRANCH  22  29
BRANCH  20  31
ATOM     31  O   LIG    1       21.537 -31.727  10.934  0.00  0.00    -0.456 OA
BRANCH  31  32
ATOM     32  C   LIG    1       20.519 -32.300  11.628  0.00  0.00    +0.332 C 
ATOM     33  O   LIG    1       19.448 -32.509  11.179  0.00  0.00    -0.246 OA
BRANCH  32  34
ATOM     34  C   LIG    1       20.949 -32.403  13.074  0.00  0.00    +0.092 C 
ATOM     35  C   LIG    1       21.006 -31.518  14.070  0.00  0.00    +0.015 C 
BRANCH  35  36
ATOM     36  C   LIG    1       20.463 -30.167  14.166  0.00  0.00    -0.018 A 
ATOM     37  C   LIG    1       21.113 -29.056  13.658  0.00  0.00    +0.057 A 
ATOM     38  C   LIG    1       20.625 -27.762  13.743  0.00  0.00    +0.166 A 
ATOM     39  C   LIG    1       19.342 -27.530  14.210  0.00  0.00    +0.203 A 
ATOM     40  C   LIG    1       18.662 -28.655  14.761  0.00  0.00    +0.166 A 
ATOM     41  C   LIG    1       19.223 -29.948  14.737  0.00  0.00    +0.057 A 
BRANCH  38  42
ATOM     42  O   LIG    1       21.393 -26.710  13.362  0.00  0.00    -0.491 OA
ATOM     43  C   LIG    1       22.714 -26.619  13.860  0.00  0.00    +0.277 C 
ENDBRANCH  38  42
BRANCH  39  44
ATOM     44  O   LIG    1       18.817 -26.257  14.248  0.00  0.00    -0.488 OA
ATOM     45  C   LIG    1       17.410 -26.014  14.055  0.00  0.00    +0.277 C 
ENDBRANCH  39  44
BRANCH  40  46
ATOM     46  O   LIG    1       17.450 -28.720  15.399  0.00  0.00    -0.491 OA
ATOM     47  C   LIG    1       16.776 -29.945  15.260  0.00  0.00    +0.277 C 
ENDBRANCH  40  46
ENDBRANCH  35  36
ENDBRANCH  32  34
ENDBRANCH  31  32
ENDBRANCH  20  31
TORSDOF 11
ENDMDL
