MODEL 1
REMARK VINA RESULT:      -8.8      0.000      0.000
REMARK  Name = *****
REMARK                            x       y       z     vdW  Elec       q    Type
REMARK                         _______ _______ _______ _____ _____    ______ ____
ROOT
ATOM      1  C   LIG    1       26.843 -19.979   5.462  0.00  0.00    +0.015 C 
ATOM      2  C   LIG    1       25.641 -20.499   5.725  0.00  0.00    -0.000 C 
ATOM      3  C   LIG    1       25.115 -21.399   6.826  0.00  0.00    +0.029 C 
ATOM      4  C   LIG    1       24.115 -22.313   6.057  0.00  0.00    -0.016 C 
ATOM      5  C   LIG    1       23.301 -21.104   5.503  0.00  0.00    +0.036 C 
ATOM      6  C   LIG    1       22.944 -20.296   6.777  0.00  0.00    +0.015 C 
ATOM      7  C   LIG    1       22.141 -21.396   4.583  0.00  0.00    +0.020 C 
ATOM      8  C   LIG    1       24.774 -23.199   4.978  0.00  0.00    +0.012 C 
ATOM      9  C   LIG    1       23.316 -23.262   6.972  0.00  0.00    +0.012 C 
ATOM     10  C   LIG    1       24.181 -20.513   7.688  0.00  0.00    +0.010 C 
ATOM     11  C   LIG    1       24.427 -20.293   4.864  0.00  0.00    +0.166 C 
ATOM     12  O   LIG    1       24.368 -19.577   3.881  0.00  0.00    -0.292 OA
ENDROOT
BRANCH   1  17
ATOM     13  C   LIG    1       31.501 -20.786   8.779  0.00  0.00    +0.044 C 
ATOM     14  C   LIG    1       30.299 -20.598   7.899  0.00  0.00    -0.050 A 
ATOM     15  C   LIG    1       29.229 -21.496   7.957  0.00  0.00    +0.004 A 
ATOM     16  C   LIG    1       28.098 -21.302   7.159  0.00  0.00    +0.008 A 
ATOM     17  C   LIG    1       28.016 -20.197   6.307  0.00  0.00    -0.025 A 
ATOM     18  C   LIG    1       29.082 -19.295   6.252  0.00  0.00    +0.008 A 
ATOM     19  C   LIG    1       30.212 -19.489   7.049  0.00  0.00    +0.004 A 
ENDBRANCH   1  17
TORSDOF 1
ENDMDL
MODEL 2
REMARK VINA RESULT:      -8.0      1.606      2.745
REMARK  Name = *****
REMARK                            x       y       z     vdW  Elec       q    Type
REMARK                         _______ _______ _______ _____ _____    ______ ____
ROOT
ATOM      1  C   LIG    1       27.174 -22.231   7.158  0.00  0.00    +0.015 C 
ATOM      2  C   LIG    1       25.975 -21.959   6.633  0.00  0.00    -0.000 C 
ATOM      3  C   LIG    1       25.352 -20.700   6.061  0.00  0.00    +0.029 C 
ATOM      4  C   LIG    1       23.879 -20.805   6.557  0.00  0.00    -0.016 C 
ATOM      5  C   LIG    1       23.671 -22.210   5.914  0.00  0.00    +0.036 C 
ATOM      6  C   LIG    1       24.081 -21.993   4.435  0.00  0.00    +0.015 C 
ATOM      7  C   LIG    1       22.339 -22.889   6.118  0.00  0.00    +0.020 C 
ATOM      8  C   LIG    1       23.729 -20.767   8.094  0.00  0.00    +0.012 C 
ATOM      9  C   LIG    1       22.960 -19.700   6.002  0.00  0.00    +0.012 C 
ATOM     10  C   LIG    1       25.221 -20.946   4.537  0.00  0.00    +0.010 C 
ATOM     11  C   LIG    1       24.861 -22.958   6.514  0.00  0.00    +0.166 C 
ATOM     12  O   LIG    1       24.932 -24.139   6.801  0.00  0.00    -0.292 OA
ENDROOT
BRANCH   1  17
ATOM     13  C   LIG    1       31.436 -18.367   7.654  0.00  0.00    +0.044 C 
ATOM     14  C   LIG    1       30.311 -19.354   7.541  0.00  0.00    -0.050 A 
ATOM     15  C   LIG    1       29.247 -19.121   6.663  0.00  0.00    +0.004 A 
ATOM     16  C   LIG    1       28.216 -20.056   6.536  0.00  0.00    +0.008 A 
ATOM     17  C   LIG    1       28.245 -21.243   7.274  0.00  0.00    -0.025 A 
ATOM     18  C   LIG    1       29.309 -21.480   8.147  0.00  0.00    +0.008 A 
ATOM     19  C   LIG    1       30.340 -20.546   8.274  0.00  0.00    +0.004 A 
ENDBRANCH   1  17
TORSDOF 1
ENDMDL
MODEL 3
REMARK VINA RESULT:      -7.9      2.958      5.457
REMARK  Name = *****
REMARK                            x       y       z     vdW  Elec       q    Type
REMARK                         _______ _______ _______ _____ _____    ______ ____
ROOT
ATOM      1  C   LIG    1       24.827 -24.528   4.855  0.00  0.00    +0.015 C 
ATOM      2  C   LIG    1       24.714 -23.305   5.379  0.00  0.00    -0.000 C 
ATOM      3  C   LIG    1       24.732 -22.777   6.801  0.00  0.00    +0.029 C 
ATOM      4  C   LIG    1       23.660 -21.648   6.748  0.00  0.00    -0.016 C 
ATOM      5  C   LIG    1       24.369 -20.911   5.572  0.00  0.00    +0.036 C 
ATOM      6  C   LIG    1       25.817 -20.716   6.090  0.00  0.00    +0.015 C 
ATOM      7  C   LIG    1       23.713 -19.668   5.020  0.00  0.00    +0.020 C 
ATOM      8  C   LIG    1       22.233 -22.149   6.434  0.00  0.00    +0.012 C 
ATOM      9  C   LIG    1       23.558 -20.832   8.052  0.00  0.00    +0.012 C 
ATOM     10  C   LIG    1       26.058 -21.989   6.944  0.00  0.00    +0.010 C 
ATOM     11  C   LIG    1       24.492 -22.058   4.571  0.00  0.00    +0.166 C 
ATOM     12  O   LIG    1       24.468 -21.996   3.356  0.00  0.00    -0.292 OA
ENDROOT
BRANCH   1  17
ATOM     13  C   LIG    1       25.600 -29.313   7.994  0.00  0.00    +0.044 C 
ATOM     14  C   LIG    1       25.388 -28.056   7.201  0.00  0.00    -0.050 A 
ATOM     15  C   LIG    1       26.260 -26.972   7.343  0.00  0.00    +0.004 A 
ATOM     16  C   LIG    1       26.080 -25.813   6.582  0.00  0.00    +0.008 A 
ATOM     17  C   LIG    1       25.034 -25.732   5.657  0.00  0.00    -0.025 A 
ATOM     18  C   LIG    1       24.165 -26.816   5.509  0.00  0.00    +0.008 A 
ATOM     19  C   LIG    1       24.346 -27.974   6.270  0.00  0.00    +0.004 A 
ENDBRANCH   1  17
TORSDOF 1
ENDMDL
MODEL 4
REMARK VINA RESULT:      -7.5      2.586      5.216
REMARK  Name = *****
REMARK                            x       y       z     vdW  Elec       q    Type
REMARK                         _______ _______ _______ _____ _____    ______ ____
ROOT
ATOM      1  C   LIG    1       24.440 -20.399   4.013  0.00  0.00    +0.015 C 
ATOM      2  C   LIG    1       24.555 -21.102   5.143  0.00  0.00    -0.000 C 
ATOM      3  C   LIG    1       24.568 -20.717   6.611  0.00  0.00    +0.029 C 
ATOM      4  C   LIG    1       25.627 -21.694   7.200  0.00  0.00    -0.016 C 
ATOM      5  C   LIG    1       24.883 -22.958   6.671  0.00  0.00    +0.036 C 
ATOM      6  C   LIG    1       23.446 -22.788   7.229  0.00  0.00    +0.015 C 
ATOM      7  C   LIG    1       25.512 -24.306   6.924  0.00  0.00    +0.020 C 
ATOM      8  C   LIG    1       27.051 -21.497   6.632  0.00  0.00    +0.012 C 
ATOM      9  C   LIG    1       25.755 -21.616   8.734  0.00  0.00    +0.012 C 
ATOM     10  C   LIG    1       23.239 -21.250   7.201  0.00  0.00    +0.010 C 
ATOM     11  C   LIG    1       24.744 -22.591   5.195  0.00  0.00    +0.166 C 
ATOM     12  O   LIG    1       24.738 -23.340   4.236  0.00  0.00    -0.292 OA
ENDROOT
BRANCH   1  17
ATOM     13  C   LIG    1       23.691 -14.674   3.911  0.00  0.00    +0.044 C 
ATOM     14  C   LIG    1       23.883 -16.163   3.908  0.00  0.00    -0.050 A 
ATOM     15  C   LIG    1       25.111 -16.719   3.539  0.00  0.00    +0.004 A 
ATOM     16  C   LIG    1       25.299 -18.104   3.567  0.00  0.00    +0.008 A 
ATOM     17  C   LIG    1       24.264 -18.948   3.981  0.00  0.00    -0.025 A 
ATOM     18  C   LIG    1       23.037 -18.394   4.356  0.00  0.00    +0.008 A 
ATOM     19  C   LIG    1       22.850 -17.010   4.328  0.00  0.00    +0.004 A 
ENDBRANCH   1  17
TORSDOF 1
ENDMDL
MODEL 5
REMARK VINA RESULT:      -7.2      1.721      2.634
REMARK  Name = *****
REMARK                            x       y       z     vdW  Elec       q    Type
REMARK                         _______ _______ _______ _____ _____    ______ ____
ROOT
ATOM      1  C   LIG    1       25.997 -20.466   7.674  0.00  0.00    +0.015 C 
ATOM      2  C   LIG    1       25.404 -21.547   7.158  0.00  0.00    -0.000 C 
ATOM      3  C   LIG    1       25.886 -22.665   6.253  0.00  0.00    +0.029 C 
ATOM      4  C   LIG    1       24.643 -22.918   5.350  0.00  0.00    -0.016 C 
ATOM      5  C   LIG    1       23.702 -23.171   6.566  0.00  0.00    +0.036 C 
ATOM      6  C   LIG    1       24.438 -24.276   7.367  0.00  0.00    +0.015 C 
ATOM      7  C   LIG    1       22.244 -23.447   6.286  0.00  0.00    +0.020 C 
ATOM      8  C   LIG    1       24.250 -21.712   4.467  0.00  0.00    +0.012 C 
ATOM      9  C   LIG    1       24.804 -24.120   4.398  0.00  0.00    +0.012 C 
ATOM     10  C   LIG    1       25.935 -23.936   7.138  0.00  0.00    +0.010 C 
ATOM     11  C   LIG    1       23.961 -21.902   7.376  0.00  0.00    +0.166 C 
ATOM     12  O   LIG    1       23.185 -21.305   8.099  0.00  0.00    -0.292 OA
ENDROOT
BRANCH   1  17
ATOM     13  C   LIG    1       31.555 -19.149   6.829  0.00  0.00    +0.044 C 
ATOM     14  C   LIG    1       30.103 -19.464   7.043  0.00  0.00    -0.050 A 
ATOM     15  C   LIG    1       29.236 -19.593   5.954  0.00  0.00    +0.004 A 
ATOM     16  C   LIG    1       27.891 -19.916   6.153  0.00  0.00    +0.008 A 
ATOM     17  C   LIG    1       27.401 -20.131   7.445  0.00  0.00    -0.025 A 
ATOM     18  C   LIG    1       28.267 -20.009   8.534  0.00  0.00    +0.008 A 
ATOM     19  C   LIG    1       29.611 -19.686   8.335  0.00  0.00    +0.004 A 
ENDBRANCH   1  17
TORSDOF 1
ENDMDL
MODEL 6
REMARK VINA RESULT:      -6.9      3.012      5.561
REMARK  Name = *****
REMARK                            x       y       z     vdW  Elec       q    Type
REMARK                         _______ _______ _______ _____ _____    ______ ____
ROOT
ATOM      1  C   LIG    1       25.980 -24.058   6.266  0.00  0.00    +0.015 C 
ATOM      2  C   LIG    1       25.145 -23.019   6.172  0.00  0.00    -0.000 C 
ATOM      3  C   LIG    1       23.635 -22.903   6.082  0.00  0.00    +0.029 C 
ATOM      4  C   LIG    1       23.454 -21.719   5.086  0.00  0.00    -0.016 C 
ATOM      5  C   LIG    1       24.319 -20.749   5.946  0.00  0.00    +0.036 C 
ATOM      6  C   LIG    1       23.657 -20.822   7.346  0.00  0.00    +0.015 C 
ATOM      7  C   LIG    1       24.551 -19.354   5.419  0.00  0.00    +0.020 C 
ATOM      8  C   LIG    1       24.006 -21.997   3.670  0.00  0.00    +0.012 C 
ATOM      9  C   LIG    1       21.986 -21.284   4.904  0.00  0.00    +0.012 C 
ATOM     10  C   LIG    1       23.176 -22.294   7.430  0.00  0.00    +0.010 C 
ATOM     11  C   LIG    1       25.588 -21.586   6.101  0.00  0.00    +0.166 C 
ATOM     12  O   LIG    1       26.735 -21.192   6.198  0.00  0.00    -0.292 OA
ENDROOT
BRANCH   1  17
ATOM     13  C   LIG    1       24.245 -29.558   6.550  0.00  0.00    +0.044 C 
ATOM     14  C   LIG    1       24.712 -28.135   6.452  0.00  0.00    -0.050 A 
ATOM     15  C   LIG    1       24.146 -27.266   5.514  0.00  0.00    +0.004 A 
ATOM     16  C   LIG    1       24.560 -25.932   5.445  0.00  0.00    +0.008 A 
ATOM     17  C   LIG    1       25.532 -25.448   6.326  0.00  0.00    -0.025 A 
ATOM     18  C   LIG    1       26.094 -26.314   7.268  0.00  0.00    +0.008 A 
ATOM     19  C   LIG    1       25.681 -27.646   7.337  0.00  0.00    +0.004 A 
ENDBRANCH   1  17
TORSDOF 1
ENDMDL
MODEL 7
REMARK VINA RESULT:      -6.9      7.469      9.704
REMARK  Name = *****
REMARK                            x       y       z     vdW  Elec       q    Type
REMARK                         _______ _______ _______ _____ _____    ______ ____
ROOT
ATOM      1  C   LIG    1       24.382 -29.381   6.170  0.00  0.00    +0.015 C 
ATOM      2  C   LIG    1       24.370 -30.250   7.186  0.00  0.00    -0.000 C 
ATOM      3  C   LIG    1       24.711 -30.131   8.659  0.00  0.00    +0.029 C 
ATOM      4  C   LIG    1       25.396 -31.499   8.951  0.00  0.00    -0.016 C 
ATOM      5  C   LIG    1       24.174 -32.319   8.437  0.00  0.00    +0.036 C 
ATOM      6  C   LIG    1       22.987 -31.746   9.252  0.00  0.00    +0.015 C 
ATOM      7  C   LIG    1       24.284 -33.825   8.437  0.00  0.00    +0.020 C 
ATOM      8  C   LIG    1       26.707 -31.727   8.165  0.00  0.00    +0.012 C 
ATOM      9  C   LIG    1       25.737 -31.715  10.439  0.00  0.00    +0.012 C 
ATOM     10  C   LIG    1       23.365 -30.250   9.417  0.00  0.00    +0.010 C 
ATOM     11  C   LIG    1       23.997 -31.698   7.052  0.00  0.00    +0.166 C 
ATOM     12  O   LIG    1       23.591 -32.236   6.039  0.00  0.00    -0.292 OA
ENDROOT
BRANCH   1  17
ATOM     13  C   LIG    1       25.812 -23.814   6.713  0.00  0.00    +0.044 C 
ATOM     14  C   LIG    1       25.463 -25.265   6.554  0.00  0.00    -0.050 A 
ATOM     15  C   LIG    1       26.176 -26.246   7.250  0.00  0.00    +0.004 A 
ATOM     16  C   LIG    1       25.831 -27.595   7.126  0.00  0.00    +0.008 A 
ATOM     17  C   LIG    1       24.756 -27.976   6.316  0.00  0.00    -0.025 A 
ATOM     18  C   LIG    1       24.039 -26.997   5.625  0.00  0.00    +0.008 A 
ATOM     19  C   LIG    1       24.384 -25.649   5.750  0.00  0.00    +0.004 A 
ENDBRANCH   1  17
TORSDOF 1
ENDMDL
MODEL 8
REMARK VINA RESULT:      -6.5      3.234      5.175
REMARK  Name = *****
REMARK                            x       y       z     vdW  Elec       q    Type
REMARK                         _______ _______ _______ _____ _____    ______ ____
ROOT
ATOM      1  C   LIG    1       24.182 -22.804   7.095  0.00  0.00    +0.015 C 
ATOM      2  C   LIG    1       23.767 -21.880   6.223  0.00  0.00    -0.000 C 
ATOM      3  C   LIG    1       23.651 -21.855   4.711  0.00  0.00    +0.029 C 
ATOM      4  C   LIG    1       24.065 -20.393   4.372  0.00  0.00    -0.016 C 
ATOM      5  C   LIG    1       22.980 -19.777   5.306  0.00  0.00    +0.036 C 
ATOM      6  C   LIG    1       21.667 -20.447   4.824  0.00  0.00    +0.015 C 
ATOM      7  C   LIG    1       22.924 -18.273   5.428  0.00  0.00    +0.020 C 
ATOM      8  C   LIG    1       25.521 -20.046   4.753  0.00  0.00    +0.012 C 
ATOM      9  C   LIG    1       23.908 -20.036   2.880  0.00  0.00    +0.012 C 
ATOM     10  C   LIG    1       22.133 -21.865   4.403  0.00  0.00    +0.010 C 
ATOM     11  C   LIG    1       23.302 -20.506   6.609  0.00  0.00    +0.166 C 
ATOM     12  O   LIG    1       23.171 -20.095   7.747  0.00  0.00    -0.292 OA
ENDROOT
BRANCH   1  17
ATOM     13  C   LIG    1       25.933 -28.077   5.523  0.00  0.00    +0.044 C 
ATOM     14  C   LIG    1       25.482 -26.714   5.960  0.00  0.00    -0.050 A 
ATOM     15  C   LIG    1       26.416 -25.747   6.343  0.00  0.00    +0.004 A 
ATOM     16  C   LIG    1       25.998 -24.468   6.720  0.00  0.00    +0.008 A 
ATOM     17  C   LIG    1       24.640 -24.135   6.701  0.00  0.00    -0.025 A 
ATOM     18  C   LIG    1       23.705 -25.098   6.312  0.00  0.00    +0.008 A 
ATOM     19  C   LIG    1       24.124 -26.377   5.935  0.00  0.00    +0.004 A 
ENDBRANCH   1  17
TORSDOF 1
ENDMDL
MODEL 9
REMARK VINA RESULT:      -6.4      7.898     10.413
REMARK  Name = *****
REMARK                            x       y       z     vdW  Elec       q    Type
REMARK                         _______ _______ _______ _____ _____    ______ ____
ROOT
ATOM      1  C   LIG    1       25.711 -30.037   8.692  0.00  0.00    +0.015 C 
ATOM      2  C   LIG    1       24.921 -30.318   9.731  0.00  0.00    -0.000 C 
ATOM      3  C   LIG    1       23.649 -29.690  10.271  0.00  0.00    +0.029 C 
ATOM      4  C   LIG    1       23.850 -29.809  11.811  0.00  0.00    -0.016 C 
ATOM      5  C   LIG    1       24.063 -31.352  11.752  0.00  0.00    +0.036 C 
ATOM      6  C   LIG    1       22.809 -31.859  10.993  0.00  0.00    +0.015 C 
ATOM      7  C   LIG    1       24.365 -32.073  13.043  0.00  0.00    +0.020 C 
ATOM      8  C   LIG    1       25.056 -29.009  12.352  0.00  0.00    +0.012 C 
ATOM      9  C   LIG    1       22.625 -29.358  12.631  0.00  0.00    +0.012 C 
ATOM     10  C   LIG    1       22.519 -30.711   9.990  0.00  0.00    +0.010 C 
ATOM     11  C   LIG    1       25.175 -31.430  10.708  0.00  0.00    +0.166 C 
ATOM     12  O   LIG    1       26.072 -32.249  10.632  0.00  0.00    -0.292 OA
ENDROOT
BRANCH   1  17
ATOM     13  C   LIG    1       24.735 -25.689   5.019  0.00  0.00    +0.044 C 
ATOM     14  C   LIG    1       24.964 -26.812   5.988  0.00  0.00    -0.050 A 
ATOM     15  C   LIG    1       24.260 -28.014   5.860  0.00  0.00    +0.004 A 
ATOM     16  C   LIG    1       24.496 -29.071   6.744  0.00  0.00    +0.008 A 
ATOM     17  C   LIG    1       25.453 -28.944   7.756  0.00  0.00    -0.025 A 
ATOM     18  C   LIG    1       26.161 -27.747   7.882  0.00  0.00    +0.008 A 
ATOM     19  C   LIG    1       25.925 -26.691   6.998  0.00  0.00    +0.004 A 
ENDBRANCH   1  17
TORSDOF 1
ENDMDL
