MODEL 1
REMARK VINA RESULT:       3.3      0.000      0.000
REMARK  Name = *****
REMARK                            x       y       z     vdW  Elec       q    Type
REMARK                         _______ _______ _______ _____ _____    ______ ____
ROOT
ATOM      1  C   LIG    1       23.554 -20.775   5.093  0.00  0.00    +0.132 C 
ATOM      2  C   LIG    1       22.737 -19.521   4.563  0.00  0.00    +0.011 C 
ATOM      3  C   LIG    1       21.262 -20.106   4.409  0.00  0.00    +0.015 C 
ATOM      4  C   LIG    1       23.398 -19.206   3.195  0.00  0.00    +0.003 C 
ATOM      5  C   LIG    1       24.394 -17.998   3.120  0.00  0.00    +0.003 C 
ATOM      6  C   LIG    1       23.784 -16.677   3.635  0.00  0.00    +0.019 C 
ATOM      7  C   LIG    1       23.190 -16.877   5.050  0.00  0.00    +0.009 C 
ATOM      8  C   LIG    1       24.819 -15.512   3.591  0.00  0.00    -0.066 C 
ATOM      9  C   LIG    1       24.296 -14.130   3.962  0.00  0.00    +0.038 C 
ATOM     10  C   LIG    1       25.344 -13.023   3.886  0.00  0.00    +0.079 C 
ATOM     11  C   LIG    1       26.617 -13.582   4.448  0.00  0.00    +0.138 C 
ATOM     12  O   LIG    1       27.110 -13.190   5.503  0.00  0.00    -0.297 OA
ATOM     13  C   LIG    1       27.220 -14.684   3.614  0.00  0.00    +0.105 C 
ATOM     14  C   LIG    1       26.144 -15.712   3.335  0.00  0.00    -0.063 C 
ATOM     15  C   LIG    1       26.704 -17.078   3.006  0.00  0.00    +0.034 C 
ATOM     16  C   LIG    1       25.843 -18.150   3.682  0.00  0.00    -0.006 C 
ATOM     17  C   LIG    1       26.047 -17.936   5.192  0.00  0.00    +0.008 C 
ATOM     18  C   LIG    1       24.022 -20.525   2.697  0.00  0.00    +0.008 C 
ATOM     19  C   LIG    1       22.443 -18.198   5.334  0.00  0.00    +0.011 C 
ATOM     20  C   LIG    1       23.753 -21.572   3.773  0.00  0.00    +0.049 C 
ENDROOT
BRANCH   1  22
ATOM     21  C   LIG    1       25.908 -20.653   6.350  0.00  0.00    +0.007 C 
ATOM     22  C   LIG    1       24.847 -20.621   5.754  0.00  0.00    -0.070 C 
ENDBRANCH   1  22
BRANCH   1  23
ATOM     23  O   LIG    1       22.784 -21.571   5.991  0.00  0.00    -0.376 OA
ATOM     24  H   LIG    1       21.852 -21.319   5.867  0.00  0.00    +0.211 HD
ENDBRANCH   1  23
TORSDOF 2
ENDMDL
MODEL 2
REMARK VINA RESULT:       5.2      1.371      6.595
REMARK  Name = *****
REMARK                            x       y       z     vdW  Elec       q    Type
REMARK                         _______ _______ _______ _____ _____    ______ ____
ROOT
ATOM      1  C   LIG    1       26.685 -12.845   4.162  0.00  0.00    +0.132 C 
ATOM      2  C   LIG    1       27.177 -14.195   3.484  0.00  0.00    +0.011 C 
ATOM      3  C   LIG    1       28.535 -13.753   2.776  0.00  0.00    +0.015 C 
ATOM      4  C   LIG    1       26.054 -14.522   2.464  0.00  0.00    +0.003 C 
ATOM      5  C   LIG    1       25.020 -15.638   2.842  0.00  0.00    +0.003 C 
ATOM      6  C   LIG    1       25.687 -16.979   3.216  0.00  0.00    +0.019 C 
ATOM      7  C   LIG    1       26.756 -16.757   4.313  0.00  0.00    +0.009 C 
ATOM      8  C   LIG    1       24.630 -18.047   3.632  0.00  0.00    -0.066 C 
ATOM      9  C   LIG    1       25.160 -19.448   3.909  0.00  0.00    +0.038 C 
ATOM     10  C   LIG    1       24.084 -20.460   4.295  0.00  0.00    +0.079 C 
ATOM     11  C   LIG    1       23.133 -19.760   5.220  0.00  0.00    +0.138 C 
ATOM     12  O   LIG    1       23.023 -20.050   6.409  0.00  0.00    -0.297 OA
ATOM     13  C   LIG    1       22.345 -18.655   4.562  0.00  0.00    +0.105 C 
ATOM     14  C   LIG    1       23.317 -17.743   3.842  0.00  0.00    -0.063 C 
ATOM     15  C   LIG    1       22.766 -16.352   3.619  0.00  0.00    +0.034 C 
ATOM     16  C   LIG    1       23.878 -15.327   3.861  0.00  0.00    -0.006 C 
ATOM     17  C   LIG    1       24.212 -15.441   5.359  0.00  0.00    +0.008 C 
ATOM     18  C   LIG    1       25.380 -13.181   2.110  0.00  0.00    +0.008 C 
ATOM     19  C   LIG    1       27.639 -15.495   4.208  0.00  0.00    +0.011 C 
ATOM     20  C   LIG    1       26.081 -12.106   2.935  0.00  0.00    +0.049 C 
ENDROOT
BRANCH   1  22
ATOM     21  C   LIG    1       24.837 -12.702   6.086  0.00  0.00    +0.007 C 
ATOM     22  C   LIG    1       25.704 -12.848   5.244  0.00  0.00    -0.070 C 
ENDBRANCH   1  22
BRANCH   1  23
ATOM     23  O   LIG    1       27.773 -12.075   4.665  0.00  0.00    -0.376 OA
ATOM     24  H   LIG    1       27.945 -11.368   4.018  0.00  0.00    +0.211 HD
ENDBRANCH   1  23
TORSDOF 2
ENDMDL
MODEL 3
REMARK VINA RESULT:       5.5      2.345      6.426
REMARK  Name = *****
REMARK                            x       y       z     vdW  Elec       q    Type
REMARK                         _______ _______ _______ _____ _____    ______ ____
ROOT
ATOM      1  C   LIG    1       25.026 -12.822   3.971  0.00  0.00    +0.132 C 
ATOM      2  C   LIG    1       26.537 -13.296   4.086  0.00  0.00    +0.011 C 
ATOM      3  C   LIG    1       27.343 -11.929   3.938  0.00  0.00    +0.015 C 
ATOM      4  C   LIG    1       26.722 -14.231   2.861  0.00  0.00    +0.003 C 
ATOM      5  C   LIG    1       26.708 -15.779   3.109  0.00  0.00    +0.003 C 
ATOM      6  C   LIG    1       27.731 -16.231   4.172  0.00  0.00    +0.019 C 
ATOM      7  C   LIG    1       27.546 -15.414   5.474  0.00  0.00    +0.009 C 
ATOM      8  C   LIG    1       27.653 -17.767   4.425  0.00  0.00    -0.066 C 
ATOM      9  C   LIG    1       28.698 -18.349   5.369  0.00  0.00    +0.038 C 
ATOM     10  C   LIG    1       28.589 -19.859   5.569  0.00  0.00    +0.079 C 
ATOM     11  C   LIG    1       27.129 -20.184   5.682  0.00  0.00    +0.138 C 
ATOM     12  O   LIG    1       26.612 -20.586   6.723  0.00  0.00    -0.297 OA
ATOM     13  C   LIG    1       26.351 -19.949   4.411  0.00  0.00    +0.105 C 
ATOM     14  C   LIG    1       26.653 -18.547   3.922  0.00  0.00    -0.063 C 
ATOM     15  C   LIG    1       25.575 -17.993   3.018  0.00  0.00    +0.034 C 
ATOM     16  C   LIG    1       25.352 -16.515   3.351  0.00  0.00    -0.006 C 
ATOM     17  C   LIG    1       24.784 -16.506   4.782  0.00  0.00    +0.008 C 
ATOM     18  C   LIG    1       25.684 -13.786   1.812  0.00  0.00    +0.008 C 
ATOM     19  C   LIG    1       27.237 -13.908   5.338  0.00  0.00    +0.011 C 
ATOM     20  C   LIG    1       24.895 -12.637   2.434  0.00  0.00    +0.049 C 
ENDROOT
BRANCH   1  22
ATOM     21  C   LIG    1       23.015 -14.428   4.689  0.00  0.00    +0.007 C 
ATOM     22  C   LIG    1       23.925 -13.657   4.445  0.00  0.00    -0.070 C 
ENDBRANCH   1  22
BRANCH   1  23
ATOM     23  O   LIG    1       24.814 -11.560   4.599  0.00  0.00    -0.376 OA
ATOM     24  H   LIG    1       25.502 -10.957   4.266  0.00  0.00    +0.211 HD
ENDBRANCH   1  23
TORSDOF 2
ENDMDL
