MODEL 1
REMARK VINA RESULT:      -7.6      0.000      0.000
REMARK  Name = *****
REMARK                            x       y       z     vdW  Elec       q    Type
REMARK                         _______ _______ _______ _____ _____    ______ ____
ROOT
ATOM      1  C   LIG    1       26.133 -29.105  12.084  0.00  0.00    +0.250 C 
ATOM      2  C   LIG    1       25.019 -28.141  12.590  0.00  0.00    +0.092 C 
ATOM      3  C   LIG    1       24.112 -29.063  13.527  0.00  0.00    +0.054 C 
ATOM      4  N   LIG    1       23.179 -28.565  14.573  0.00  0.00    -0.292 NA
ATOM      5  C   LIG    1       22.954 -27.128  14.738  0.00  0.00    +0.090 C 
ATOM      6  C   LIG    1       23.180 -26.184  13.551  0.00  0.00    +0.051 C 
ATOM      7  C   LIG    1       24.647 -25.844  13.583  0.00  0.00    -0.039 A 
ATOM      8  C   LIG    1       25.045 -24.641  14.195  0.00  0.00    +0.053 A 
ATOM      9  C   LIG    1       26.361 -24.507  14.556  0.00  0.00    +0.167 A 
ATOM     10  O   LIG    1       26.890 -23.468  15.255  0.00  0.00    -0.453 OA
ATOM     11  C   LIG    1       28.222 -23.966  15.498  0.00  0.00    +0.466 C 
ATOM     12  O   LIG    1       28.505 -25.198  14.799  0.00  0.00    -0.453 OA
ATOM     13  C   LIG    1       27.274 -25.495  14.298  0.00  0.00    +0.167 A 
ATOM     14  C   LIG    1       26.924 -26.666  13.643  0.00  0.00    +0.054 A 
ATOM     15  C   LIG    1       21.881 -29.263  14.445  0.00  0.00    +0.085 C 
ATOM     16  C   LIG    1       21.753 -29.504  12.984  0.00  0.00    +0.017 C 
ATOM     17  C   LIG    1       23.152 -29.943  12.700  0.00  0.00    +0.029 C 
ATOM     18  C   LIG    1       25.224 -29.957  14.067  0.00  0.00    +0.041 C 
ATOM     19  C   LIG    1       25.579 -26.866  13.268  0.00  0.00    -0.031 A 
ATOM     20  C   LIG    1       26.300 -30.011  13.259  0.00  0.00    +0.136 C 
ENDROOT
BRANCH  20  21
ATOM     21  O   LIG    1       27.460 -30.665  13.598  0.00  0.00    -0.496 OA
ATOM     22  C   LIG    1       28.589 -29.892  13.996  0.00  0.00    +0.277 C 
ENDBRANCH  20  21
BRANCH   1  23
ATOM     23  O   LIG    1       25.856 -29.710  10.796  0.00  0.00    -0.451 OA
BRANCH  23  24
ATOM     24  C   LIG    1       26.422 -29.413   9.582  0.00  0.00    +0.340 C 
ATOM     25  O   LIG    1       27.337 -28.646   9.398  0.00  0.00    -0.248 OA
BRANCH  24  26
ATOM     26  C   LIG    1       25.505 -30.024   8.480  0.00  0.00    +0.172 C 
BRANCH  26  27
ATOM     27  O   LIG    1       26.345 -30.829   7.609  0.00  0.00    -0.377 OA
ATOM     28  H   LIG    1       26.056 -31.759   7.696  0.00  0.00    +0.211 HD
ENDBRANCH  26  27
BRANCH  26  29
ATOM     29  C   LIG    1       24.675 -30.925   9.370  0.00  0.00    +0.166 C 
BRANCH  29  30
ATOM     30  C   LIG    1       23.557 -31.653   8.716  0.00  0.00    +0.310 C 
ATOM     31  O   LIG    1       22.367 -31.617   9.048  0.00  0.00    -0.251 OA
BRANCH  30  33
ATOM     32  C   LIG    1       23.450 -32.593   6.577  0.00  0.00    +0.280 C 
ATOM     33  O   LIG    1       24.102 -32.539   7.835  0.00  0.00    -0.468 OA
ENDBRANCH  30  33
ENDBRANCH  29  30
ENDBRANCH  26  29
BRANCH  26  34
ATOM     34  C   LIG    1       24.715 -29.116   7.494  0.00  0.00    +0.047 C 
BRANCH  34  35
ATOM     35  C   LIG    1       25.242 -27.782   6.923  0.00  0.00    +0.006 C 
BRANCH  35  36
ATOM     36  C   LIG    1       24.331 -26.957   6.005  0.00  0.00    +0.034 C 
BRANCH  36  37
ATOM     37  C   LIG    1       24.616 -25.429   5.953  0.00  0.00    +0.060 C 
ATOM     38  C   LIG    1       25.982 -25.151   6.577  0.00  0.00    +0.041 C 
ATOM     39  C   LIG    1       23.520 -24.554   6.572  0.00  0.00    +0.041 C 
BRANCH  37  40
ATOM     40  O   LIG    1       24.700 -25.041   4.571  0.00  0.00    -0.389 OA
ATOM     41  H   LIG    1       24.452 -25.815   4.032  0.00  0.00    +0.210 HD
ENDBRANCH  37  40
ENDBRANCH  36  37
ENDBRANCH  35  36
ENDBRANCH  34  35
ENDBRANCH  26  34
ENDBRANCH  24  26
ENDBRANCH  23  24
ENDBRANCH   1  23
TORSDOF 13
ENDMDL
MODEL 2
REMARK VINA RESULT:      -7.3      1.307      1.859
REMARK  Name = *****
REMARK                            x       y       z     vdW  Elec       q    Type
REMARK                         _______ _______ _______ _____ _____    ______ ____
ROOT
ATOM      1  C   LIG    1       25.138 -29.930  11.684  0.00  0.00    +0.250 C 
ATOM      2  C   LIG    1       23.905 -29.143  12.218  0.00  0.00    +0.092 C 
ATOM      3  C   LIG    1       23.191 -30.174  13.207  0.00  0.00    +0.054 C 
ATOM      4  N   LIG    1       22.230 -29.805  14.281  0.00  0.00    -0.292 NA
ATOM      5  C   LIG    1       21.788 -28.417  14.432  0.00  0.00    +0.090 C 
ATOM      6  C   LIG    1       21.817 -27.477  13.220  0.00  0.00    +0.051 C 
ATOM      7  C   LIG    1       23.211 -26.910  13.187  0.00  0.00    -0.039 A 
ATOM      8  C   LIG    1       23.436 -25.645  13.762  0.00  0.00    +0.053 A 
ATOM      9  C   LIG    1       24.727 -25.298  14.067  0.00  0.00    +0.167 A 
ATOM     10  O   LIG    1       25.112 -24.173  14.726  0.00  0.00    -0.453 OA
ATOM     11  C   LIG    1       26.514 -24.449  14.923  0.00  0.00    +0.466 C 
ATOM     12  O   LIG    1       26.962 -25.637  14.234  0.00  0.00    -0.453 OA
ATOM     13  C   LIG    1       25.775 -26.136  13.788  0.00  0.00    +0.167 A 
ATOM     14  C   LIG    1       25.591 -27.362  13.168  0.00  0.00    +0.054 A 
ATOM     15  C   LIG    1       21.055 -30.701  14.218  0.00  0.00    +0.085 C 
ATOM     16  C   LIG    1       20.913 -30.993  12.767  0.00  0.00    +0.017 C 
ATOM     17  C   LIG    1       22.352 -31.213  12.434  0.00  0.00    +0.029 C 
ATOM     18  C   LIG    1       24.450 -30.869  13.716  0.00  0.00    +0.041 C 
ATOM     19  C   LIG    1       24.280 -27.780  12.851  0.00  0.00    -0.031 A 
ATOM     20  C   LIG    1       25.490 -30.772  12.866  0.00  0.00    +0.136 C 
ENDROOT
BRANCH  20  21
ATOM     21  O   LIG    1       26.750 -31.227  13.168  0.00  0.00    -0.496 OA
ATOM     22  C   LIG    1       27.585 -30.426  14.001  0.00  0.00    +0.277 C 
ENDBRANCH  20  21
BRANCH   1  23
ATOM     23  O   LIG    1       24.911 -30.601  10.418  0.00  0.00    -0.451 OA
BRANCH  23  24
ATOM     24  C   LIG    1       24.198 -30.148   9.336  0.00  0.00    +0.340 C 
ATOM     25  O   LIG    1       23.003 -30.241   9.188  0.00  0.00    -0.248 OA
BRANCH  24  26
ATOM     26  C   LIG    1       25.229 -29.750   8.237  0.00  0.00    +0.172 C 
BRANCH  26  27
ATOM     27  O   LIG    1       26.495 -30.376   8.578  0.00  0.00    -0.377 OA
ATOM     28  H   LIG    1       26.299 -31.260   8.946  0.00  0.00    +0.211 HD
ENDBRANCH  26  27
BRANCH  26  29
ATOM     29  C   LIG    1       24.591 -30.479   7.073  0.00  0.00    +0.166 C 
BRANCH  29  30
ATOM     30  C   LIG    1       25.099 -31.847   6.792  0.00  0.00    +0.310 C 
ATOM     31  O   LIG    1       24.804 -32.877   7.407  0.00  0.00    -0.251 OA
BRANCH  30  33
ATOM     32  C   LIG    1       27.138 -32.703   6.031  0.00  0.00    +0.280 C 
ATOM     33  O   LIG    1       26.114 -31.733   5.890  0.00  0.00    -0.468 OA
ENDBRANCH  30  33
ENDBRANCH  29  30
ENDBRANCH  26  29
BRANCH  26  34
ATOM     34  C   LIG    1       25.609 -28.261   7.990  0.00  0.00    +0.047 C 
BRANCH  34  35
ATOM     35  C   LIG    1       25.598 -27.575   6.607  0.00  0.00    +0.006 C 
BRANCH  35  36
ATOM     36  C   LIG    1       24.365 -26.763   6.192  0.00  0.00    +0.034 C 
BRANCH  36  37
ATOM     37  C   LIG    1       24.569 -25.227   6.065  0.00  0.00    +0.060 C 
ATOM     38  C   LIG    1       25.912 -24.845   6.687  0.00  0.00    +0.041 C 
ATOM     39  C   LIG    1       23.421 -24.381   6.628  0.00  0.00    +0.041 C 
BRANCH  37  40
ATOM     40  O   LIG    1       24.650 -24.905   4.666  0.00  0.00    -0.389 OA
ATOM     41  H   LIG    1       23.809 -25.175   4.252  0.00  0.00    +0.210 HD
ENDBRANCH  37  40
ENDBRANCH  36  37
ENDBRANCH  35  36
ENDBRANCH  34  35
ENDBRANCH  26  34
ENDBRANCH  24  26
ENDBRANCH  23  24
ENDBRANCH   1  23
TORSDOF 13
ENDMDL
MODEL 3
REMARK VINA RESULT:      -6.9      2.371      3.314
REMARK  Name = *****
REMARK                            x       y       z     vdW  Elec       q    Type
REMARK                         _______ _______ _______ _____ _____    ______ ____
ROOT
ATOM      1  C   LIG    1       25.137 -29.701  10.704  0.00  0.00    +0.250 C 
ATOM      2  C   LIG    1       23.632 -29.906  11.047  0.00  0.00    +0.092 C 
ATOM      3  C   LIG    1       23.544 -31.438  11.490  0.00  0.00    +0.054 C 
ATOM      4  N   LIG    1       22.449 -32.034  12.301  0.00  0.00    -0.292 NA
ATOM      5  C   LIG    1       21.282 -31.230  12.671  0.00  0.00    +0.090 C 
ATOM      6  C   LIG    1       20.884 -30.029  11.803  0.00  0.00    +0.051 C 
ATOM      7  C   LIG    1       21.701 -28.874  12.318  0.00  0.00    -0.039 A 
ATOM      8  C   LIG    1       21.110 -27.989  13.239  0.00  0.00    +0.053 A 
ATOM      9  C   LIG    1       21.937 -27.184  13.980  0.00  0.00    +0.167 A 
ATOM     10  O   LIG    1       21.548 -26.360  14.988  0.00  0.00    -0.453 OA
ATOM     11  C   LIG    1       22.830 -25.945  15.500  0.00  0.00    +0.466 C 
ATOM     12  O   LIG    1       23.938 -26.390  14.686  0.00  0.00    -0.453 OA
ATOM     13  C   LIG    1       23.296 -27.208  13.807  0.00  0.00    +0.167 A 
ATOM     14  C   LIG    1       23.903 -28.025  12.865  0.00  0.00    +0.054 A 
ATOM     15  C   LIG    1       22.007 -33.299  11.675  0.00  0.00    +0.085 C 
ATOM     16  C   LIG    1       22.193 -33.056  10.221  0.00  0.00    +0.017 C 
ATOM     17  C   LIG    1       23.525 -32.381  10.269  0.00  0.00    +0.029 C 
ATOM     18  C   LIG    1       24.920 -31.538  12.140  0.00  0.00    +0.041 C 
ATOM     19  C   LIG    1       23.102 -28.890  12.090  0.00  0.00    -0.031 A 
ATOM     20  C   LIG    1       25.793 -30.623  11.679  0.00  0.00    +0.136 C 
ENDROOT
BRANCH  20  21
ATOM     21  O   LIG    1       27.053 -30.459  12.202  0.00  0.00    -0.496 OA
ATOM     22  C   LIG    1       27.566 -29.136  12.346  0.00  0.00    +0.277 C 
ENDBRANCH  20  21
BRANCH   1  23
ATOM     23  O   LIG    1       25.454 -29.865   9.299  0.00  0.00    -0.451 OA
BRANCH  23  24
ATOM     24  C   LIG    1       25.827 -28.900   8.397  0.00  0.00    +0.340 C 
ATOM     25  O   LIG    1       26.459 -27.903   8.651  0.00  0.00    -0.248 OA
BRANCH  24  26
ATOM     26  C   LIG    1       25.065 -29.187   7.069  0.00  0.00    +0.172 C 
BRANCH  26  27
ATOM     27  O   LIG    1       26.058 -29.338   6.019  0.00  0.00    -0.377 OA
ATOM     28  H   LIG    1       25.735 -28.852   5.234  0.00  0.00    +0.211 HD
ENDBRANCH  26  27
BRANCH  26  29
ATOM     29  C   LIG    1       24.497 -30.541   7.437  0.00  0.00    +0.166 C 
BRANCH  29  30
ATOM     30  C   LIG    1       24.275 -31.493   6.317  0.00  0.00    +0.310 C 
ATOM     31  O   LIG    1       23.200 -31.717   5.751  0.00  0.00    -0.251 OA
BRANCH  30  33
ATOM     32  C   LIG    1       25.754 -32.534   4.835  0.00  0.00    +0.280 C 
ATOM     33  O   LIG    1       25.409 -32.235   6.177  0.00  0.00    -0.468 OA
ENDBRANCH  30  33
ENDBRANCH  29  30
ENDBRANCH  26  29
BRANCH  26  34
ATOM     34  C   LIG    1       24.058 -28.157   6.479  0.00  0.00    +0.047 C 
BRANCH  34  35
ATOM     35  C   LIG    1       24.464 -26.847   5.771  0.00  0.00    +0.006 C 
BRANCH  35  36
ATOM     36  C   LIG    1       23.790 -25.536   6.196  0.00  0.00    +0.034 C 
BRANCH  36  37
ATOM     37  C   LIG    1       24.655 -24.250   6.069  0.00  0.00    +0.060 C 
ATOM     38  C   LIG    1       26.001 -24.480   6.755  0.00  0.00    +0.041 C 
ATOM     39  C   LIG    1       23.975 -22.970   6.567  0.00  0.00    +0.041 C 
BRANCH  37  40
ATOM     40  O   LIG    1       24.929 -24.037   4.673  0.00  0.00    -0.389 OA
ATOM     41  H   LIG    1       25.896 -24.053   4.556  0.00  0.00    +0.210 HD
ENDBRANCH  37  40
ENDBRANCH  36  37
ENDBRANCH  35  36
ENDBRANCH  34  35
ENDBRANCH  26  34
ENDBRANCH  24  26
ENDBRANCH  23  24
ENDBRANCH   1  23
TORSDOF 13
ENDMDL
MODEL 4
REMARK VINA RESULT:      -6.8      2.462      4.424
REMARK  Name = *****
REMARK                            x       y       z     vdW  Elec       q    Type
REMARK                         _______ _______ _______ _____ _____    ______ ____
ROOT
ATOM      1  C   LIG    1       24.139 -29.364  11.366  0.00  0.00    +0.250 C 
ATOM      2  C   LIG    1       23.219 -30.334  12.164  0.00  0.00    +0.092 C 
ATOM      3  C   LIG    1       24.194 -30.977  13.254  0.00  0.00    +0.054 C 
ATOM      4  N   LIG    1       23.755 -31.636  14.513  0.00  0.00    -0.292 NA
ATOM      5  C   LIG    1       22.330 -31.831  14.787  0.00  0.00    +0.090 C 
ATOM      6  C   LIG    1       21.338 -31.909  13.619  0.00  0.00    +0.051 C 
ATOM      7  C   LIG    1       20.968 -30.483  13.311  0.00  0.00    -0.039 A 
ATOM      8  C   LIG    1       19.780 -29.963  13.858  0.00  0.00    +0.053 A 
ATOM      9  C   LIG    1       19.631 -28.600  13.896  0.00  0.00    +0.167 A 
ATOM     10  O   LIG    1       18.609 -27.930  14.489  0.00  0.00    -0.453 OA
ATOM     11  C   LIG    1       19.086 -26.573  14.383  0.00  0.00    +0.466 C 
ATOM     12  O   LIG    1       20.286 -26.453  13.587  0.00  0.00    -0.453 OA
ATOM     13  C   LIG    1       20.590 -27.765  13.385  0.00  0.00    +0.167 A 
ATOM     14  C   LIG    1       21.743 -28.249  12.786  0.00  0.00    +0.054 A 
ATOM     15  C   LIG    1       24.475 -32.918  14.673  0.00  0.00    +0.085 C 
ATOM     16  C   LIG    1       24.665 -33.392  13.277  0.00  0.00    +0.017 C 
ATOM     17  C   LIG    1       25.063 -32.098  12.647  0.00  0.00    +0.029 C 
ATOM     18  C   LIG    1       25.083 -29.757  13.473  0.00  0.00    +0.041 C 
ATOM     19  C   LIG    1       21.958 -29.643  12.739  0.00  0.00    -0.031 A 
ATOM     20  C   LIG    1       25.085 -28.908  12.428  0.00  0.00    +0.136 C 
ENDROOT
BRANCH  20  21
ATOM     21  O   LIG    1       25.726 -27.693  12.450  0.00  0.00    -0.496 OA
ATOM     22  C   LIG    1       26.947 -27.551  11.729  0.00  0.00    +0.277 C 
ENDBRANCH  20  21
BRANCH   1  23
ATOM     23  O   LIG    1       24.702 -29.937  10.159  0.00  0.00    -0.451 OA
BRANCH  23  24
ATOM     24  C   LIG    1       24.098 -30.098   8.937  0.00  0.00    +0.340 C 
ATOM     25  O   LIG    1       23.041 -30.649   8.738  0.00  0.00    -0.248 OA
BRANCH  24  26
ATOM     26  C   LIG    1       25.138 -29.694   7.849  0.00  0.00    +0.172 C 
BRANCH  26  27
ATOM     27  O   LIG    1       26.354 -30.448   8.105  0.00  0.00    -0.377 OA
ATOM     28  H   LIG    1       26.094 -31.365   8.322  0.00  0.00    +0.211 HD
ENDBRANCH  26  27
BRANCH  26  29
ATOM     29  C   LIG    1       24.422 -30.267   6.645  0.00  0.00    +0.166 C 
BRANCH  29  30
ATOM     30  C   LIG    1       25.192 -31.226   5.812  0.00  0.00    +0.310 C 
ATOM     31  O   LIG    1       25.941 -30.941   4.872  0.00  0.00    -0.251 OA
BRANCH  30  33
ATOM     32  C   LIG    1       23.382 -32.707   5.836  0.00  0.00    +0.280 C 
ATOM     33  O   LIG    1       24.753 -32.480   6.115  0.00  0.00    -0.468 OA
ENDBRANCH  30  33
ENDBRANCH  29  30
ENDBRANCH  26  29
BRANCH  26  34
ATOM     34  C   LIG    1       25.637 -28.225   7.718  0.00  0.00    +0.047 C 
BRANCH  34  35
ATOM     35  C   LIG    1       25.590 -27.401   6.414  0.00  0.00    +0.006 C 
BRANCH  35  36
ATOM     36  C   LIG    1       24.337 -26.571   6.106  0.00  0.00    +0.034 C 
BRANCH  36  37
ATOM     37  C   LIG    1       24.530 -25.028   6.075  0.00  0.00    +0.060 C 
ATOM     38  C   LIG    1       25.853 -24.673   6.753  0.00  0.00    +0.041 C 
ATOM     39  C   LIG    1       23.360 -24.227   6.657  0.00  0.00    +0.041 C 
BRANCH  37  40
ATOM     40  O   LIG    1       24.643 -24.624   4.700  0.00  0.00    -0.389 OA
ATOM     41  H   LIG    1       25.163 -23.800   4.676  0.00  0.00    +0.210 HD
ENDBRANCH  37  40
ENDBRANCH  36  37
ENDBRANCH  35  36
ENDBRANCH  34  35
ENDBRANCH  26  34
ENDBRANCH  24  26
ENDBRANCH  23  24
ENDBRANCH   1  23
TORSDOF 13
ENDMDL
MODEL 5
REMARK VINA RESULT:      -6.8      3.092      7.266
REMARK  Name = *****
REMARK                            x       y       z     vdW  Elec       q    Type
REMARK                         _______ _______ _______ _____ _____    ______ ____
ROOT
ATOM      1  C   LIG    1       23.524 -29.943  13.010  0.00  0.00    +0.250 C 
ATOM      2  C   LIG    1       24.803 -29.354  12.345  0.00  0.00    +0.092 C 
ATOM      3  C   LIG    1       26.002 -30.044  13.143  0.00  0.00    +0.054 C 
ATOM      4  N   LIG    1       27.402 -30.159  12.654  0.00  0.00    -0.292 NA
ATOM      5  C   LIG    1       27.800 -29.525  11.396  0.00  0.00    +0.090 C 
ATOM      6  C   LIG    1       27.017 -28.311  10.879  0.00  0.00    +0.051 C 
ATOM      7  C   LIG    1       25.864 -28.881  10.096  0.00  0.00    -0.039 A 
ATOM      8  C   LIG    1       25.987 -28.987   8.698  0.00  0.00    +0.053 A 
ATOM      9  C   LIG    1       25.127 -29.826   8.038  0.00  0.00    +0.167 A 
ATOM     10  O   LIG    1       25.178 -30.135   6.715  0.00  0.00    -0.453 OA
ATOM     11  C   LIG    1       24.186 -31.179   6.649  0.00  0.00    +0.466 C 
ATOM     12  O   LIG    1       23.454 -31.347   7.884  0.00  0.00    -0.453 OA
ATOM     13  C   LIG    1       24.151 -30.516   8.708  0.00  0.00    +0.167 A 
ATOM     14  C   LIG    1       23.967 -30.387  10.076  0.00  0.00    +0.054 A 
ATOM     15  C   LIG    1       28.333 -29.759  13.732  0.00  0.00    +0.085 C 
ATOM     16  C   LIG    1       27.586 -28.709  14.471  0.00  0.00    +0.017 C 
ATOM     17  C   LIG    1       26.243 -29.362  14.506  0.00  0.00    +0.029 C 
ATOM     18  C   LIG    1       25.326 -31.387  13.401  0.00  0.00    +0.041 C 
ATOM     19  C   LIG    1       24.838 -29.553  10.809  0.00  0.00    -0.031 A 
ATOM     20  C   LIG    1       23.981 -31.317  13.372  0.00  0.00    +0.136 C 
ENDROOT
BRANCH  20  21
ATOM     21  O   LIG    1       23.171 -32.423  13.468  0.00  0.00    -0.496 OA
ATOM     22  C   LIG    1       22.079 -32.551  12.561  0.00  0.00    +0.277 C 
ENDBRANCH  20  21
BRANCH   1  23
ATOM     23  O   LIG    1       22.968 -29.115  14.063  0.00  0.00    -0.451 OA
BRANCH  23  24
ATOM     24  C   LIG    1       21.648 -28.953  14.403  0.00  0.00    +0.340 C 
ATOM     25  O   LIG    1       20.951 -29.779  14.944  0.00  0.00    -0.248 OA
BRANCH  24  26
ATOM     26  C   LIG    1       21.153 -27.638  13.728  0.00  0.00    +0.172 C 
BRANCH  26  27
ATOM     27  O   LIG    1       20.421 -28.012  12.529  0.00  0.00    -0.377 OA
ATOM     28  H   LIG    1       20.381 -28.988  12.499  0.00  0.00    +0.211 HD
ENDBRANCH  26  27
BRANCH  26  29
ATOM     29  C   LIG    1       20.186 -27.196  14.805  0.00  0.00    +0.166 C 
BRANCH  29  30
ATOM     30  C   LIG    1       18.834 -26.781  14.350  0.00  0.00    +0.310 C 
ATOM     31  O   LIG    1       18.576 -25.849  13.580  0.00  0.00    -0.251 OA
BRANCH  30  33
ATOM     32  C   LIG    1       17.551 -28.722  14.582  0.00  0.00    +0.280 C 
ATOM     33  O   LIG    1       17.920 -27.456  15.101  0.00  0.00    -0.468 OA
ENDBRANCH  30  33
ENDBRANCH  29  30
ENDBRANCH  26  29
BRANCH  26  34
ATOM     34  C   LIG    1       22.160 -26.563  13.224  0.00  0.00    +0.047 C 
BRANCH  34  35
ATOM     35  C   LIG    1       23.309 -25.979  14.072  0.00  0.00    +0.006 C 
BRANCH  35  36
ATOM     36  C   LIG    1       24.756 -26.208  13.617  0.00  0.00    +0.034 C 
BRANCH  36  37
ATOM     37  C   LIG    1       25.775 -25.093  13.989  0.00  0.00    +0.060 C 
ATOM     38  C   LIG    1       27.083 -25.337  13.239  0.00  0.00    +0.041 C 
ATOM     39  C   LIG    1       26.007 -24.916  15.494  0.00  0.00    +0.041 C 
BRANCH  37  40
ATOM     40  O   LIG    1       25.250 -23.840  13.519  0.00  0.00    -0.389 OA
ATOM     41  H   LIG    1       24.564 -23.552  14.148  0.00  0.00    +0.210 HD
ENDBRANCH  37  40
ENDBRANCH  36  37
ENDBRANCH  35  36
ENDBRANCH  34  35
ENDBRANCH  26  34
ENDBRANCH  24  26
ENDBRANCH  23  24
ENDBRANCH   1  23
TORSDOF 13
ENDMDL
MODEL 6
REMARK VINA RESULT:      -6.0      2.053      4.446
REMARK  Name = *****
REMARK                            x       y       z     vdW  Elec       q    Type
REMARK                         _______ _______ _______ _____ _____    ______ ____
ROOT
ATOM      1  C   LIG    1       23.404 -30.305  10.825  0.00  0.00    +0.250 C 
ATOM      2  C   LIG    1       22.257 -29.567  11.577  0.00  0.00    +0.092 C 
ATOM      3  C   LIG    1       21.467 -30.742  12.317  0.00  0.00    +0.054 C 
ATOM      4  N   LIG    1       20.561 -30.562  13.483  0.00  0.00    -0.292 NA
ATOM      5  C   LIG    1       20.250 -29.219  13.977  0.00  0.00    +0.090 C 
ATOM      6  C   LIG    1       20.347 -28.021  13.025  0.00  0.00    +0.051 C 
ATOM      7  C   LIG    1       21.787 -27.583  13.076  0.00  0.00    -0.039 A 
ATOM      8  C   LIG    1       22.136 -26.519  13.928  0.00  0.00    +0.053 A 
ATOM      9  C   LIG    1       23.458 -26.366  14.258  0.00  0.00    +0.167 A 
ATOM     10  O   LIG    1       23.955 -25.471  15.153  0.00  0.00    -0.453 OA
ATOM     11  C   LIG    1       25.328 -25.905  15.225  0.00  0.00    +0.466 C 
ATOM     12  O   LIG    1       25.654 -26.926  14.256  0.00  0.00    -0.453 OA
ATOM     13  C   LIG    1       24.420 -27.199  13.749  0.00  0.00    +0.167 A 
ATOM     14  C   LIG    1       24.114 -28.219  12.861  0.00  0.00    +0.054 A 
ATOM     15  C   LIG    1       19.308 -31.313  13.252  0.00  0.00    +0.085 C 
ATOM     16  C   LIG    1       19.117 -31.233  11.780  0.00  0.00    +0.017 C 
ATOM     17  C   LIG    1       20.525 -31.488  11.351  0.00  0.00    +0.029 C 
ATOM     18  C   LIG    1       22.665 -31.644  12.598  0.00  0.00    +0.041 C 
ATOM     19  C   LIG    1       22.766 -28.434  12.503  0.00  0.00    -0.031 A 
ATOM     20  C   LIG    1       23.696 -31.434  11.758  0.00  0.00    +0.136 C 
ENDROOT
BRANCH  20  21
ATOM     21  O   LIG    1       24.914 -32.055  11.896  0.00  0.00    -0.496 OA
ATOM     22  C   LIG    1       24.949 -33.384  12.411  0.00  0.00    +0.277 C 
ENDBRANCH  20  21
BRANCH   1  23
ATOM     23  O   LIG    1       23.097 -30.629   9.445  0.00  0.00    -0.451 OA
BRANCH  23  24
ATOM     24  C   LIG    1       23.923 -31.192   8.504  0.00  0.00    +0.340 C 
ATOM     25  O   LIG    1       24.031 -32.373   8.274  0.00  0.00    -0.248 OA
BRANCH  24  26
ATOM     26  C   LIG    1       24.876 -30.069   7.993  0.00  0.00    +0.172 C 
BRANCH  26  27
ATOM     27  O   LIG    1       26.158 -30.685   7.696  0.00  0.00    -0.377 OA
ATOM     28  H   LIG    1       26.849 -30.164   8.149  0.00  0.00    +0.211 HD
ENDBRANCH  26  27
BRANCH  26  29
ATOM     29  C   LIG    1       24.150 -29.744   6.705  0.00  0.00    +0.166 C 
BRANCH  29  30
ATOM     30  C   LIG    1       24.813 -28.770   5.800  0.00  0.00    +0.310 C 
ATOM     31  O   LIG    1       25.937 -28.884   5.300  0.00  0.00    -0.251 OA
BRANCH  30  33
ATOM     32  C   LIG    1       24.776 -26.460   6.163  0.00  0.00    +0.280 C 
ATOM     33  O   LIG    1       24.064 -27.631   5.801  0.00  0.00    -0.468 OA
ENDBRANCH  30  33
ENDBRANCH  29  30
ENDBRANCH  26  29
BRANCH  26  34
ATOM     34  C   LIG    1       25.250 -28.857   8.896  0.00  0.00    +0.047 C 
BRANCH  34  35
ATOM     35  C   LIG    1       26.686 -28.518   9.350  0.00  0.00    +0.006 C 
BRANCH  35  36
ATOM     36  C   LIG    1       26.973 -28.374  10.850  0.00  0.00    +0.034 C 
BRANCH  36  37
ATOM     37  C   LIG    1       27.643 -29.597  11.539  0.00  0.00    +0.060 C 
ATOM     38  C   LIG    1       26.947 -29.867  12.872  0.00  0.00    +0.041 C 
ATOM     39  C   LIG    1       29.163 -29.483  11.704  0.00  0.00    +0.041 C 
BRANCH  37  40
ATOM     40  O   LIG    1       27.419 -30.749  10.710  0.00  0.00    -0.389 OA
ATOM     41  H   LIG    1       28.267 -30.977  10.284  0.00  0.00    +0.210 HD
ENDBRANCH  37  40
ENDBRANCH  36  37
ENDBRANCH  35  36
ENDBRANCH  34  35
ENDBRANCH  26  34
ENDBRANCH  24  26
ENDBRANCH  23  24
ENDBRANCH   1  23
TORSDOF 13
ENDMDL
MODEL 7
REMARK VINA RESULT:      -5.7      3.558      8.012
REMARK  Name = *****
REMARK                            x       y       z     vdW  Elec       q    Type
REMARK                         _______ _______ _______ _____ _____    ______ ____
ROOT
ATOM      1  C   LIG    1       22.672 -31.195  10.373  0.00  0.00    +0.250 C 
ATOM      2  C   LIG    1       23.758 -30.242   9.792  0.00  0.00    +0.092 C 
ATOM      3  C   LIG    1       24.923 -30.278  10.884  0.00  0.00    +0.054 C 
ATOM      4  N   LIG    1       26.338 -29.890  10.640  0.00  0.00    -0.292 NA
ATOM      5  C   LIG    1       26.738 -29.331   9.347  0.00  0.00    +0.090 C 
ATOM      6  C   LIG    1       25.697 -28.615   8.477  0.00  0.00    +0.051 C 
ATOM      7  C   LIG    1       25.032 -29.701   7.673  0.00  0.00    -0.039 A 
ATOM      8  C   LIG    1       25.485 -29.941   6.363  0.00  0.00    +0.053 A 
ATOM      9  C   LIG    1       25.157 -31.137   5.777  0.00  0.00    +0.167 A 
ATOM     10  O   LIG    1       25.603 -31.579   4.572  0.00  0.00    -0.453 OA
ATOM     11  C   LIG    1       25.101 -32.931   4.585  0.00  0.00    +0.466 C 
ATOM     12  O   LIG    1       24.233 -33.205   5.707  0.00  0.00    -0.453 OA
ATOM     13  C   LIG    1       24.381 -32.060   6.429  0.00  0.00    +0.167 A 
ATOM     14  C   LIG    1       23.871 -31.827   7.697  0.00  0.00    +0.054 A 
ATOM     15  C   LIG    1       26.801 -29.006  11.732  0.00  0.00    +0.085 C 
ATOM     16  C   LIG    1       25.579 -28.251  12.115  0.00  0.00    +0.017 C 
ATOM     17  C   LIG    1       24.596 -29.375  12.092  0.00  0.00    +0.029 C 
ATOM     18  C   LIG    1       24.746 -31.729  11.320  0.00  0.00    +0.041 C 
ATOM     19  C   LIG    1       24.195 -30.621   8.355  0.00  0.00    -0.031 A 
ATOM     20  C   LIG    1       23.511 -32.207  11.081  0.00  0.00    +0.136 C 
ENDROOT
BRANCH  20  21
ATOM     21  O   LIG    1       23.162 -33.519  11.291  0.00  0.00    -0.496 OA
ATOM     22  C   LIG    1       22.234 -33.823  12.330  0.00  0.00    +0.277 C 
ENDBRANCH  20  21
BRANCH   1  23
ATOM     23  O   LIG    1       21.637 -30.522  11.134  0.00  0.00    -0.451 OA
BRANCH  23  24
ATOM     24  C   LIG    1       20.288 -30.772  11.133  0.00  0.00    +0.340 C 
ATOM     25  O   LIG    1       19.563 -30.737  10.167  0.00  0.00    -0.248 OA
BRANCH  24  26
ATOM     26  C   LIG    1       19.827 -30.835  12.621  0.00  0.00    +0.172 C 
BRANCH  26  27
ATOM     27  O   LIG    1       19.062 -29.631  12.893  0.00  0.00    -0.377 OA
ATOM     28  H   LIG    1       19.168 -29.420  13.841  0.00  0.00    +0.211 HD
ENDBRANCH  26  27
BRANCH  26  29
ATOM     29  C   LIG    1       18.895 -32.022  12.505  0.00  0.00    +0.166 C 
BRANCH  29  30
ATOM     30  C   LIG    1       17.535 -31.854  13.080  0.00  0.00    +0.310 C 
ATOM     31  O   LIG    1       16.515 -31.529  12.463  0.00  0.00    -0.251 OA
BRANCH  30  33
ATOM     32  C   LIG    1       16.788 -31.014  15.131  0.00  0.00    +0.280 C 
ATOM     33  O   LIG    1       17.654 -31.897  14.437  0.00  0.00    -0.468 OA
ENDBRANCH  30  33
ENDBRANCH  29  30
ENDBRANCH  26  29
BRANCH  26  34
ATOM     34  C   LIG    1       20.861 -30.885  13.783  0.00  0.00    +0.047 C 
BRANCH  34  35
ATOM     35  C   LIG    1       21.034 -29.778  14.845  0.00  0.00    +0.006 C 
BRANCH  35  36
ATOM     36  C   LIG    1       22.120 -28.715  14.637  0.00  0.00    +0.034 C 
BRANCH  36  37
ATOM     37  C   LIG    1       21.669 -27.407  13.927  0.00  0.00    +0.060 C 
ATOM     38  C   LIG    1       22.852 -26.442  13.854  0.00  0.00    +0.041 C 
ATOM     39  C   LIG    1       20.430 -26.743  14.537  0.00  0.00    +0.041 C 
BRANCH  37  40
ATOM     40  O   LIG    1       21.316 -27.738  12.573  0.00  0.00    -0.389 OA
ATOM     41  H   LIG    1       22.074 -28.203  12.175  0.00  0.00    +0.210 HD
ENDBRANCH  37  40
ENDBRANCH  36  37
ENDBRANCH  35  36
ENDBRANCH  34  35
ENDBRANCH  26  34
ENDBRANCH  24  26
ENDBRANCH  23  24
ENDBRANCH   1  23
TORSDOF 13
ENDMDL
MODEL 8
REMARK VINA RESULT:      -5.5      3.530      6.334
REMARK  Name = *****
REMARK                            x       y       z     vdW  Elec       q    Type
REMARK                         _______ _______ _______ _____ _____    ______ ____
ROOT
ATOM      1  C   LIG    1       24.540 -29.044   8.266  0.00  0.00    +0.250 C 
ATOM      2  C   LIG    1       23.793 -30.386   8.522  0.00  0.00    +0.092 C 
ATOM      3  C   LIG    1       24.882 -31.503   8.177  0.00  0.00    +0.054 C 
ATOM      4  N   LIG    1       24.836 -32.915   8.641  0.00  0.00    -0.292 NA
ATOM      5  C   LIG    1       23.681 -33.409   9.393  0.00  0.00    +0.090 C 
ATOM      6  C   LIG    1       22.318 -32.725   9.223  0.00  0.00    +0.051 C 
ATOM      7  C   LIG    1       22.321 -31.579  10.200  0.00  0.00    -0.039 A 
ATOM      8  C   LIG    1       21.707 -31.762  11.453  0.00  0.00    +0.053 A 
ATOM      9  C   LIG    1       22.025 -30.886  12.459  0.00  0.00    +0.167 A 
ATOM     10  O   LIG    1       21.618 -30.982  13.752  0.00  0.00    -0.453 OA
ATOM     11  C   LIG    1       22.405 -29.934  14.354  0.00  0.00    +0.466 C 
ATOM     12  O   LIG    1       23.124 -29.135  13.388  0.00  0.00    -0.453 OA
ATOM     13  C   LIG    1       22.885 -29.840  12.248  0.00  0.00    +0.167 A 
ATOM     14  C   LIG    1       23.458 -29.599  11.009  0.00  0.00    +0.054 A 
ATOM     15  C   LIG    1       25.113 -33.816   7.501  0.00  0.00    +0.085 C 
ATOM     16  C   LIG    1       24.534 -33.097   6.336  0.00  0.00    +0.017 C 
ATOM     17  C   LIG    1       25.011 -31.718   6.655  0.00  0.00    +0.029 C 
ATOM     18  C   LIG    1       26.113 -30.736   8.650  0.00  0.00    +0.041 C 
ATOM     19  C   LIG    1       23.183 -30.482   9.942  0.00  0.00    -0.031 A 
ATOM     20  C   LIG    1       25.937 -29.401   8.654  0.00  0.00    +0.136 C 
ENDROOT
BRANCH  20  21
ATOM     21  O   LIG    1       26.873 -28.524   9.146  0.00  0.00    -0.496 OA
ATOM     22  C   LIG    1       26.978 -28.358  10.558  0.00  0.00    +0.277 C 
ENDBRANCH  20  21
BRANCH   1  23
ATOM     23  O   LIG    1       24.327 -28.488   6.944  0.00  0.00    -0.451 OA
BRANCH  23  24
ATOM     24  C   LIG    1       25.258 -28.253   5.964  0.00  0.00    +0.340 C 
ATOM     25  O   LIG    1       25.950 -29.088   5.431  0.00  0.00    -0.248 OA
BRANCH  24  26
ATOM     26  C   LIG    1       25.449 -26.709   5.867  0.00  0.00    +0.172 C 
BRANCH  26  27
ATOM     27  O   LIG    1       26.177 -26.435   4.640  0.00  0.00    -0.377 OA
ATOM     28  H   LIG    1       26.667 -25.598   4.766  0.00  0.00    +0.211 HD
ENDBRANCH  26  27
BRANCH  26  29
ATOM     29  C   LIG    1       23.995 -26.324   5.699  0.00  0.00    +0.166 C 
BRANCH  29  30
ATOM     30  C   LIG    1       23.701 -24.871   5.605  0.00  0.00    +0.310 C 
ATOM     31  O   LIG    1       24.252 -24.061   4.851  0.00  0.00    -0.251 OA
BRANCH  30  33
ATOM     32  C   LIG    1       22.599 -23.163   6.761  0.00  0.00    +0.280 C 
ATOM     33  O   LIG    1       22.886 -24.546   6.648  0.00  0.00    -0.468 OA
ENDBRANCH  30  33
ENDBRANCH  29  30
ENDBRANCH  26  29
BRANCH  26  34
ATOM     34  C   LIG    1       26.246 -25.926   6.951  0.00  0.00    +0.047 C 
BRANCH  34  35
ATOM     35  C   LIG    1       26.712 -24.462   6.804  0.00  0.00    +0.006 C 
BRANCH  35  36
ATOM     36  C   LIG    1       26.063 -23.386   7.684  0.00  0.00    +0.034 C 
BRANCH  36  37
ATOM     37  C   LIG    1       26.265 -21.914   7.225  0.00  0.00    +0.060 C 
ATOM     38  C   LIG    1       27.747 -21.555   7.327  0.00  0.00    +0.041 C 
ATOM     39  C   LIG    1       25.382 -20.891   7.949  0.00  0.00    +0.041 C 
BRANCH  37  40
ATOM     40  O   LIG    1       25.910 -21.831   5.834  0.00  0.00    -0.389 OA
ATOM     41  H   LIG    1       26.398 -21.080   5.449  0.00  0.00    +0.210 HD
ENDBRANCH  37  40
ENDBRANCH  36  37
ENDBRANCH  35  36
ENDBRANCH  34  35
ENDBRANCH  26  34
ENDBRANCH  24  26
ENDBRANCH  23  24
ENDBRANCH   1  23
TORSDOF 13
ENDMDL
MODEL 9
REMARK VINA RESULT:      -5.3      4.797      9.187
REMARK  Name = *****
REMARK                            x       y       z     vdW  Elec       q    Type
REMARK                         _______ _______ _______ _____ _____    ______ ____
ROOT
ATOM      1  C   LIG    1       24.857 -22.572   6.302  0.00  0.00    +0.250 C 
ATOM      2  C   LIG    1       24.804 -21.415   5.261  0.00  0.00    +0.092 C 
ATOM      3  C   LIG    1       23.453 -20.640   5.618  0.00  0.00    +0.054 C 
ATOM      4  N   LIG    1       23.138 -19.242   5.219  0.00  0.00    -0.292 NA
ATOM      5  C   LIG    1       24.050 -18.498   4.348  0.00  0.00    +0.090 C 
ATOM      6  C   LIG    1       24.982 -19.261   3.399  0.00  0.00    +0.051 C 
ATOM      7  C   LIG    1       26.205 -19.587   4.213  0.00  0.00    -0.039 A 
ATOM      8  C   LIG    1       27.327 -18.742   4.109  0.00  0.00    +0.053 A 
ATOM      9  C   LIG    1       28.275 -18.808   5.097  0.00  0.00    +0.167 A 
ATOM     10  O   LIG    1       29.355 -17.991   5.216  0.00  0.00    -0.453 OA
ATOM     11  C   LIG    1       29.851 -18.396   6.508  0.00  0.00    +0.466 C 
ATOM     12  O   LIG    1       29.165 -19.548   7.045  0.00  0.00    -0.453 OA
ATOM     13  C   LIG    1       28.160 -19.693   6.137  0.00  0.00    +0.167 A 
ATOM     14  C   LIG    1       27.098 -20.578   6.235  0.00  0.00    +0.054 A 
ATOM     15  C   LIG    1       21.765 -19.186   4.671  0.00  0.00    +0.085 C 
ATOM     16  C   LIG    1       21.596 -20.506   4.009  0.00  0.00    +0.017 C 
ATOM     17  C   LIG    1       22.215 -21.370   5.059  0.00  0.00    +0.029 C 
ATOM     18  C   LIG    1       23.489 -20.859   7.126  0.00  0.00    +0.041 C 
ATOM     19  C   LIG    1       26.081 -20.540   5.257  0.00  0.00    -0.031 A 
ATOM     20  C   LIG    1       24.214 -21.934   7.489  0.00  0.00    +0.136 C 
ENDROOT
BRANCH  20  21
ATOM     21  O   LIG    1       24.473 -22.256   8.800  0.00  0.00    -0.496 OA
ATOM     22  C   LIG    1       25.807 -22.127   9.285  0.00  0.00    +0.277 C 
ENDBRANCH  20  21
BRANCH   1  23
ATOM     23  O   LIG    1       24.305 -23.826   5.826  0.00  0.00    -0.451 OA
BRANCH  23  24
ATOM     24  C   LIG    1       24.933 -24.803   5.094  0.00  0.00    +0.340 C 
ATOM     25  O   LIG    1       25.196 -24.745   3.917  0.00  0.00    -0.248 OA
BRANCH  24  26
ATOM     26  C   LIG    1       24.993 -26.081   5.984  0.00  0.00    +0.172 C 
BRANCH  26  27
ATOM     27  O   LIG    1       23.649 -26.335   6.474  0.00  0.00    -0.377 OA
ATOM     28  H   LIG    1       23.022 -25.935   5.840  0.00  0.00    +0.211 HD
ENDBRANCH  26  27
BRANCH  26  29
ATOM     29  C   LIG    1       25.343 -27.079   4.901  0.00  0.00    +0.166 C 
BRANCH  29  30
ATOM     30  C   LIG    1       24.809 -28.454   5.071  0.00  0.00    +0.310 C 
ATOM     31  O   LIG    1       23.656 -28.756   5.399  0.00  0.00    -0.251 OA
BRANCH  30  33
ATOM     32  C   LIG    1       25.549 -30.650   5.384  0.00  0.00    +0.280 C 
ATOM     33  O   LIG    1       25.864 -29.315   5.025  0.00  0.00    -0.468 OA
ENDBRANCH  30  33
ENDBRANCH  29  30
ENDBRANCH  26  29
BRANCH  26  34
ATOM     34  C   LIG    1       25.869 -26.127   7.270  0.00  0.00    +0.047 C 
BRANCH  34  35
ATOM     35  C   LIG    1       26.554 -27.399   7.814  0.00  0.00    +0.006 C 
BRANCH  35  36
ATOM     36  C   LIG    1       25.690 -28.484   8.470  0.00  0.00    +0.034 C 
BRANCH  36  37
ATOM     37  C   LIG    1       26.278 -29.147   9.747  0.00  0.00    +0.060 C 
ATOM     38  C   LIG    1       25.239 -30.093  10.346  0.00  0.00    +0.041 C 
ATOM     39  C   LIG    1       26.816 -28.160  10.790  0.00  0.00    +0.041 C 
BRANCH  37  40
ATOM     40  O   LIG    1       27.399 -29.954   9.350  0.00  0.00    -0.389 OA
ATOM     41  H   LIG    1       27.659 -29.678   8.452  0.00  0.00    +0.210 HD
ENDBRANCH  37  40
ENDBRANCH  36  37
ENDBRANCH  35  36
ENDBRANCH  34  35
ENDBRANCH  26  34
ENDBRANCH  24  26
ENDBRANCH  23  24
ENDBRANCH   1  23
TORSDOF 13
ENDMDL
