MODEL 1
REMARK VINA RESULT:      -2.0      0.000      0.000
REMARK  Name = *****
REMARK                            x       y       z     vdW  Elec       q    Type
REMARK                         _______ _______ _______ _____ _____    ______ ____
ROOT
ATOM      1  C   LIG    1       23.494 -17.815   3.995  0.00  0.00    +0.037 A 
ATOM      2  C   LIG    1       23.840 -19.136   3.613  0.00  0.00    -0.026 A 
ATOM      3  C   LIG    1       22.841 -20.127   3.715  0.00  0.00    +0.005 A 
ATOM      4  C   LIG    1       21.540 -19.818   4.130  0.00  0.00    +0.000 A 
ATOM      5  C   LIG    1       21.204 -18.513   4.456  0.00  0.00    +0.002 A 
ATOM      6  C   LIG    1       22.179 -17.524   4.398  0.00  0.00    +0.023 A 
ENDROOT
BRANCH   1   8
ATOM      7  C   LIG    1       24.224 -15.425   4.049  0.00  0.00    +0.248 C 
ATOM      8  N   LIG    1       24.457 -16.785   3.964  0.00  0.00    -0.281 N 
ATOM      9  H   LIG    1       25.421 -17.093   3.987  0.00  0.00    +0.155 HD
ATOM     10  O   LIG    1       23.146 -14.856   4.236  0.00  0.00    -0.270 OA
BRANCH   7  14
ATOM     11  C   LIG    1       27.738 -12.989   3.749  0.00  0.00    +0.120 A 
ATOM     12  C   LIG    1       27.311 -13.749   2.659  0.00  0.00    +0.046 A 
ATOM     13  C   LIG    1       26.163 -14.537   2.764  0.00  0.00    +0.016 A 
ATOM     14  C   LIG    1       25.445 -14.582   3.964  0.00  0.00    +0.037 A 
ATOM     15  C   LIG    1       25.903 -13.849   5.068  0.00  0.00    +0.016 A 
ATOM     16  C   LIG    1       27.041 -13.051   4.955  0.00  0.00    +0.046 A 
BRANCH  11  18
ATOM     17  C   LIG    1       29.353 -11.883   5.054  0.00  0.00    +0.277 C 
ATOM     18  O   LIG    1       28.851 -12.194   3.760  0.00  0.00    -0.495 OA
ENDBRANCH  11  18
ENDBRANCH   7  14
ENDBRANCH   1   8
BRANCH   2  19
ATOM     19  C   LIG    1       25.234 -19.580   3.163  0.00  0.00    +0.038 C 
BRANCH  19  20
ATOM     20  C   LIG    1       26.019 -20.452   4.175  0.00  0.00    +0.023 C 
BRANCH  20  21
ATOM     21  C   LIG    1       26.202 -19.794   5.585  0.00  0.00    +0.057 C 
ATOM     22  N   LIG    1       26.376 -20.738   6.713  0.00  0.00    -0.302 NA
ATOM     23  C   LIG    1       25.200 -21.525   7.049  0.00  0.00    +0.105 C 
ATOM     24  C   LIG    1       27.575 -21.572   6.597  0.00  0.00    +0.084 C 
ATOM     25  C   LIG    1       28.826 -20.693   6.585  0.00  0.00    +0.015 C 
ATOM     26  C   LIG    1       28.738 -19.567   5.559  0.00  0.00    +0.003 C 
ATOM     27  C   LIG    1       27.404 -18.829   5.660  0.00  0.00    +0.019 C 
ENDBRANCH  20  21
ENDBRANCH  19  20
ENDBRANCH   2  19
TORSDOF 6
ENDMDL
MODEL 2
REMARK VINA RESULT:      -1.8      1.447      2.304
REMARK  Name = *****
REMARK                            x       y       z     vdW  Elec       q    Type
REMARK                         _______ _______ _______ _____ _____    ______ ____
ROOT
ATOM      1  C   LIG    1       22.043 -18.011   3.843  0.00  0.00    +0.037 A 
ATOM      2  C   LIG    1       22.215 -19.092   4.744  0.00  0.00    -0.026 A 
ATOM      3  C   LIG    1       21.167 -20.031   4.845  0.00  0.00    +0.005 A 
ATOM      4  C   LIG    1       20.017 -19.935   4.052  0.00  0.00    +0.000 A 
ATOM      5  C   LIG    1       19.883 -18.899   3.141  0.00  0.00    +0.002 A 
ATOM      6  C   LIG    1       20.886 -17.941   3.047  0.00  0.00    +0.023 A 
ENDROOT
BRANCH   1   8
ATOM      7  C   LIG    1       23.093 -15.820   4.428  0.00  0.00    +0.248 C 
ATOM      8  N   LIG    1       23.030 -17.011   3.727  0.00  0.00    -0.281 N 
ATOM      9  H   LIG    1       23.823 -17.250   3.145  0.00  0.00    +0.155 HD
ATOM     10  O   LIG    1       22.345 -15.436   5.329  0.00  0.00    -0.270 OA
BRANCH   7  14
ATOM     11  C   LIG    1       26.397 -13.281   3.419  0.00  0.00    +0.120 A 
ATOM     12  C   LIG    1       25.114 -12.749   3.555  0.00  0.00    +0.046 A 
ATOM     13  C   LIG    1       24.043 -13.582   3.887  0.00  0.00    +0.016 A 
ATOM     14  C   LIG    1       24.247 -14.954   4.069  0.00  0.00    +0.037 A 
ATOM     15  C   LIG    1       25.531 -15.490   3.890  0.00  0.00    +0.016 A 
ATOM     16  C   LIG    1       26.600 -14.652   3.574  0.00  0.00    +0.046 A 
BRANCH  11  18
ATOM     17  C   LIG    1       28.709 -12.977   3.732  0.00  0.00    +0.277 C 
ATOM     18  O   LIG    1       27.511 -12.561   3.086  0.00  0.00    -0.495 OA
ENDBRANCH  11  18
ENDBRANCH   7  14
ENDBRANCH   1   8
BRANCH   2  19
ATOM     19  C   LIG    1       23.423 -19.278   5.667  0.00  0.00    +0.038 C 
BRANCH  19  20
ATOM     20  C   LIG    1       23.506 -20.642   6.396  0.00  0.00    +0.023 C 
BRANCH  20  21
ATOM     21  C   LIG    1       24.665 -21.571   5.894  0.00  0.00    +0.057 C 
ATOM     22  N   LIG    1       25.177 -21.276   4.536  0.00  0.00    -0.302 NA
ATOM     23  C   LIG    1       24.252 -21.564   3.450  0.00  0.00    +0.105 C 
ATOM     24  C   LIG    1       25.766 -19.941   4.410  0.00  0.00    +0.084 C 
ATOM     25  C   LIG    1       26.964 -19.806   5.351  0.00  0.00    +0.015 C 
ATOM     26  C   LIG    1       26.632 -20.218   6.782  0.00  0.00    +0.003 C 
ATOM     27  C   LIG    1       25.903 -21.560   6.816  0.00  0.00    +0.019 C 
ENDBRANCH  20  21
ENDBRANCH  19  20
ENDBRANCH   2  19
TORSDOF 6
ENDMDL
MODEL 3
REMARK VINA RESULT:      -0.6      2.065      4.704
REMARK  Name = *****
REMARK                            x       y       z     vdW  Elec       q    Type
REMARK                         _______ _______ _______ _____ _____    ______ ____
ROOT
ATOM      1  C   LIG    1       27.791 -18.568   5.344  0.00  0.00    +0.037 A 
ATOM      2  C   LIG    1       27.160 -19.828   5.186  0.00  0.00    -0.026 A 
ATOM      3  C   LIG    1       27.755 -20.940   5.820  0.00  0.00    +0.005 A 
ATOM      4  C   LIG    1       28.896 -20.805   6.619  0.00  0.00    +0.000 A 
ATOM      5  C   LIG    1       29.475 -19.559   6.803  0.00  0.00    +0.002 A 
ATOM      6  C   LIG    1       28.930 -18.453   6.160  0.00  0.00    +0.023 A 
ENDROOT
BRANCH   1   8
ATOM      7  C   LIG    1       27.973 -16.276   4.364  0.00  0.00    +0.248 C 
ATOM      8  N   LIG    1       27.278 -17.425   4.698  0.00  0.00    -0.281 N 
ATOM      9  H   LIG    1       26.329 -17.509   4.357  0.00  0.00    +0.155 HD
ATOM     10  O   LIG    1       29.178 -16.058   4.502  0.00  0.00    -0.270 OA
BRANCH   7  14
ATOM     11  C   LIG    1       25.554 -13.274   2.489  0.00  0.00    +0.120 A 
ATOM     12  C   LIG    1       25.045 -14.555   2.708  0.00  0.00    +0.046 A 
ATOM     13  C   LIG    1       25.838 -15.527   3.322  0.00  0.00    +0.016 A 
ATOM     14  C   LIG    1       27.150 -15.227   3.706  0.00  0.00    +0.037 A 
ATOM     15  C   LIG    1       27.669 -13.951   3.446  0.00  0.00    +0.016 A 
ATOM     16  C   LIG    1       26.870 -12.979   2.847  0.00  0.00    +0.046 A 
BRANCH  11  18
ATOM     17  C   LIG    1       23.914 -11.604   2.714  0.00  0.00    +0.277 C 
ATOM     18  O   LIG    1       24.871 -12.254   1.887  0.00  0.00    -0.495 OA
ENDBRANCH  11  18
ENDBRANCH   7  14
ENDBRANCH   1   8
BRANCH   2  19
ATOM     19  C   LIG    1       25.923 -20.085   4.322  0.00  0.00    +0.038 C 
BRANCH  19  20
ATOM     20  C   LIG    1       24.929 -21.140   4.869  0.00  0.00    +0.023 C 
BRANCH  20  21
ATOM     21  C   LIG    1       23.512 -21.096   4.201  0.00  0.00    +0.057 C 
ATOM     22  N   LIG    1       22.405 -20.650   5.079  0.00  0.00    -0.302 NA
ATOM     23  C   LIG    1       22.054 -21.571   6.148  0.00  0.00    +0.105 C 
ATOM     24  C   LIG    1       22.564 -19.280   5.569  0.00  0.00    +0.084 C 
ATOM     25  C   LIG    1       22.591 -18.301   4.394  0.00  0.00    +0.015 C 
ATOM     26  C   LIG    1       23.594 -18.708   3.319  0.00  0.00    +0.003 C 
ATOM     27  C   LIG    1       23.449 -20.184   2.957  0.00  0.00    +0.019 C 
ENDBRANCH  20  21
ENDBRANCH  19  20
ENDBRANCH   2  19
TORSDOF 6
ENDMDL
MODEL 4
REMARK VINA RESULT:      -0.4      2.025      4.894
REMARK  Name = *****
REMARK                            x       y       z     vdW  Elec       q    Type
REMARK                         _______ _______ _______ _____ _____    ______ ____
ROOT
ATOM      1  C   LIG    1       27.714 -19.225   5.501  0.00  0.00    +0.037 A 
ATOM      2  C   LIG    1       26.912 -20.394   5.495  0.00  0.00    -0.026 A 
ATOM      3  C   LIG    1       27.419 -21.537   6.149  0.00  0.00    +0.005 A 
ATOM      4  C   LIG    1       28.646 -21.512   6.824  0.00  0.00    +0.000 A 
ATOM      5  C   LIG    1       29.397 -20.349   6.861  0.00  0.00    +0.002 A 
ATOM      6  C   LIG    1       28.937 -19.219   6.195  0.00  0.00    +0.023 A 
ENDROOT
BRANCH   1   8
ATOM      7  C   LIG    1       28.027 -16.912   4.607  0.00  0.00    +0.248 C 
ATOM      8  N   LIG    1       27.290 -18.062   4.826  0.00  0.00    -0.281 N 
ATOM      9  H   LIG    1       26.389 -18.130   4.370  0.00  0.00    +0.155 HD
ATOM     10  O   LIG    1       29.207 -16.708   4.896  0.00  0.00    -0.270 OA
BRANCH   7  14
ATOM     11  C   LIG    1       25.967 -13.803   2.492  0.00  0.00    +0.120 A 
ATOM     12  C   LIG    1       27.261 -13.593   2.972  0.00  0.00    +0.046 A 
ATOM     13  C   LIG    1       27.927 -14.612   3.657  0.00  0.00    +0.016 A 
ATOM     14  C   LIG    1       27.296 -15.841   3.880  0.00  0.00    +0.037 A 
ATOM     15  C   LIG    1       25.981 -16.032   3.432  0.00  0.00    +0.016 A 
ATOM     16  C   LIG    1       25.325 -15.018   2.735  0.00  0.00    +0.046 A 
BRANCH  11  18
ATOM     17  C   LIG    1       24.017 -12.488   2.473  0.00  0.00    +0.277 C 
ATOM     18  O   LIG    1       25.221 -12.874   1.821  0.00  0.00    -0.495 OA
ENDBRANCH  11  18
ENDBRANCH   7  14
ENDBRANCH   1   8
BRANCH   2  19
ATOM     19  C   LIG    1       25.568 -20.530   4.774  0.00  0.00    +0.038 C 
BRANCH  19  20
ATOM     20  C   LIG    1       24.767 -19.216   4.595  0.00  0.00    +0.023 C 
BRANCH  20  21
ATOM     21  C   LIG    1       23.525 -19.087   5.543  0.00  0.00    +0.057 C 
ATOM     22  N   LIG    1       22.204 -19.107   4.873  0.00  0.00    -0.302 NA
ATOM     23  C   LIG    1       21.909 -17.941   4.054  0.00  0.00    +0.105 C 
ATOM     24  C   LIG    1       21.928 -20.357   4.163  0.00  0.00    +0.084 C 
ATOM     25  C   LIG    1       21.920 -21.528   5.146  0.00  0.00    +0.015 C 
ATOM     26  C   LIG    1       23.168 -21.562   6.024  0.00  0.00    +0.003 C 
ATOM     27  C   LIG    1       23.460 -20.188   6.623  0.00  0.00    +0.019 C 
ENDBRANCH  20  21
ENDBRANCH  19  20
ENDBRANCH   2  19
TORSDOF 6
ENDMDL
