MODEL 1
REMARK VINA RESULT:      -5.4      0.000      0.000
REMARK  Name = *****
REMARK                            x       y       z     vdW  Elec       q    Type
REMARK                         _______ _______ _______ _____ _____    ______ ____
ROOT
ATOM      1  C   LIG    1       24.734 -21.007   5.864  0.00  0.00    -0.021 C 
ATOM      2  C   LIG    1       24.476 -19.904   4.981  0.00  0.00    +0.003 C 
ATOM      3  C   LIG    1       23.100 -19.691   4.963  0.00  0.00    +0.047 C 
ATOM      4  C   LIG    1       22.523 -18.616   4.276  0.00  0.00    +0.026 C 
ATOM      5  C   LIG    1       23.385 -17.725   3.611  0.00  0.00    +0.006 C 
ATOM      6  C   LIG    1       24.769 -17.936   3.564  0.00  0.00    -0.045 C 
ATOM      7  N   LIG    1       22.531 -20.694   5.716  0.00  0.00    -0.360 NA
ATOM      8  H   LIG    1       21.537 -20.821   5.852  0.00  0.00    +0.165 HD
ATOM      9  C   LIG    1       25.302 -19.073   4.193  0.00  0.00    +0.014 C 
ATOM     10  C   LIG    1       23.503 -21.479   6.279  0.00  0.00    +0.087 C 
ENDROOT
BRANCH   1  11
ATOM     11  C   LIG    1       26.087 -21.572   6.193  0.00  0.00    +0.052 C 
BRANCH  11  12
ATOM     12  C   LIG    1       27.095 -20.567   6.796  0.00  0.00    +0.088 C 
BRANCH  12  14
ATOM     13  C   LIG    1       28.875 -19.171   5.946  0.00  0.00    +0.104 C 
ATOM     14  N   LIG    1       28.455 -20.549   6.209  0.00  0.00    -0.308 NA
ATOM     15  C   LIG    1       29.459 -21.182   7.062  0.00  0.00    +0.104 C 
ENDBRANCH  12  14
ENDBRANCH  11  12
ENDBRANCH   1  11
BRANCH   6  16
ATOM     16  C   LIG    1       25.713 -16.908   2.967  0.00  0.00    +0.060 C 
BRANCH  16  17
ATOM     17  C   LIG    1       25.859 -15.591   3.736  0.00  0.00    +0.118 C 
ATOM     18  N   LIG    1       24.665 -14.804   3.790  0.00  0.00    -0.275 N 
ATOM     19  H   LIG    1       23.852 -15.035   4.347  0.00  0.00    +0.152 HD
ATOM     20  C   LIG    1       24.953 -13.469   3.668  0.00  0.00    +0.401 C 
ATOM     21  O   LIG    1       24.193 -12.568   3.900  0.00  0.00    -0.227 OA
ATOM     22  O   LIG    1       26.257 -13.318   3.279  0.00  0.00    -0.449 OA
ATOM     23  C   LIG    1       26.830 -14.621   3.079  0.00  0.00    +0.256 C 
ENDBRANCH  16  17
ENDBRANCH   6  16
TORSDOF 5
ENDMDL
MODEL 2
REMARK VINA RESULT:      -4.7      1.245      1.862
REMARK  Name = *****
REMARK                            x       y       z     vdW  Elec       q    Type
REMARK                         _______ _______ _______ _____ _____    ______ ____
ROOT
ATOM      1  C   LIG    1       24.922 -20.177   4.693  0.00  0.00    -0.021 C 
ATOM      2  C   LIG    1       24.197 -18.971   4.406  0.00  0.00    +0.003 C 
ATOM      3  C   LIG    1       22.839 -19.281   4.423  0.00  0.00    +0.047 C 
ATOM      4  C   LIG    1       21.851 -18.299   4.281  0.00  0.00    +0.026 C 
ATOM      5  C   LIG    1       22.269 -16.963   4.145  0.00  0.00    +0.006 C 
ATOM      6  C   LIG    1       23.625 -16.620   4.072  0.00  0.00    -0.045 C 
ATOM      7  N   LIG    1       22.743 -20.643   4.599  0.00  0.00    -0.360 NA
ATOM      8  H   LIG    1       21.876 -21.164   4.613  0.00  0.00    +0.165 HD
ATOM      9  C   LIG    1       24.586 -17.643   4.131  0.00  0.00    +0.014 C 
ATOM     10  C   LIG    1       23.987 -21.190   4.784  0.00  0.00    +0.087 C 
ENDROOT
BRANCH   1  11
ATOM     11  C   LIG    1       26.417 -20.303   4.789  0.00  0.00    +0.052 C 
BRANCH  11  12
ATOM     12  C   LIG    1       26.971 -20.529   6.214  0.00  0.00    +0.088 C 
BRANCH  12  14
ATOM     13  C   LIG    1       29.259 -20.802   6.943  0.00  0.00    +0.104 C 
ATOM     14  N   LIG    1       28.232 -19.832   6.561  0.00  0.00    -0.308 NA
ATOM     15  C   LIG    1       28.755 -19.013   5.468  0.00  0.00    +0.104 C 
ENDBRANCH  12  14
ENDBRANCH  11  12
ENDBRANCH   1  11
BRANCH   6  16
ATOM     16  C   LIG    1       24.082 -15.172   4.063  0.00  0.00    +0.060 C 
BRANCH  16  17
ATOM     17  C   LIG    1       25.358 -14.867   3.271  0.00  0.00    +0.118 C 
ATOM     18  N   LIG    1       26.522 -14.672   4.080  0.00  0.00    -0.275 N 
ATOM     19  H   LIG    1       27.008 -15.412   4.570  0.00  0.00    +0.152 HD
ATOM     20  C   LIG    1       27.305 -13.666   3.576  0.00  0.00    +0.401 C 
ATOM     21  O   LIG    1       28.438 -13.433   3.905  0.00  0.00    -0.227 OA
ATOM     22  O   LIG    1       26.613 -12.991   2.607  0.00  0.00    -0.449 OA
ATOM     23  C   LIG    1       25.291 -13.546   2.518  0.00  0.00    +0.256 C 
ENDBRANCH  16  17
ENDBRANCH   6  16
TORSDOF 5
ENDMDL
MODEL 3
REMARK VINA RESULT:      -4.5      3.222      6.352
REMARK  Name = *****
REMARK                            x       y       z     vdW  Elec       q    Type
REMARK                         _______ _______ _______ _____ _____    ______ ____
ROOT
ATOM      1  C   LIG    1       25.267 -14.545   3.197  0.00  0.00    -0.021 C 
ATOM      2  C   LIG    1       24.808 -15.862   3.539  0.00  0.00    +0.003 C 
ATOM      3  C   LIG    1       23.522 -15.739   4.060  0.00  0.00    +0.047 C 
ATOM      4  C   LIG    1       22.745 -16.855   4.396  0.00  0.00    +0.026 C 
ATOM      5  C   LIG    1       23.296 -18.129   4.168  0.00  0.00    +0.006 C 
ATOM      6  C   LIG    1       24.604 -18.292   3.694  0.00  0.00    -0.045 C 
ATOM      7  N   LIG    1       23.251 -14.391   4.139  0.00  0.00    -0.360 NA
ATOM      8  H   LIG    1       22.401 -13.994   4.518  0.00  0.00    +0.165 HD
ATOM      9  C   LIG    1       25.383 -17.148   3.449  0.00  0.00    +0.014 C 
ATOM     10  C   LIG    1       24.283 -13.665   3.605  0.00  0.00    +0.087 C 
ENDROOT
BRANCH   1  11
ATOM     11  C   LIG    1       26.599 -14.209   2.590  0.00  0.00    +0.052 C 
BRANCH  11  12
ATOM     12  C   LIG    1       27.769 -14.076   3.592  0.00  0.00    +0.088 C 
BRANCH  12  14
ATOM     13  C   LIG    1       27.312 -13.657   5.927  0.00  0.00    +0.104 C 
ATOM     14  N   LIG    1       27.636 -13.038   4.641  0.00  0.00    -0.308 NA
ATOM     15  C   LIG    1       28.845 -12.232   4.809  0.00  0.00    +0.104 C 
ENDBRANCH  12  14
ENDBRANCH  11  12
ENDBRANCH   1  11
BRANCH   6  16
ATOM     16  C   LIG    1       25.153 -19.656   3.318  0.00  0.00    +0.060 C 
BRANCH  16  17
ATOM     17  C   LIG    1       25.081 -20.740   4.398  0.00  0.00    +0.118 C 
ATOM     18  N   LIG    1       23.789 -20.900   4.990  0.00  0.00    -0.275 N 
ATOM     19  H   LIG    1       22.994 -21.318   4.523  0.00  0.00    +0.152 HD
ATOM     20  C   LIG    1       23.892 -21.138   6.336  0.00  0.00    +0.401 C 
ATOM     21  O   LIG    1       23.005 -21.531   7.044  0.00  0.00    -0.227 OA
ATOM     22  O   LIG    1       25.177 -20.899   6.744  0.00  0.00    -0.449 OA
ATOM     23  C   LIG    1       25.934 -20.423   5.619  0.00  0.00    +0.256 C 
ENDBRANCH  16  17
ENDBRANCH   6  16
TORSDOF 5
ENDMDL
MODEL 4
REMARK VINA RESULT:      -4.4      1.198      3.948
REMARK  Name = *****
REMARK                            x       y       z     vdW  Elec       q    Type
REMARK                         _______ _______ _______ _____ _____    ______ ____
ROOT
ATOM      1  C   LIG    1       26.643 -20.994   6.253  0.00  0.00    -0.021 C 
ATOM      2  C   LIG    1       27.215 -19.785   5.732  0.00  0.00    +0.003 C 
ATOM      3  C   LIG    1       28.535 -19.718   6.174  0.00  0.00    +0.047 C 
ATOM      4  C   LIG    1       29.409 -18.706   5.755  0.00  0.00    +0.026 C 
ATOM      5  C   LIG    1       28.920 -17.756   4.841  0.00  0.00    +0.006 C 
ATOM      6  C   LIG    1       27.586 -17.761   4.415  0.00  0.00    -0.045 C 
ATOM      7  N   LIG    1       28.726 -20.785   7.022  0.00  0.00    -0.360 NA
ATOM      8  H   LIG    1       29.581 -20.974   7.528  0.00  0.00    +0.165 HD
ATOM      9  C   LIG    1       26.717 -18.740   4.924  0.00  0.00    +0.014 C 
ATOM     10  C   LIG    1       27.604 -21.571   7.062  0.00  0.00    +0.087 C 
ENDROOT
BRANCH   1  11
ATOM     11  C   LIG    1       25.240 -21.477   6.014  0.00  0.00    +0.052 C 
BRANCH  11  12
ATOM     12  C   LIG    1       24.718 -21.307   4.569  0.00  0.00    +0.088 C 
BRANCH  12  14
ATOM     13  C   LIG    1       22.779 -20.421   5.705  0.00  0.00    +0.104 C 
ATOM     14  N   LIG    1       23.420 -20.612   4.404  0.00  0.00    -0.308 NA
ATOM     15  C   LIG    1       23.544 -19.308   3.755  0.00  0.00    +0.104 C 
ENDBRANCH  12  14
ENDBRANCH  11  12
ENDBRANCH   1  11
BRANCH   6  16
ATOM     16  C   LIG    1       27.092 -16.824   3.328  0.00  0.00    +0.060 C 
BRANCH  16  17
ATOM     17  C   LIG    1       26.746 -15.396   3.765  0.00  0.00    +0.118 C 
ATOM     18  N   LIG    1       25.346 -15.103   3.767  0.00  0.00    -0.275 N 
ATOM     19  H   LIG    1       24.686 -15.466   4.443  0.00  0.00    +0.152 HD
ATOM     20  C   LIG    1       25.113 -13.827   3.321  0.00  0.00    +0.401 C 
ATOM     21  O   LIG    1       24.074 -13.232   3.425  0.00  0.00    -0.227 OA
ATOM     22  O   LIG    1       26.260 -13.319   2.774  0.00  0.00    -0.449 OA
ATOM     23  C   LIG    1       27.275 -14.335   2.811  0.00  0.00    +0.256 C 
ENDBRANCH  16  17
ENDBRANCH   6  16
TORSDOF 5
ENDMDL
MODEL 5
REMARK VINA RESULT:      -4.3      1.530      2.263
REMARK  Name = *****
REMARK                            x       y       z     vdW  Elec       q    Type
REMARK                         _______ _______ _______ _____ _____    ______ ____
ROOT
ATOM      1  C   LIG    1       23.685 -19.686   4.252  0.00  0.00    -0.021 C 
ATOM      2  C   LIG    1       23.846 -18.272   4.059  0.00  0.00    +0.003 C 
ATOM      3  C   LIG    1       22.646 -17.659   4.410  0.00  0.00    +0.047 C 
ATOM      4  C   LIG    1       22.501 -16.266   4.435  0.00  0.00    +0.026 C 
ATOM      5  C   LIG    1       23.626 -15.485   4.114  0.00  0.00    +0.006 C 
ATOM      6  C   LIG    1       24.834 -16.066   3.707  0.00  0.00    -0.045 C 
ATOM      7  N   LIG    1       21.752 -18.666   4.697  0.00  0.00    -0.360 NA
ATOM      8  H   LIG    1       20.782 -18.524   4.947  0.00  0.00    +0.165 HD
ATOM      9  C   LIG    1       24.914 -17.465   3.612  0.00  0.00    +0.014 C 
ATOM     10  C   LIG    1       22.370 -19.888   4.626  0.00  0.00    +0.087 C 
ENDROOT
BRANCH   1  11
ATOM     11  C   LIG    1       24.737 -20.731   4.009  0.00  0.00    +0.052 C 
BRANCH  11  12
ATOM     12  C   LIG    1       25.285 -21.426   5.276  0.00  0.00    +0.088 C 
BRANCH  12  14
ATOM     13  C   LIG    1       26.911 -21.517   7.062  0.00  0.00    +0.104 C 
ATOM     14  N   LIG    1       26.211 -20.638   6.123  0.00  0.00    -0.308 NA
ATOM     15  C   LIG    1       27.210 -19.900   5.352  0.00  0.00    +0.104 C 
ENDBRANCH  12  14
ENDBRANCH  11  12
ENDBRANCH   1  11
BRANCH   6  16
ATOM     16  C   LIG    1       26.087 -15.235   3.494  0.00  0.00    +0.060 C 
BRANCH  16  17
ATOM     17  C   LIG    1       25.900 -13.715   3.472  0.00  0.00    +0.118 C 
ATOM     18  N   LIG    1       24.985 -13.219   4.454  0.00  0.00    -0.275 N 
ATOM     19  H   LIG    1       25.179 -13.176   5.446  0.00  0.00    +0.152 HD
ATOM     20  C   LIG    1       24.226 -12.197   3.944  0.00  0.00    +0.401 C 
ATOM     21  O   LIG    1       23.544 -11.447   4.589  0.00  0.00    -0.227 OA
ATOM     22  O   LIG    1       24.396 -12.137   2.586  0.00  0.00    -0.449 OA
ATOM     23  C   LIG    1       25.262 -13.210   2.185  0.00  0.00    +0.256 C 
ENDBRANCH  16  17
ENDBRANCH   6  16
TORSDOF 5
ENDMDL
MODEL 6
REMARK VINA RESULT:      -4.1      1.791      2.612
REMARK  Name = *****
REMARK                            x       y       z     vdW  Elec       q    Type
REMARK                         _______ _______ _______ _____ _____    ______ ____
ROOT
ATOM      1  C   LIG    1       23.454 -19.827   4.429  0.00  0.00    -0.021 C 
ATOM      2  C   LIG    1       23.846 -18.487   4.095  0.00  0.00    +0.003 C 
ATOM      3  C   LIG    1       22.751 -17.657   4.324  0.00  0.00    +0.047 C 
ATOM      4  C   LIG    1       22.832 -16.265   4.194  0.00  0.00    +0.026 C 
ATOM      5  C   LIG    1       24.076 -15.712   3.844  0.00  0.00    +0.006 C 
ATOM      6  C   LIG    1       25.186 -16.516   3.556  0.00  0.00    -0.045 C 
ATOM      7  N   LIG    1       21.699 -18.473   4.675  0.00  0.00    -0.360 NA
ATOM      8  H   LIG    1       20.758 -18.154   4.864  0.00  0.00    +0.165 HD
ATOM      9  C   LIG    1       25.042 -17.913   3.613  0.00  0.00    +0.014 C 
ATOM     10  C   LIG    1       22.114 -19.777   4.762  0.00  0.00    +0.087 C 
ENDROOT
BRANCH   1  11
ATOM     11  C   LIG    1       24.330 -21.046   4.347  0.00  0.00    +0.052 C 
BRANCH  11  12
ATOM     12  C   LIG    1       24.940 -21.515   5.687  0.00  0.00    +0.088 C 
BRANCH  12  14
ATOM     13  C   LIG    1       26.926 -21.572   7.062  0.00  0.00    +0.104 C 
ATOM     14  N   LIG    1       26.079 -20.729   6.216  0.00  0.00    -0.308 NA
ATOM     15  C   LIG    1       26.912 -20.146   5.166  0.00  0.00    +0.104 C 
ENDBRANCH  12  14
ENDBRANCH  11  12
ENDBRANCH   1  11
BRANCH   6  16
ATOM     16  C   LIG    1       26.562 -15.922   3.313  0.00  0.00    +0.060 C 
BRANCH  16  17
ATOM     17  C   LIG    1       26.691 -14.407   3.500  0.00  0.00    +0.118 C 
ATOM     18  N   LIG    1       28.040 -13.931   3.540  0.00  0.00    -0.275 N 
ATOM     19  H   LIG    1       28.652 -13.880   2.736  0.00  0.00    +0.152 HD
ATOM     20  C   LIG    1       28.178 -12.931   4.468  0.00  0.00    +0.401 C 
ATOM     21  O   LIG    1       29.124 -12.196   4.565  0.00  0.00    -0.227 OA
ATOM     22  O   LIG    1       27.053 -12.872   5.246  0.00  0.00    -0.449 OA
ATOM     23  C   LIG    1       26.162 -13.924   4.843  0.00  0.00    +0.256 C 
ENDBRANCH  16  17
ENDBRANCH   6  16
TORSDOF 5
ENDMDL
MODEL 7
REMARK VINA RESULT:      -4.0      1.784      4.059
REMARK  Name = *****
REMARK                            x       y       z     vdW  Elec       q    Type
REMARK                         _______ _______ _______ _____ _____    ______ ____
ROOT
ATOM      1  C   LIG    1       25.724 -19.363   3.963  0.00  0.00    -0.021 C 
ATOM      2  C   LIG    1       26.107 -17.983   3.849  0.00  0.00    +0.003 C 
ATOM      3  C   LIG    1       27.360 -17.843   4.443  0.00  0.00    +0.047 C 
ATOM      4  C   LIG    1       28.067 -16.635   4.410  0.00  0.00    +0.026 C 
ATOM      5  C   LIG    1       27.483 -15.552   3.728  0.00  0.00    +0.006 C 
ATOM      6  C   LIG    1       26.204 -15.641   3.164  0.00  0.00    -0.045 C 
ATOM      7  N   LIG    1       27.677 -19.063   4.997  0.00  0.00    -0.360 NA
ATOM      8  H   LIG    1       28.515 -19.254   5.531  0.00  0.00    +0.165 HD
ATOM      9  C   LIG    1       25.490 -16.843   3.292  0.00  0.00    +0.014 C 
ATOM     10  C   LIG    1       26.712 -19.989   4.697  0.00  0.00    +0.087 C 
ENDROOT
BRANCH   1  11
ATOM     11  C   LIG    1       24.449 -19.966   3.444  0.00  0.00    +0.052 C 
BRANCH  11  12
ATOM     12  C   LIG    1       23.847 -21.091   4.316  0.00  0.00    +0.088 C 
BRANCH  12  14
ATOM     13  C   LIG    1       23.457 -20.766   6.679  0.00  0.00    +0.104 C 
ATOM     14  N   LIG    1       22.861 -20.686   5.345  0.00  0.00    -0.308 NA
ATOM     15  C   LIG    1       22.350 -19.329   5.150  0.00  0.00    +0.104 C 
ENDBRANCH  12  14
ENDBRANCH  11  12
ENDBRANCH   1  11
BRANCH   6  16
ATOM     16  C   LIG    1       25.629 -14.524   2.312  0.00  0.00    +0.060 C 
BRANCH  16  17
ATOM     17  C   LIG    1       25.493 -13.155   2.986  0.00  0.00    +0.118 C 
ATOM     18  N   LIG    1       24.825 -13.184   4.251  0.00  0.00    -0.275 N 
ATOM     19  H   LIG    1       25.226 -13.559   5.101  0.00  0.00    +0.152 HD
ATOM     20  C   LIG    1       24.009 -12.093   4.399  0.00  0.00    +0.401 C 
ATOM     21  O   LIG    1       23.505 -11.734   5.429  0.00  0.00    -0.227 OA
ATOM     22  O   LIG    1       23.888 -11.447   3.198  0.00  0.00    -0.449 OA
ATOM     23  C   LIG    1       24.614 -12.189   2.204  0.00  0.00    +0.256 C 
ENDBRANCH  16  17
ENDBRANCH   6  16
TORSDOF 5
ENDMDL
MODEL 8
REMARK VINA RESULT:      -4.0      3.068      6.143
REMARK  Name = *****
REMARK                            x       y       z     vdW  Elec       q    Type
REMARK                         _______ _______ _______ _____ _____    ______ ____
ROOT
ATOM      1  C   LIG    1       25.058 -15.092   3.674  0.00  0.00    -0.021 C 
ATOM      2  C   LIG    1       24.258 -16.256   3.939  0.00  0.00    +0.003 C 
ATOM      3  C   LIG    1       23.062 -15.825   4.508  0.00  0.00    +0.047 C 
ATOM      4  C   LIG    1       22.013 -16.709   4.792  0.00  0.00    +0.026 C 
ATOM      5  C   LIG    1       22.190 -18.064   4.459  0.00  0.00    +0.006 C 
ATOM      6  C   LIG    1       23.398 -18.542   3.934  0.00  0.00    -0.045 C 
ATOM      7  N   LIG    1       23.172 -14.465   4.688  0.00  0.00    -0.360 NA
ATOM      8  H   LIG    1       22.469 -13.880   5.120  0.00  0.00    +0.165 HD
ATOM      9  C   LIG    1       24.457 -17.639   3.743  0.00  0.00    +0.014 C 
ATOM     10  C   LIG    1       24.358 -14.009   4.173  0.00  0.00    +0.087 C 
ENDROOT
BRANCH   1  11
ATOM     11  C   LIG    1       26.424 -15.088   3.049  0.00  0.00    +0.052 C 
BRANCH  11  12
ATOM     12  C   LIG    1       27.172 -13.737   3.103  0.00  0.00    +0.088 C 
BRANCH  12  14
ATOM     13  C   LIG    1       29.045 -12.445   3.916  0.00  0.00    +0.104 C 
ATOM     14  N   LIG    1       28.129 -13.546   4.218  0.00  0.00    -0.308 NA
ATOM     15  C   LIG    1       27.476 -13.264   5.495  0.00  0.00    +0.104 C 
ENDBRANCH  12  14
ENDBRANCH  11  12
ENDBRANCH   1  11
BRANCH   6  16
ATOM     16  C   LIG    1       23.546 -19.972   3.447  0.00  0.00    +0.060 C 
BRANCH  16  17
ATOM     17  C   LIG    1       24.757 -20.748   3.975  0.00  0.00    +0.118 C 
ATOM     18  N   LIG    1       24.635 -21.177   5.335  0.00  0.00    -0.275 N 
ATOM     19  H   LIG    1       24.026 -21.922   5.648  0.00  0.00    +0.152 HD
ATOM     20  C   LIG    1       25.832 -21.060   5.993  0.00  0.00    +0.401 C 
ATOM     21  O   LIG    1       26.090 -21.547   7.061  0.00  0.00    -0.227 OA
ATOM     22  O   LIG    1       26.706 -20.336   5.227  0.00  0.00    -0.449 OA
ATOM     23  C   LIG    1       26.024 -19.908   4.036  0.00  0.00    +0.256 C 
ENDBRANCH  16  17
ENDBRANCH   6  16
TORSDOF 5
ENDMDL
MODEL 9
REMARK VINA RESULT:      -4.0      3.312      7.159
REMARK  Name = *****
REMARK                            x       y       z     vdW  Elec       q    Type
REMARK                         _______ _______ _______ _____ _____    ______ ____
ROOT
ATOM      1  C   LIG    1       26.440 -14.188   2.929  0.00  0.00    -0.021 C 
ATOM      2  C   LIG    1       26.551 -15.586   3.237  0.00  0.00    +0.003 C 
ATOM      3  C   LIG    1       27.711 -15.763   3.988  0.00  0.00    +0.047 C 
ATOM      4  C   LIG    1       28.058 -17.002   4.541  0.00  0.00    +0.026 C 
ATOM      5  C   LIG    1       27.178 -18.080   4.336  0.00  0.00    +0.006 C 
ATOM      6  C   LIG    1       26.030 -17.953   3.543  0.00  0.00    -0.045 C 
ATOM      7  N   LIG    1       28.342 -14.540   4.041  0.00  0.00    -0.360 NA
ATOM      8  H   LIG    1       29.233 -14.369   4.488  0.00  0.00    +0.165 HD
ATOM      9  C   LIG    1       25.760 -16.716   2.935  0.00  0.00    +0.014 C 
ATOM     10  C   LIG    1       27.579 -13.582   3.426  0.00  0.00    +0.087 C 
ENDROOT
BRANCH   1  11
ATOM     11  C   LIG    1       25.331 -13.545   2.146  0.00  0.00    +0.052 C 
BRANCH  11  12
ATOM     12  C   LIG    1       24.249 -12.836   2.991  0.00  0.00    +0.088 C 
BRANCH  12  14
ATOM     13  C   LIG    1       23.826 -11.834   5.149  0.00  0.00    +0.104 C 
ATOM     14  N   LIG    1       24.312 -13.030   4.458  0.00  0.00    -0.308 NA
ATOM     15  C   LIG    1       23.533 -14.177   4.921  0.00  0.00    +0.104 C 
ENDBRANCH  12  14
ENDBRANCH  11  12
ENDBRANCH   1  11
BRANCH   6  16
ATOM     16  C   LIG    1       25.009 -19.071   3.433  0.00  0.00    +0.060 C 
BRANCH  16  17
ATOM     17  C   LIG    1       24.016 -19.204   4.592  0.00  0.00    +0.118 C 
ATOM     18  N   LIG    1       24.378 -20.184   5.569  0.00  0.00    -0.275 N 
ATOM     19  H   LIG    1       25.134 -20.078   6.234  0.00  0.00    +0.152 HD
ATOM     20  C   LIG    1       23.272 -20.860   6.017  0.00  0.00    +0.401 C 
ATOM     21  O   LIG    1       23.235 -21.571   6.985  0.00  0.00    -0.227 OA
ATOM     22  O   LIG    1       22.203 -20.569   5.212  0.00  0.00    -0.449 OA
ATOM     23  C   LIG    1       22.649 -19.707   4.153  0.00  0.00    +0.256 C 
ENDBRANCH  16  17
ENDBRANCH   6  16
TORSDOF 5
ENDMDL
