MODEL 1
REMARK VINA RESULT:      -5.1      0.000      0.000
REMARK  Name = *****
REMARK                            x       y       z     vdW  Elec       q    Type
REMARK                         _______ _______ _______ _____ _____    ______ ____
ROOT
ATOM      1  C   LIG    1       25.569 -20.072   4.896  0.00  0.00    +0.161 C 
ENDROOT
BRANCH   1   2
ATOM      2  C   LIG    1       26.942 -20.073   5.540  0.00  0.00    -0.018 A 
ATOM      3  C   LIG    1       27.318 -21.069   6.455  0.00  0.00    +0.006 A 
ATOM      4  C   LIG    1       28.575 -21.039   7.058  0.00  0.00    +0.000 A 
ATOM      5  C   LIG    1       29.475 -20.022   6.750  0.00  0.00    +0.000 A 
ATOM      6  C   LIG    1       29.121 -19.035   5.834  0.00  0.00    +0.000 A 
ATOM      7  C   LIG    1       27.863 -19.060   5.230  0.00  0.00    +0.006 A 
ENDBRANCH   1   2
BRANCH   1   8
ATOM      8  C   LIG    1       24.587 -21.144   5.469  0.00  0.00    +0.083 C 
ATOM      9  C   LIG    1       24.059 -20.785   6.862  0.00  0.00    +0.027 C 
BRANCH   8  11
ATOM     10  C   LIG    1       22.220 -20.822   4.811  0.00  0.00    +0.101 C 
ATOM     11  N   LIG    1       23.487 -21.482   4.528  0.00  0.00    -0.314 NA
ATOM     12  H   LIG    1       23.803 -21.176   3.602  0.00  0.00    +0.122 HD
ENDBRANCH   8  11
ENDBRANCH   1   8
BRANCH   1  13
ATOM     13  O   LIG    1       25.712 -20.278   3.481  0.00  0.00    -0.386 OA
ATOM     14  H   LIG    1       24.998 -19.779   3.047  0.00  0.00    +0.210 HD
ENDBRANCH   1  13
TORSDOF 4
ENDMDL
MODEL 2
REMARK VINA RESULT:      -5.1      1.966      4.805
REMARK  Name = *****
REMARK                            x       y       z     vdW  Elec       q    Type
REMARK                         _______ _______ _______ _____ _____    ______ ____
ROOT
ATOM      1  C   LIG    1       26.281 -20.200   4.934  0.00  0.00    +0.161 C 
ENDROOT
BRANCH   1   2
ATOM      2  C   LIG    1       24.771 -20.070   4.904  0.00  0.00    -0.018 A 
ATOM      3  C   LIG    1       23.950 -20.934   5.646  0.00  0.00    +0.006 A 
ATOM      4  C   LIG    1       22.561 -20.818   5.586  0.00  0.00    +0.000 A 
ATOM      5  C   LIG    1       21.975 -19.835   4.792  0.00  0.00    +0.000 A 
ATOM      6  C   LIG    1       22.777 -18.962   4.061  0.00  0.00    +0.000 A 
ATOM      7  C   LIG    1       24.167 -19.077   4.117  0.00  0.00    +0.006 A 
ENDBRANCH   1   2
BRANCH   1   8
ATOM      8  C   LIG    1       26.901 -20.211   6.368  0.00  0.00    +0.083 C 
ATOM      9  C   LIG    1       26.774 -21.572   7.062  0.00  0.00    +0.027 C 
BRANCH   8  11
ATOM     10  C   LIG    1       29.251 -20.579   7.060  0.00  0.00    +0.101 C 
ATOM     11  N   LIG    1       28.295 -19.699   6.401  0.00  0.00    -0.314 NA
ATOM     12  H   LIG    1       28.582 -19.598   5.421  0.00  0.00    +0.122 HD
ENDBRANCH   8  11
ENDBRANCH   1   8
BRANCH   1  13
ATOM     13  O   LIG    1       26.861 -19.121   4.183  0.00  0.00    -0.386 OA
ATOM     14  H   LIG    1       27.301 -18.533   4.822  0.00  0.00    +0.210 HD
ENDBRANCH   1  13
TORSDOF 4
ENDMDL
MODEL 3
REMARK VINA RESULT:      -5.0      1.675      2.368
REMARK  Name = *****
REMARK                            x       y       z     vdW  Elec       q    Type
REMARK                         _______ _______ _______ _____ _____    ______ ____
ROOT
ATOM      1  C   LIG    1       24.862 -21.067   5.722  0.00  0.00    +0.161 C 
ENDROOT
BRANCH   1   2
ATOM      2  C   LIG    1       26.328 -20.767   5.969  0.00  0.00    -0.018 A 
ATOM      3  C   LIG    1       26.969 -19.695   5.329  0.00  0.00    +0.006 A 
ATOM      4  C   LIG    1       28.325 -19.449   5.545  0.00  0.00    +0.000 A 
ATOM      5  C   LIG    1       29.054 -20.262   6.409  0.00  0.00    +0.000 A 
ATOM      6  C   LIG    1       28.428 -21.322   7.062  0.00  0.00    +0.000 A 
ATOM      7  C   LIG    1       27.072 -21.572   6.845  0.00  0.00    +0.006 A 
ENDBRANCH   1   2
BRANCH   1   8
ATOM      8  C   LIG    1       24.135 -20.031   4.807  0.00  0.00    +0.083 C 
ATOM      9  C   LIG    1       24.121 -20.445   3.331  0.00  0.00    +0.027 C 
BRANCH   8  11
ATOM     10  C   LIG    1       22.069 -18.703   4.478  0.00  0.00    +0.101 C 
ATOM     11  N   LIG    1       22.777 -19.678   5.297  0.00  0.00    -0.314 NA
ATOM     12  H   LIG    1       22.237 -20.550   5.288  0.00  0.00    +0.122 HD
ENDBRANCH   8  11
ENDBRANCH   1   8
BRANCH   1  13
ATOM     13  O   LIG    1       24.177 -21.137   6.984  0.00  0.00    -0.386 OA
ATOM     14  H   LIG    1       23.245 -20.917   6.815  0.00  0.00    +0.210 HD
ENDBRANCH   1  13
TORSDOF 4
ENDMDL
MODEL 4
REMARK VINA RESULT:      -4.6      2.033      4.891
REMARK  Name = *****
REMARK                            x       y       z     vdW  Elec       q    Type
REMARK                         _______ _______ _______ _____ _____    ______ ____
ROOT
ATOM      1  C   LIG    1       26.207 -19.546   4.055  0.00  0.00    +0.161 C 
ENDROOT
BRANCH   1   2
ATOM      2  C   LIG    1       24.805 -19.934   4.484  0.00  0.00    -0.018 A 
ATOM      3  C   LIG    1       24.559 -21.136   5.166  0.00  0.00    +0.006 A 
ATOM      4  C   LIG    1       23.259 -21.492   5.529  0.00  0.00    +0.000 A 
ATOM      5  C   LIG    1       22.193 -20.650   5.223  0.00  0.00    +0.000 A 
ATOM      6  C   LIG    1       22.424 -19.448   4.558  0.00  0.00    +0.000 A 
ATOM      7  C   LIG    1       23.722 -19.091   4.192  0.00  0.00    +0.006 A 
ENDBRANCH   1   2
BRANCH   1   8
ATOM      8  C   LIG    1       27.184 -19.245   5.237  0.00  0.00    +0.083 C 
ATOM      9  C   LIG    1       27.543 -20.496   6.046  0.00  0.00    +0.027 C 
BRANCH   8  11
ATOM     10  C   LIG    1       29.473 -18.475   5.788  0.00  0.00    +0.101 C 
ATOM     11  N   LIG    1       28.393 -18.493   4.811  0.00  0.00    -0.314 NA
ATOM     12  H   LIG    1       28.737 -18.965   3.968  0.00  0.00    +0.122 HD
ENDBRANCH   8  11
ENDBRANCH   1   8
BRANCH   1  13
ATOM     13  O   LIG    1       26.135 -18.390   3.203  0.00  0.00    -0.386 OA
ATOM     14  H   LIG    1       26.950 -17.879   3.347  0.00  0.00    +0.210 HD
ENDBRANCH   1  13
TORSDOF 4
ENDMDL
MODEL 5
REMARK VINA RESULT:      -4.1      6.029      7.407
REMARK  Name = *****
REMARK                            x       y       z     vdW  Elec       q    Type
REMARK                         _______ _______ _______ _____ _____    ______ ____
ROOT
ATOM      1  C   LIG    1       27.250 -14.845   3.249  0.00  0.00    +0.161 C 
ENDROOT
BRANCH   1   2
ATOM      2  C   LIG    1       26.070 -13.893   3.291  0.00  0.00    -0.018 A 
ATOM      3  C   LIG    1       25.344 -13.685   4.475  0.00  0.00    +0.006 A 
ATOM      4  C   LIG    1       24.243 -12.827   4.489  0.00  0.00    +0.000 A 
ATOM      5  C   LIG    1       23.860 -12.163   3.328  0.00  0.00    +0.000 A 
ATOM      6  C   LIG    1       24.579 -12.350   2.149  0.00  0.00    +0.000 A 
ATOM      7  C   LIG    1       25.679 -13.208   2.131  0.00  0.00    +0.006 A 
ENDBRANCH   1   2
BRANCH   1   8
ATOM      8  C   LIG    1       27.019 -16.195   3.999  0.00  0.00    +0.083 C 
ATOM      9  C   LIG    1       26.102 -17.154   3.231  0.00  0.00    +0.027 C 
BRANCH   8  11
ATOM     10  C   LIG    1       28.142 -18.236   4.842  0.00  0.00    +0.101 C 
ATOM     11  N   LIG    1       28.286 -16.852   4.414  0.00  0.00    -0.314 NA
ATOM     12  H   LIG    1       28.896 -16.837   3.590  0.00  0.00    +0.122 HD
ENDBRANCH   8  11
ENDBRANCH   1   8
BRANCH   1  13
ATOM     13  O   LIG    1       28.401 -14.190   3.809  0.00  0.00    -0.386 OA
ATOM     14  H   LIG    1       28.082 -13.622   4.532  0.00  0.00    +0.210 HD
ENDBRANCH   1  13
TORSDOF 4
ENDMDL
MODEL 6
REMARK VINA RESULT:      -4.1      6.658      8.024
REMARK  Name = *****
REMARK                            x       y       z     vdW  Elec       q    Type
REMARK                         _______ _______ _______ _____ _____    ______ ____
ROOT
ATOM      1  C   LIG    1       26.995 -13.945   2.565  0.00  0.00    +0.161 C 
ENDROOT
BRANCH   1   2
ATOM      2  C   LIG    1       25.783 -13.127   2.965  0.00  0.00    -0.018 A 
ATOM      3  C   LIG    1       25.098 -12.335   2.030  0.00  0.00    +0.006 A 
ATOM      4  C   LIG    1       24.001 -11.566   2.421  0.00  0.00    +0.000 A 
ATOM      5  C   LIG    1       23.569 -11.586   3.745  0.00  0.00    +0.000 A 
ATOM      6  C   LIG    1       24.231 -12.378   4.680  0.00  0.00    +0.000 A 
ATOM      7  C   LIG    1       25.330 -13.146   4.293  0.00  0.00    +0.006 A 
ENDBRANCH   1   2
BRANCH   1   8
ATOM      8  C   LIG    1       27.065 -15.361   3.222  0.00  0.00    +0.083 C 
ATOM      9  C   LIG    1       27.695 -15.339   4.619  0.00  0.00    +0.027 C 
BRANCH   8  11
ATOM     10  C   LIG    1       25.852 -17.519   3.300  0.00  0.00    +0.101 C 
ATOM     11  N   LIG    1       25.758 -16.069   3.213  0.00  0.00    -0.314 NA
ATOM     12  H   LIG    1       25.250 -15.734   4.039  0.00  0.00    +0.122 HD
ENDBRANCH   8  11
ENDBRANCH   1   8
BRANCH   1  13
ATOM     13  O   LIG    1       28.187 -13.215   2.900  0.00  0.00    -0.386 OA
ATOM     14  H   LIG    1       27.914 -12.465   3.456  0.00  0.00    +0.210 HD
ENDBRANCH   1  13
TORSDOF 4
ENDMDL
MODEL 7
REMARK VINA RESULT:      -4.0      6.703      7.285
REMARK  Name = *****
REMARK                            x       y       z     vdW  Elec       q    Type
REMARK                         _______ _______ _______ _____ _____    ______ ____
ROOT
ATOM      1  C   LIG    1       25.665 -14.546   2.957  0.00  0.00    +0.161 C 
ENDROOT
BRANCH   1   2
ATOM      2  C   LIG    1       26.736 -13.837   3.764  0.00  0.00    -0.018 A 
ATOM      3  C   LIG    1       26.588 -13.626   5.144  0.00  0.00    +0.006 A 
ATOM      4  C   LIG    1       27.570 -12.947   5.866  0.00  0.00    +0.000 A 
ATOM      5  C   LIG    1       28.714 -12.480   5.223  0.00  0.00    +0.000 A 
ATOM      6  C   LIG    1       28.880 -12.695   3.857  0.00  0.00    +0.000 A 
ATOM      7  C   LIG    1       27.898 -13.371   3.131  0.00  0.00    +0.006 A 
ENDBRANCH   1   2
BRANCH   1   8
ATOM      8  C   LIG    1       24.217 -14.008   3.192  0.00  0.00    +0.083 C 
ATOM      9  C   LIG    1       23.517 -14.681   4.377  0.00  0.00    +0.027 C 
BRANCH   8  11
ATOM     10  C   LIG    1       24.365 -11.833   2.017  0.00  0.00    +0.101 C 
ATOM     11  N   LIG    1       24.157 -12.526   3.280  0.00  0.00    -0.314 NA
ATOM     12  H   LIG    1       23.214 -12.300   3.613  0.00  0.00    +0.122 HD
ENDBRANCH   8  11
ENDBRANCH   1   8
BRANCH   1  13
ATOM     13  O   LIG    1       25.698 -15.950   3.263  0.00  0.00    -0.386 OA
ATOM     14  H   LIG    1       26.455 -16.328   2.783  0.00  0.00    +0.210 HD
ENDBRANCH   1  13
TORSDOF 4
ENDMDL
MODEL 8
REMARK VINA RESULT:      -3.9      4.215      5.391
REMARK  Name = *****
REMARK                            x       y       z     vdW  Elec       q    Type
REMARK                         _______ _______ _______ _____ _____    ______ ____
ROOT
ATOM      1  C   LIG    1       26.120 -17.488   3.260  0.00  0.00    +0.161 C 
ENDROOT
BRANCH   1   2
ATOM      2  C   LIG    1       25.555 -16.102   3.507  0.00  0.00    -0.018 A 
ATOM      3  C   LIG    1       24.251 -15.924   3.994  0.00  0.00    +0.006 A 
ATOM      4  C   LIG    1       23.736 -14.642   4.189  0.00  0.00    +0.000 A 
ATOM      5  C   LIG    1       24.519 -13.524   3.911  0.00  0.00    +0.000 A 
ATOM      6  C   LIG    1       25.820 -13.686   3.440  0.00  0.00    +0.000 A 
ATOM      7  C   LIG    1       26.337 -14.968   3.241  0.00  0.00    +0.006 A 
ENDBRANCH   1   2
BRANCH   1   8
ATOM      8  C   LIG    1       25.349 -18.639   3.982  0.00  0.00    +0.083 C 
ATOM      9  C   LIG    1       24.149 -19.149   3.176  0.00  0.00    +0.027 C 
BRANCH   8  11
ATOM     10  C   LIG    1       25.728 -20.534   5.532  0.00  0.00    +0.101 C 
ATOM     11  N   LIG    1       26.237 -19.747   4.417  0.00  0.00    -0.314 NA
ATOM     12  H   LIG    1       26.330 -20.370   3.607  0.00  0.00    +0.122 HD
ENDBRANCH   8  11
ENDBRANCH   1   8
BRANCH   1  13
ATOM     13  O   LIG    1       27.496 -17.515   3.674  0.00  0.00    -0.386 OA
ATOM     14  H   LIG    1       27.514 -17.280   4.618  0.00  0.00    +0.210 HD
ENDBRANCH   1  13
TORSDOF 4
ENDMDL
MODEL 9
REMARK VINA RESULT:      -3.9      6.753      8.283
REMARK  Name = *****
REMARK                            x       y       z     vdW  Elec       q    Type
REMARK                         _______ _______ _______ _____ _____    ______ ____
ROOT
ATOM      1  C   LIG    1       26.016 -15.052   3.785  0.00  0.00    +0.161 C 
ENDROOT
BRANCH   1   2
ATOM      2  C   LIG    1       25.262 -13.777   3.457  0.00  0.00    -0.018 A 
ATOM      3  C   LIG    1       24.599 -13.045   4.455  0.00  0.00    +0.006 A 
ATOM      4  C   LIG    1       23.887 -11.890   4.132  0.00  0.00    +0.000 A 
ATOM      5  C   LIG    1       23.835 -11.447   2.813  0.00  0.00    +0.000 A 
ATOM      6  C   LIG    1       24.499 -12.156   1.814  0.00  0.00    +0.000 A 
ATOM      7  C   LIG    1       25.211 -13.313   2.134  0.00  0.00    +0.006 A 
ENDBRANCH   1   2
BRANCH   1   8
ATOM      8  C   LIG    1       27.496 -14.830   4.234  0.00  0.00    +0.083 C 
ATOM      9  C   LIG    1       28.239 -16.141   4.508  0.00  0.00    +0.027 C 
BRANCH   8  11
ATOM     10  C   LIG    1       28.759 -12.721   3.919  0.00  0.00    +0.101 C 
ATOM     11  N   LIG    1       28.254 -13.945   3.311  0.00  0.00    -0.314 NA
ATOM     12  H   LIG    1       29.058 -14.494   2.990  0.00  0.00    +0.122 HD
ENDBRANCH   8  11
ENDBRANCH   1   8
BRANCH   1  13
ATOM     13  O   LIG    1       26.000 -15.916   2.637  0.00  0.00    -0.386 OA
ATOM     14  H   LIG    1       25.200 -15.699   2.128  0.00  0.00    +0.210 HD
ENDBRANCH   1  13
TORSDOF 4
ENDMDL
