MODEL 1
REMARK VINA RESULT:      -8.8      0.000      0.000
REMARK  Name = *****
REMARK                            x       y       z     vdW  Elec       q    Type
REMARK                         _______ _______ _______ _____ _____    ______ ____
ROOT
ATOM      1  C   LIG    1       25.489 -21.376   6.830  0.00  0.00    +0.133 C 
ATOM      2  C   LIG    1       25.230 -20.781   8.236  0.00  0.00    +0.054 C 
ENDROOT
BRANCH   1   3
ATOM      3  C   LIG    1       24.601 -20.567   5.824  0.00  0.00    +0.077 A 
ATOM      4  N   LIG    1       25.162 -20.192   4.634  0.00  0.00    -0.257 NA
ATOM      5  C   LIG    1       24.408 -19.458   3.778  0.00  0.00    +0.111 A 
ATOM      6  C   LIG    1       23.103 -19.082   4.019  0.00  0.00    +0.020 A 
ATOM      7  C   LIG    1       22.525 -19.486   5.216  0.00  0.00    +0.003 A 
ATOM      8  C   LIG    1       23.281 -20.233   6.124  0.00  0.00    +0.026 A 
ENDBRANCH   1   3
BRANCH   1   9
ATOM      9  C   LIG    1       25.126 -22.875   6.746  0.00  0.00    -0.010 A 
ATOM     10  C   LIG    1       26.106 -23.887   6.752  0.00  0.00    +0.007 A 
ATOM     11  C   LIG    1       25.763 -25.236   6.616  0.00  0.00    +0.000 A 
ATOM     12  C   LIG    1       24.430 -25.605   6.463  0.00  0.00    +0.000 A 
ATOM     13  C   LIG    1       23.439 -24.630   6.506  0.00  0.00    +0.000 A 
ATOM     14  C   LIG    1       23.778 -23.285   6.684  0.00  0.00    +0.007 A 
ENDBRANCH   1   9
BRANCH   1  15
ATOM     15  O   LIG    1       26.897 -21.164   6.484  0.00  0.00    -0.362 OA
BRANCH  15  16
ATOM     16  C   LIG    1       27.735 -20.497   7.447  0.00  0.00    +0.177 C 
BRANCH  16  17
ATOM     17  C   LIG    1       29.010 -21.346   7.688  0.00  0.00    +0.112 C 
BRANCH  17  19
ATOM     18  C   LIG    1       31.019 -21.693   9.049  0.00  0.00    +0.104 C 
ATOM     19  N   LIG    1       30.068 -20.717   8.512  0.00  0.00    -0.306 NA
ATOM     20  C   LIG    1       30.794 -19.712   7.724  0.00  0.00    +0.104 C 
ENDBRANCH  17  19
ENDBRANCH  16  17
ENDBRANCH  15  16
ENDBRANCH   1  15
TORSDOF 6
ENDMDL
MODEL 2
REMARK VINA RESULT:      -8.2      1.802      5.331
REMARK  Name = *****
REMARK                            x       y       z     vdW  Elec       q    Type
REMARK                         _______ _______ _______ _____ _____    ______ ____
ROOT
ATOM      1  C   LIG    1       26.233 -21.340   7.087  0.00  0.00    +0.133 C 
ATOM      2  C   LIG    1       25.805 -21.375   8.574  0.00  0.00    +0.054 C 
ENDROOT
BRANCH   1   3
ATOM      3  C   LIG    1       27.501 -20.423   7.001  0.00  0.00    +0.077 A 
ATOM      4  N   LIG    1       28.162 -20.134   8.163  0.00  0.00    -0.257 NA
ATOM      5  C   LIG    1       29.237 -19.309   8.096  0.00  0.00    +0.111 A 
ATOM      6  C   LIG    1       29.722 -18.759   6.928  0.00  0.00    +0.020 A 
ATOM      7  C   LIG    1       29.067 -19.075   5.745  0.00  0.00    +0.003 A 
ATOM      8  C   LIG    1       27.949 -19.913   5.783  0.00  0.00    +0.026 A 
ENDBRANCH   1   3
BRANCH   1   9
ATOM      9  C   LIG    1       25.129 -20.780   6.165  0.00  0.00    -0.010 A 
ATOM     10  C   LIG    1       25.369 -20.452   4.817  0.00  0.00    +0.007 A 
ATOM     11  C   LIG    1       24.371 -19.890   4.013  0.00  0.00    +0.000 A 
ATOM     12  C   LIG    1       23.111 -19.636   4.542  0.00  0.00    +0.000 A 
ATOM     13  C   LIG    1       22.831 -19.998   5.856  0.00  0.00    +0.000 A 
ATOM     14  C   LIG    1       23.816 -20.598   6.647  0.00  0.00    +0.007 A 
ENDBRANCH   1   9
BRANCH   1  15
ATOM     15  O   LIG    1       26.611 -22.696   6.676  0.00  0.00    -0.362 OA
BRANCH  15  16
ATOM     16  C   LIG    1       25.679 -23.763   6.936  0.00  0.00    +0.177 C 
BRANCH  16  17
ATOM     17  C   LIG    1       25.146 -24.314   5.587  0.00  0.00    +0.112 C 
BRANCH  17  19
ATOM     18  C   LIG    1       26.537 -26.271   6.077  0.00  0.00    +0.104 C 
ATOM     19  N   LIG    1       25.393 -25.750   5.325  0.00  0.00    -0.306 NA
ATOM     20  C   LIG    1       24.197 -26.539   5.649  0.00  0.00    +0.104 C 
ENDBRANCH  17  19
ENDBRANCH  16  17
ENDBRANCH  15  16
ENDBRANCH   1  15
TORSDOF 6
ENDMDL
MODEL 3
REMARK VINA RESULT:      -7.9      2.115      5.673
REMARK  Name = *****
REMARK                            x       y       z     vdW  Elec       q    Type
REMARK                         _______ _______ _______ _____ _____    ______ ____
ROOT
ATOM      1  C   LIG    1       25.022 -21.799   6.304  0.00  0.00    +0.133 C 
ATOM      2  C   LIG    1       24.371 -22.029   7.690  0.00  0.00    +0.054 C 
ENDROOT
BRANCH   1   3
ATOM      3  C   LIG    1       26.478 -21.284   6.566  0.00  0.00    +0.077 A 
ATOM      4  N   LIG    1       27.225 -21.929   7.514  0.00  0.00    -0.257 NA
ATOM      5  C   LIG    1       28.472 -21.460   7.770  0.00  0.00    +0.111 A 
ATOM      6  C   LIG    1       29.046 -20.387   7.122  0.00  0.00    +0.020 A 
ATOM      7  C   LIG    1       28.298 -19.750   6.141  0.00  0.00    +0.003 A 
ATOM      8  C   LIG    1       27.005 -20.202   5.862  0.00  0.00    +0.026 A 
ENDBRANCH   1   3
BRANCH   1   9
ATOM      9  C   LIG    1       24.255 -20.764   5.454  0.00  0.00    -0.010 A 
ATOM     10  C   LIG    1       24.700 -20.358   4.180  0.00  0.00    +0.007 A 
ATOM     11  C   LIG    1       24.024 -19.376   3.449  0.00  0.00    +0.000 A 
ATOM     12  C   LIG    1       22.889 -18.770   3.978  0.00  0.00    +0.000 A 
ATOM     13  C   LIG    1       22.398 -19.189   5.210  0.00  0.00    +0.000 A 
ATOM     14  C   LIG    1       23.050 -20.200   5.923  0.00  0.00    +0.007 A 
ENDBRANCH   1   9
BRANCH   1  15
ATOM     15  O   LIG    1       25.103 -23.086   5.605  0.00  0.00    -0.362 OA
BRANCH  15  16
ATOM     16  C   LIG    1       24.403 -24.208   6.176  0.00  0.00    +0.177 C 
BRANCH  16  17
ATOM     17  C   LIG    1       24.867 -25.510   5.472  0.00  0.00    +0.112 C 
BRANCH  17  19
ATOM     18  C   LIG    1       24.477 -27.929   5.415  0.00  0.00    +0.104 C 
ATOM     19  N   LIG    1       24.738 -26.758   6.257  0.00  0.00    -0.306 NA
ATOM     20  C   LIG    1       25.953 -26.989   7.049  0.00  0.00    +0.104 C 
ENDBRANCH  17  19
ENDBRANCH  16  17
ENDBRANCH  15  16
ENDBRANCH   1  15
TORSDOF 6
ENDMDL
MODEL 4
REMARK VINA RESULT:      -7.5      1.953      5.743
REMARK  Name = *****
REMARK                            x       y       z     vdW  Elec       q    Type
REMARK                         _______ _______ _______ _____ _____    ______ ____
ROOT
ATOM      1  C   LIG    1       25.735 -21.405   7.233  0.00  0.00    +0.133 C 
ATOM      2  C   LIG    1       25.403 -21.540   8.739  0.00  0.00    +0.054 C 
ENDROOT
BRANCH   1   3
ATOM      3  C   LIG    1       25.570 -22.830   6.602  0.00  0.00    +0.077 A 
ATOM      4  N   LIG    1       25.060 -22.915   5.335  0.00  0.00    -0.257 NA
ATOM      5  C   LIG    1       24.880 -24.149   4.802  0.00  0.00    +0.111 A 
ATOM      6  C   LIG    1       25.198 -25.326   5.446  0.00  0.00    +0.020 A 
ATOM      7  C   LIG    1       25.741 -25.239   6.722  0.00  0.00    +0.003 A 
ATOM      8  C   LIG    1       25.928 -23.981   7.303  0.00  0.00    +0.026 A 
ENDBRANCH   1   3
BRANCH   1   9
ATOM      9  C   LIG    1       27.172 -20.896   6.986  0.00  0.00    -0.010 A 
ATOM     10  C   LIG    1       28.258 -21.291   7.791  0.00  0.00    +0.007 A 
ATOM     11  C   LIG    1       29.542 -20.775   7.589  0.00  0.00    +0.000 A 
ATOM     12  C   LIG    1       29.769 -19.844   6.581  0.00  0.00    +0.000 A 
ATOM     13  C   LIG    1       28.725 -19.476   5.738  0.00  0.00    +0.000 A 
ATOM     14  C   LIG    1       27.451 -20.024   5.913  0.00  0.00    +0.007 A 
ENDBRANCH   1   9
BRANCH   1  15
ATOM     15  O   LIG    1       24.754 -20.506   6.616  0.00  0.00    -0.362 OA
BRANCH  15  16
ATOM     16  C   LIG    1       23.357 -20.797   6.811  0.00  0.00    +0.177 C 
BRANCH  16  17
ATOM     17  C   LIG    1       22.572 -20.407   5.532  0.00  0.00    +0.112 C 
BRANCH  17  19
ATOM     18  C   LIG    1       23.873 -19.818   3.540  0.00  0.00    +0.104 C 
ATOM     19  N   LIG    1       23.154 -19.318   4.715  0.00  0.00    -0.306 NA
ATOM     20  C   LIG    1       22.102 -18.388   4.283  0.00  0.00    +0.104 C 
ENDBRANCH  17  19
ENDBRANCH  16  17
ENDBRANCH  15  16
ENDBRANCH   1  15
TORSDOF 6
ENDMDL
MODEL 5
REMARK VINA RESULT:      -7.2      2.455      5.951
REMARK  Name = *****
REMARK                            x       y       z     vdW  Elec       q    Type
REMARK                         _______ _______ _______ _____ _____    ______ ____
ROOT
ATOM      1  C   LIG    1       24.528 -23.105   6.113  0.00  0.00    +0.133 C 
ATOM      2  C   LIG    1       23.123 -23.241   6.750  0.00  0.00    +0.054 C 
ENDROOT
BRANCH   1   3
ATOM      3  C   LIG    1       25.107 -24.554   5.976  0.00  0.00    +0.077 A 
ATOM      4  N   LIG    1       25.116 -25.125   4.732  0.00  0.00    -0.257 NA
ATOM      5  C   LIG    1       25.581 -26.394   4.617  0.00  0.00    +0.111 A 
ATOM      6  C   LIG    1       26.066 -27.141   5.670  0.00  0.00    +0.020 A 
ATOM      7  C   LIG    1       26.081 -26.553   6.927  0.00  0.00    +0.003 A 
ATOM      8  C   LIG    1       25.598 -25.250   7.080  0.00  0.00    +0.026 A 
ENDBRANCH   1   3
BRANCH   1   9
ATOM      9  C   LIG    1       25.485 -22.247   6.969  0.00  0.00    -0.010 A 
ATOM     10  C   LIG    1       25.019 -21.369   7.966  0.00  0.00    +0.007 A 
ATOM     11  C   LIG    1       25.897 -20.556   8.691  0.00  0.00    +0.000 A 
ATOM     12  C   LIG    1       27.263 -20.599   8.431  0.00  0.00    +0.000 A 
ATOM     13  C   LIG    1       27.755 -21.495   7.488  0.00  0.00    +0.000 A 
ATOM     14  C   LIG    1       26.882 -22.337   6.792  0.00  0.00    +0.007 A 
ENDBRANCH   1   9
BRANCH   1  15
ATOM     15  O   LIG    1       24.380 -22.533   4.771  0.00  0.00    -0.362 OA
BRANCH  15  16
ATOM     16  C   LIG    1       24.562 -21.112   4.620  0.00  0.00    +0.177 C 
BRANCH  16  17
ATOM     17  C   LIG    1       23.174 -20.424   4.563  0.00  0.00    +0.112 C 
BRANCH  17  19
ATOM     18  C   LIG    1       22.291 -18.138   4.521  0.00  0.00    +0.104 C 
ATOM     19  N   LIG    1       23.112 -19.137   3.833  0.00  0.00    -0.306 NA
ATOM     20  C   LIG    1       24.465 -18.602   3.632  0.00  0.00    +0.104 C 
ENDBRANCH  17  19
ENDBRANCH  16  17
ENDBRANCH  15  16
ENDBRANCH   1  15
TORSDOF 6
ENDMDL
MODEL 6
REMARK VINA RESULT:      -6.6      2.010      4.920
REMARK  Name = *****
REMARK                            x       y       z     vdW  Elec       q    Type
REMARK                         _______ _______ _______ _____ _____    ______ ____
ROOT
ATOM      1  C   LIG    1       24.510 -22.376   5.861  0.00  0.00    +0.133 C 
ATOM      2  C   LIG    1       24.699 -21.992   4.373  0.00  0.00    +0.054 C 
ENDROOT
BRANCH   1   3
ATOM      3  C   LIG    1       25.539 -21.527   6.683  0.00  0.00    +0.077 A 
ATOM      4  N   LIG    1       26.618 -21.009   6.019  0.00  0.00    -0.257 NA
ATOM      5  C   LIG    1       27.530 -20.306   6.737  0.00  0.00    +0.111 A 
ATOM      6  C   LIG    1       27.430 -20.060   8.090  0.00  0.00    +0.020 A 
ATOM      7  C   LIG    1       26.322 -20.563   8.758  0.00  0.00    +0.003 A 
ATOM      8  C   LIG    1       25.370 -21.301   8.049  0.00  0.00    +0.026 A 
ENDBRANCH   1   3
BRANCH   1   9
ATOM      9  C   LIG    1       24.757 -23.877   6.121  0.00  0.00    -0.010 A 
ATOM     10  C   LIG    1       26.011 -24.373   6.529  0.00  0.00    +0.007 A 
ATOM     11  C   LIG    1       26.232 -25.743   6.703  0.00  0.00    +0.000 A 
ATOM     12  C   LIG    1       25.206 -26.652   6.467  0.00  0.00    +0.000 A 
ATOM     13  C   LIG    1       23.944 -26.185   6.115  0.00  0.00    +0.000 A 
ATOM     14  C   LIG    1       23.711 -24.812   5.981  0.00  0.00    +0.007 A 
ENDBRANCH   1   9
BRANCH   1  15
ATOM     15  O   LIG    1       23.156 -21.995   6.275  0.00  0.00    -0.362 OA
BRANCH  15  16
ATOM     16  C   LIG    1       22.348 -21.257   5.338  0.00  0.00    +0.177 C 
BRANCH  16  17
ATOM     17  C   LIG    1       22.564 -19.738   5.564  0.00  0.00    +0.112 C 
BRANCH  17  19
ATOM     18  C   LIG    1       22.179 -17.500   4.642  0.00  0.00    +0.104 C 
ATOM     19  N   LIG    1       22.545 -18.888   4.351  0.00  0.00    -0.306 NA
ATOM     20  C   LIG    1       23.855 -18.919   3.688  0.00  0.00    +0.104 C 
ENDBRANCH  17  19
ENDBRANCH  16  17
ENDBRANCH  15  16
ENDBRANCH   1  15
TORSDOF 6
ENDMDL
MODEL 7
REMARK VINA RESULT:      -6.6      1.225      4.129
REMARK  Name = *****
REMARK                            x       y       z     vdW  Elec       q    Type
REMARK                         _______ _______ _______ _____ _____    ______ ____
ROOT
ATOM      1  C   LIG    1       25.870 -21.105   6.154  0.00  0.00    +0.133 C 
ATOM      2  C   LIG    1       27.207 -20.845   5.416  0.00  0.00    +0.054 C 
ENDROOT
BRANCH   1   3
ATOM      3  C   LIG    1       25.620 -22.651   6.109  0.00  0.00    +0.077 A 
ATOM      4  N   LIG    1       25.024 -23.171   4.993  0.00  0.00    -0.257 NA
ATOM      5  C   LIG    1       24.772 -24.504   4.968  0.00  0.00    +0.111 A 
ATOM      6  C   LIG    1       25.096 -25.374   5.987  0.00  0.00    +0.020 A 
ATOM      7  C   LIG    1       25.725 -24.850   7.109  0.00  0.00    +0.003 A 
ATOM      8  C   LIG    1       25.988 -23.478   7.169  0.00  0.00    +0.026 A 
ENDBRANCH   1   3
BRANCH   1   9
ATOM      9  C   LIG    1       24.680 -20.372   5.498  0.00  0.00    -0.010 A 
ATOM     10  C   LIG    1       24.796 -19.705   4.263  0.00  0.00    +0.007 A 
ATOM     11  C   LIG    1       23.723 -18.997   3.712  0.00  0.00    +0.000 A 
ATOM     12  C   LIG    1       22.509 -18.932   4.388  0.00  0.00    +0.000 A 
ATOM     13  C   LIG    1       22.351 -19.625   5.584  0.00  0.00    +0.000 A 
ATOM     14  C   LIG    1       23.411 -20.367   6.114  0.00  0.00    +0.007 A 
ENDBRANCH   1   9
BRANCH   1  15
ATOM     15  O   LIG    1       26.021 -20.698   7.554  0.00  0.00    -0.362 OA
BRANCH  15  16
ATOM     16  C   LIG    1       27.251 -20.056   7.941  0.00  0.00    +0.177 C 
BRANCH  16  17
ATOM     17  C   LIG    1       28.327 -21.139   8.214  0.00  0.00    +0.112 C 
BRANCH  17  19
ATOM     18  C   LIG    1       30.613 -21.722   8.879  0.00  0.00    +0.104 C 
ATOM     19  N   LIG    1       29.691 -20.645   8.511  0.00  0.00    -0.306 NA
ATOM     20  C   LIG    1       30.230 -19.914   7.356  0.00  0.00    +0.104 C 
ENDBRANCH  17  19
ENDBRANCH  16  17
ENDBRANCH  15  16
ENDBRANCH   1  15
TORSDOF 6
ENDMDL
MODEL 8
REMARK VINA RESULT:      -6.3      2.178      4.648
REMARK  Name = *****
REMARK                            x       y       z     vdW  Elec       q    Type
REMARK                         _______ _______ _______ _____ _____    ______ ____
ROOT
ATOM      1  C   LIG    1       24.805 -21.544   5.873  0.00  0.00    +0.133 C 
ATOM      2  C   LIG    1       25.114 -22.584   4.768  0.00  0.00    +0.054 C 
ENDROOT
BRANCH   1   3
ATOM      3  C   LIG    1       23.981 -20.395   5.197  0.00  0.00    +0.077 A 
ATOM      4  N   LIG    1       24.506 -19.800   4.083  0.00  0.00    -0.257 NA
ATOM      5  C   LIG    1       23.812 -18.780   3.518  0.00  0.00    +0.111 A 
ATOM      6  C   LIG    1       22.599 -18.316   3.983  0.00  0.00    +0.020 A 
ATOM      7  C   LIG    1       22.054 -18.938   5.098  0.00  0.00    +0.003 A 
ATOM      8  C   LIG    1       22.750 -19.984   5.709  0.00  0.00    +0.026 A 
ENDBRANCH   1   3
BRANCH   1   9
ATOM      9  C   LIG    1       26.085 -20.955   6.506  0.00  0.00    -0.010 A 
ATOM     10  C   LIG    1       27.127 -20.413   5.729  0.00  0.00    +0.007 A 
ATOM     11  C   LIG    1       28.304 -19.938   6.317  0.00  0.00    +0.000 A 
ATOM     12  C   LIG    1       28.469 -19.999   7.697  0.00  0.00    +0.000 A 
ATOM     13  C   LIG    1       27.434 -20.481   8.491  0.00  0.00    +0.000 A 
ATOM     14  C   LIG    1       26.241 -20.918   7.907  0.00  0.00    +0.007 A 
ENDBRANCH   1   9
BRANCH   1  15
ATOM     15  O   LIG    1       23.967 -22.180   6.894  0.00  0.00    -0.362 OA
BRANCH  15  16
ATOM     16  C   LIG    1       23.719 -23.594   6.777  0.00  0.00    +0.177 C 
BRANCH  16  17
ATOM     17  C   LIG    1       25.036 -24.367   7.044  0.00  0.00    +0.112 C 
BRANCH  17  19
ATOM     18  C   LIG    1       24.083 -26.055   5.545  0.00  0.00    +0.104 C 
ATOM     19  N   LIG    1       25.069 -25.776   6.592  0.00  0.00    -0.306 NA
ATOM     20  C   LIG    1       26.410 -26.122   6.103  0.00  0.00    +0.104 C 
ENDBRANCH  17  19
ENDBRANCH  16  17
ENDBRANCH  15  16
ENDBRANCH   1  15
TORSDOF 6
ENDMDL
MODEL 9
REMARK VINA RESULT:      -5.9      6.776     10.488
REMARK  Name = *****
REMARK                            x       y       z     vdW  Elec       q    Type
REMARK                         _______ _______ _______ _____ _____    ______ ____
ROOT
ATOM      1  C   LIG    1       24.811 -29.949   7.764  0.00  0.00    +0.133 C 
ATOM      2  C   LIG    1       26.012 -30.306   8.673  0.00  0.00    +0.054 C 
ENDROOT
BRANCH   1   3
ATOM      3  C   LIG    1       24.722 -31.068   6.670  0.00  0.00    +0.077 A 
ATOM      4  N   LIG    1       23.546 -31.757   6.553  0.00  0.00    -0.257 NA
ATOM      5  C   LIG    1       23.479 -32.752   5.633  0.00  0.00    +0.111 A 
ATOM      6  C   LIG    1       24.514 -33.101   4.791  0.00  0.00    +0.020 A 
ATOM      7  C   LIG    1       25.698 -32.383   4.891  0.00  0.00    +0.003 A 
ATOM      8  C   LIG    1       25.802 -31.360   5.838  0.00  0.00    +0.026 A 
ENDBRANCH   1   3
BRANCH   1   9
ATOM      9  C   LIG    1       24.973 -28.574   7.081  0.00  0.00    -0.010 A 
ATOM     10  C   LIG    1       24.180 -28.180   5.986  0.00  0.00    +0.007 A 
ATOM     11  C   LIG    1       24.380 -26.954   5.343  0.00  0.00    +0.000 A 
ATOM     12  C   LIG    1       25.383 -26.095   5.777  0.00  0.00    +0.000 A 
ATOM     13  C   LIG    1       26.146 -26.436   6.889  0.00  0.00    +0.000 A 
ATOM     14  C   LIG    1       25.919 -27.643   7.557  0.00  0.00    +0.007 A 
ENDBRANCH   1   9
BRANCH   1  15
ATOM     15  O   LIG    1       23.586 -29.987   8.569  0.00  0.00    -0.362 OA
BRANCH  15  16
ATOM     16  C   LIG    1       23.700 -30.382   9.950  0.00  0.00    +0.177 C 
BRANCH  16  17
ATOM     17  C   LIG    1       22.299 -30.325  10.613  0.00  0.00    +0.112 C 
BRANCH  17  19
ATOM     18  C   LIG    1       21.564 -32.571   9.964  0.00  0.00    +0.104 C 
ATOM     19  N   LIG    1       21.241 -31.142   9.976  0.00  0.00    -0.306 NA
ATOM     20  C   LIG    1       19.958 -30.938  10.663  0.00  0.00    +0.104 C 
ENDBRANCH  17  19
ENDBRANCH  16  17
ENDBRANCH  15  16
ENDBRANCH   1  15
TORSDOF 6
ENDMDL
