MODEL 1
REMARK VINA RESULT:      -9.7      0.000      0.000
REMARK  Name = *****
REMARK                            x       y       z     vdW  Elec       q    Type
REMARK                         _______ _______ _______ _____ _____    ______ ____
ROOT
ATOM      1  C   LIG    1       28.070 -20.058   6.846  0.00  0.00    +0.202 A 
ATOM      2  N   LIG    1       27.313 -21.016   7.483  0.00  0.00    -0.187 NA
ATOM      3  C   LIG    1       26.376 -21.274   6.596  0.00  0.00    +0.262 A 
ATOM      4  O   LIG    1       26.479 -20.508   5.472  0.00  0.00    -0.332 OA
ATOM      5  N   LIG    1       27.602 -19.705   5.637  0.00  0.00    -0.056 NA
ENDROOT
BRANCH   3   6
ATOM      6  C   LIG    1       25.268 -22.210   6.656  0.00  0.00    +0.074 A 
ATOM      7  C   LIG    1       23.953 -21.782   6.863  0.00  0.00    +0.136 A 
ATOM      8  F   LIG    1       23.671 -20.479   7.007  0.00  0.00    -0.205 F 
ATOM      9  C   LIG    1       22.894 -22.687   6.900  0.00  0.00    +0.039 A 
ATOM     10  C   LIG    1       23.141 -24.049   6.734  0.00  0.00    +0.003 A 
ATOM     11  C   LIG    1       24.445 -24.496   6.526  0.00  0.00    +0.001 A 
ATOM     12  C   LIG    1       25.503 -23.582   6.480  0.00  0.00    +0.016 A 
ENDBRANCH   3   6
BRANCH   1  15
ATOM     13  C   LIG    1       30.437 -18.308   9.195  0.00  0.00    +0.059 A 
ATOM     14  C   LIG    1       29.277 -18.886   8.667  0.00  0.00    +0.026 A 
ATOM     15  C   LIG    1       29.299 -19.515   7.413  0.00  0.00    +0.023 A 
ATOM     16  C   LIG    1       30.511 -19.589   6.712  0.00  0.00    +0.012 A 
ATOM     17  C   LIG    1       31.679 -19.043   7.252  0.00  0.00    +0.002 A 
ATOM     18  C   LIG    1       31.642 -18.401   8.492  0.00  0.00    +0.015 A 
BRANCH  13  20
ATOM     19  O   LIG    1       30.085 -16.455  10.641  0.00  0.00    -0.245 OA
ATOM     20  C   LIG    1       30.426 -17.620  10.509  0.00  0.00    +0.337 C 
BRANCH  20  21
ATOM     21  O   LIG    1       30.785 -18.404  11.545  0.00  0.00    -0.477 OA
ATOM     22  H   LIG    1       30.579 -18.053  12.432  0.00  0.00    +0.295 HD
ENDBRANCH  20  21
ENDBRANCH  13  20
ENDBRANCH   1  15
TORSDOF 4
ENDMDL
MODEL 2
REMARK VINA RESULT:      -9.6      3.076      7.970
REMARK  Name = *****
REMARK                            x       y       z     vdW  Elec       q    Type
REMARK                         _______ _______ _______ _____ _____    ______ ____
ROOT
ATOM      1  C   LIG    1       26.287 -22.489   7.589  0.00  0.00    +0.202 A 
ATOM      2  N   LIG    1       27.490 -22.117   7.030  0.00  0.00    -0.187 NA
ATOM      3  C   LIG    1       27.914 -21.189   7.860  0.00  0.00    +0.262 A 
ATOM      4  O   LIG    1       27.034 -20.931   8.869  0.00  0.00    -0.332 OA
ATOM      5  N   LIG    1       25.958 -21.794   8.691  0.00  0.00    -0.056 NA
ENDROOT
BRANCH   3   6
ATOM      6  C   LIG    1       29.136 -20.406   7.836  0.00  0.00    +0.074 A 
ATOM      7  C   LIG    1       30.303 -20.843   8.470  0.00  0.00    +0.136 A 
ATOM      8  F   LIG    1       30.333 -22.015   9.121  0.00  0.00    -0.205 F 
ATOM      9  C   LIG    1       31.477 -20.091   8.425  0.00  0.00    +0.039 A 
ATOM     10  C   LIG    1       31.496 -18.877   7.741  0.00  0.00    +0.003 A 
ATOM     11  C   LIG    1       30.343 -18.424   7.102  0.00  0.00    +0.001 A 
ATOM     12  C   LIG    1       29.171 -19.187   7.142  0.00  0.00    +0.016 A 
ENDBRANCH   3   6
BRANCH   1  15
ATOM     13  C   LIG    1       25.314 -25.758   5.993  0.00  0.00    +0.059 A 
ATOM     14  C   LIG    1       26.083 -24.734   6.558  0.00  0.00    +0.026 A 
ATOM     15  C   LIG    1       25.471 -23.576   7.061  0.00  0.00    +0.023 A 
ATOM     16  C   LIG    1       24.073 -23.474   7.023  0.00  0.00    +0.012 A 
ATOM     17  C   LIG    1       23.300 -24.511   6.490  0.00  0.00    +0.002 A 
ATOM     18  C   LIG    1       23.919 -25.651   5.975  0.00  0.00    +0.015 A 
BRANCH  13  20
ATOM     19  O   LIG    1       25.296 -27.920   5.008  0.00  0.00    -0.245 OA
ATOM     20  C   LIG    1       25.945 -26.979   5.437  0.00  0.00    +0.337 C 
BRANCH  20  21
ATOM     21  O   LIG    1       27.292 -26.940   5.410  0.00  0.00    -0.477 OA
ATOM     22  H   LIG    1       27.720 -27.540   4.769  0.00  0.00    +0.295 HD
ENDBRANCH  20  21
ENDBRANCH  13  20
ENDBRANCH   1  15
TORSDOF 4
ENDMDL
MODEL 3
REMARK VINA RESULT:      -9.6      1.356      1.517
REMARK  Name = *****
REMARK                            x       y       z     vdW  Elec       q    Type
REMARK                         _______ _______ _______ _____ _____    ______ ____
ROOT
ATOM      1  C   LIG    1       27.635 -20.705   8.074  0.00  0.00    +0.202 A 
ATOM      2  N   LIG    1       27.390 -21.818   7.302  0.00  0.00    -0.187 NA
ATOM      3  C   LIG    1       26.168 -22.149   7.658  0.00  0.00    +0.262 A 
ATOM      4  O   LIG    1       25.658 -21.340   8.631  0.00  0.00    -0.332 OA
ATOM      5  N   LIG    1       26.628 -20.383   8.904  0.00  0.00    -0.056 NA
ENDROOT
BRANCH   3   6
ATOM      6  C   LIG    1       25.324 -23.236   7.196  0.00  0.00    +0.074 A 
ATOM      7  C   LIG    1       23.942 -23.084   7.049  0.00  0.00    +0.136 A 
ATOM      8  F   LIG    1       23.347 -21.915   7.327  0.00  0.00    -0.205 F 
ATOM      9  C   LIG    1       23.143 -24.129   6.587  0.00  0.00    +0.039 A 
ATOM     10  C   LIG    1       23.724 -25.355   6.266  0.00  0.00    +0.003 A 
ATOM     11  C   LIG    1       25.101 -25.526   6.405  0.00  0.00    +0.001 A 
ATOM     12  C   LIG    1       25.898 -24.471   6.860  0.00  0.00    +0.016 A 
ENDBRANCH   3   6
BRANCH   1  15
ATOM     13  C   LIG    1       30.435 -18.338   8.934  0.00  0.00    +0.059 A 
ATOM     14  C   LIG    1       29.298 -19.146   9.049  0.00  0.00    +0.026 A 
ATOM     15  C   LIG    1       28.856 -19.916   7.962  0.00  0.00    +0.023 A 
ATOM     16  C   LIG    1       29.593 -19.894   6.769  0.00  0.00    +0.012 A 
ATOM     17  C   LIG    1       30.749 -19.115   6.663  0.00  0.00    +0.002 A 
ATOM     18  C   LIG    1       31.169 -18.336   7.743  0.00  0.00    +0.015 A 
BRANCH  13  20
ATOM     19  O   LIG    1       30.202 -16.652  10.592  0.00  0.00    -0.245 OA
ATOM     20  C   LIG    1       30.903 -17.501  10.065  0.00  0.00    +0.337 C 
BRANCH  20  21
ATOM     21  O   LIG    1       32.152 -17.788  10.484  0.00  0.00    -0.477 OA
ATOM     22  H   LIG    1       32.420 -17.379  11.328  0.00  0.00    +0.295 HD
ENDBRANCH  20  21
ENDBRANCH  13  20
ENDBRANCH   1  15
TORSDOF 4
ENDMDL
MODEL 4
REMARK VINA RESULT:      -9.4      2.625      7.683
REMARK  Name = *****
REMARK                            x       y       z     vdW  Elec       q    Type
REMARK                         _______ _______ _______ _____ _____    ______ ____
ROOT
ATOM      1  C   LIG    1       27.162 -20.568   7.021  0.00  0.00    +0.202 A 
ATOM      2  N   LIG    1       27.854 -20.204   8.155  0.00  0.00    -0.187 NA
ATOM      3  C   LIG    1       28.829 -19.466   7.669  0.00  0.00    +0.262 A 
ATOM      4  O   LIG    1       28.810 -19.386   6.307  0.00  0.00    -0.332 OA
ATOM      5  N   LIG    1       27.706 -20.113   5.879  0.00  0.00    -0.056 NA
ENDROOT
BRANCH   3   6
ATOM      6  C   LIG    1       29.902 -18.771   8.355  0.00  0.00    +0.074 A 
ATOM      7  C   LIG    1       31.220 -18.809   7.889  0.00  0.00    +0.136 A 
ATOM      8  F   LIG    1       31.535 -19.489   6.777  0.00  0.00    -0.205 F 
ATOM      9  C   LIG    1       32.241 -18.123   8.545  0.00  0.00    +0.039 A 
ATOM     10  C   LIG    1       31.953 -17.385   9.692  0.00  0.00    +0.003 A 
ATOM     11  C   LIG    1       30.646 -17.335  10.173  0.00  0.00    +0.001 A 
ATOM     12  C   LIG    1       29.624 -18.018   9.505  0.00  0.00    +0.016 A 
ENDBRANCH   3   6
BRANCH   1  15
ATOM     13  C   LIG    1       24.747 -23.447   6.780  0.00  0.00    +0.059 A 
ATOM     14  C   LIG    1       25.938 -22.712   6.803  0.00  0.00    +0.026 A 
ATOM     15  C   LIG    1       25.922 -21.333   7.062  0.00  0.00    +0.023 A 
ATOM     16  C   LIG    1       24.697 -20.708   7.335  0.00  0.00    +0.012 A 
ATOM     17  C   LIG    1       23.509 -21.445   7.347  0.00  0.00    +0.002 A 
ATOM     18  C   LIG    1       23.534 -22.813   7.068  0.00  0.00    +0.015 A 
BRANCH  13  20
ATOM     19  O   LIG    1       25.668 -25.637   6.790  0.00  0.00    -0.245 OA
ATOM     20  C   LIG    1       24.743 -24.901   6.487  0.00  0.00    +0.337 C 
BRANCH  20  21
ATOM     21  O   LIG    1       23.615 -25.341   5.896  0.00  0.00    -0.477 OA
ATOM     22  H   LIG    1       23.467 -25.030   4.982  0.00  0.00    +0.295 HD
ENDBRANCH  20  21
ENDBRANCH  13  20
ENDBRANCH   1  15
TORSDOF 4
ENDMDL
MODEL 5
REMARK VINA RESULT:      -9.2      2.129      2.714
REMARK  Name = *****
REMARK                            x       y       z     vdW  Elec       q    Type
REMARK                         _______ _______ _______ _____ _____    ______ ____
ROOT
ATOM      1  C   LIG    1       27.708 -20.027   6.314  0.00  0.00    +0.202 A 
ATOM      2  N   LIG    1       26.642 -20.697   6.872  0.00  0.00    -0.187 NA
ATOM      3  C   LIG    1       25.749 -20.665   5.907  0.00  0.00    +0.262 A 
ATOM      4  O   LIG    1       26.176 -19.982   4.806  0.00  0.00    -0.332 OA
ATOM      5  N   LIG    1       27.473 -19.562   5.075  0.00  0.00    -0.056 NA
ENDROOT
BRANCH   3   6
ATOM      6  C   LIG    1       24.406 -21.214   5.862  0.00  0.00    +0.074 A 
ATOM      7  C   LIG    1       24.059 -22.370   6.567  0.00  0.00    +0.136 A 
ATOM      8  F   LIG    1       24.964 -23.012   7.320  0.00  0.00    -0.205 F 
ATOM      9  C   LIG    1       22.761 -22.879   6.532  0.00  0.00    +0.039 A 
ATOM     10  C   LIG    1       21.784 -22.230   5.778  0.00  0.00    +0.003 A 
ATOM     11  C   LIG    1       22.110 -21.075   5.068  0.00  0.00    +0.001 A 
ATOM     12  C   LIG    1       23.411 -20.565   5.115  0.00  0.00    +0.016 A 
ENDBRANCH   3   6
BRANCH   1  15
ATOM     13  C   LIG    1       30.723 -20.800   8.434  0.00  0.00    +0.059 A 
ATOM     14  C   LIG    1       29.521 -20.947   7.733  0.00  0.00    +0.026 A 
ATOM     15  C   LIG    1       28.993 -19.881   6.988  0.00  0.00    +0.023 A 
ATOM     16  C   LIG    1       29.707 -18.677   6.926  0.00  0.00    +0.012 A 
ATOM     17  C   LIG    1       30.926 -18.538   7.597  0.00  0.00    +0.002 A 
ATOM     18  C   LIG    1       31.433 -19.598   8.351  0.00  0.00    +0.015 A 
BRANCH  13  20
ATOM     19  O   LIG    1       30.858 -22.199  10.350  0.00  0.00    -0.245 OA
ATOM     20  C   LIG    1       31.284 -21.908   9.243  0.00  0.00    +0.337 C 
BRANCH  20  21
ATOM     21  O   LIG    1       32.275 -22.590   8.634  0.00  0.00    -0.477 OA
ATOM     22  H   LIG    1       32.374 -23.523   8.903  0.00  0.00    +0.295 HD
ENDBRANCH  20  21
ENDBRANCH  13  20
ENDBRANCH   1  15
TORSDOF 4
ENDMDL
MODEL 6
REMARK VINA RESULT:      -9.2      2.725      7.577
REMARK  Name = *****
REMARK                            x       y       z     vdW  Elec       q    Type
REMARK                         _______ _______ _______ _____ _____    ______ ____
ROOT
ATOM      1  C   LIG    1       27.746 -20.403   7.023  0.00  0.00    +0.202 A 
ATOM      2  N   LIG    1       28.255 -19.992   8.235  0.00  0.00    -0.187 NA
ATOM      3  C   LIG    1       29.242 -19.201   7.876  0.00  0.00    +0.262 A 
ATOM      4  O   LIG    1       29.406 -19.130   6.524  0.00  0.00    -0.332 OA
ATOM      5  N   LIG    1       28.414 -19.924   5.960  0.00  0.00    -0.056 NA
ENDROOT
BRANCH   3   6
ATOM      6  C   LIG    1       30.170 -18.440   8.692  0.00  0.00    +0.074 A 
ATOM      7  C   LIG    1       31.521 -18.318   8.353  0.00  0.00    +0.136 A 
ATOM      8  F   LIG    1       32.006 -18.901   7.247  0.00  0.00    -0.205 F 
ATOM      9  C   LIG    1       32.400 -17.569   9.134  0.00  0.00    +0.039 A 
ATOM     10  C   LIG    1       31.933 -16.929  10.281  0.00  0.00    +0.003 A 
ATOM     11  C   LIG    1       30.590 -17.037  10.636  0.00  0.00    +0.001 A 
ATOM     12  C   LIG    1       29.711 -17.782   9.844  0.00  0.00    +0.016 A 
ENDBRANCH   3   6
BRANCH   1  15
ATOM     13  C   LIG    1       24.203 -21.477   6.337  0.00  0.00    +0.059 A 
ATOM     14  C   LIG    1       25.366 -20.701   6.399  0.00  0.00    +0.026 A 
ATOM     15  C   LIG    1       26.559 -21.240   6.906  0.00  0.00    +0.023 A 
ATOM     16  C   LIG    1       26.578 -22.580   7.316  0.00  0.00    +0.012 A 
ATOM     17  C   LIG    1       25.427 -23.369   7.224  0.00  0.00    +0.002 A 
ATOM     18  C   LIG    1       24.240 -22.818   6.736  0.00  0.00    +0.015 A 
BRANCH  13  20
ATOM     19  O   LIG    1       22.675 -19.724   5.851  0.00  0.00    -0.245 OA
ATOM     20  C   LIG    1       22.929 -20.918   5.825  0.00  0.00    +0.337 C 
BRANCH  20  21
ATOM     21  O   LIG    1       22.098 -21.837   5.292  0.00  0.00    -0.477 OA
ATOM     22  H   LIG    1       21.941 -22.631   5.837  0.00  0.00    +0.295 HD
ENDBRANCH  20  21
ENDBRANCH  13  20
ENDBRANCH   1  15
TORSDOF 4
ENDMDL
MODEL 7
REMARK VINA RESULT:      -9.1      2.803      7.767
REMARK  Name = *****
REMARK                            x       y       z     vdW  Elec       q    Type
REMARK                         _______ _______ _______ _____ _____    ______ ____
ROOT
ATOM      1  C   LIG    1       29.202 -19.571   7.530  0.00  0.00    +0.202 A 
ATOM      2  N   LIG    1       29.372 -18.951   8.748  0.00  0.00    -0.187 NA
ATOM      3  C   LIG    1       30.494 -18.287   8.575  0.00  0.00    +0.262 A 
ATOM      4  O   LIG    1       31.051 -18.490   7.346  0.00  0.00    -0.332 OA
ATOM      5  N   LIG    1       30.194 -19.339   6.655  0.00  0.00    -0.056 NA
ENDROOT
BRANCH   3   6
ATOM      6  C   LIG    1       31.213 -17.419   9.488  0.00  0.00    +0.074 A 
ATOM      7  C   LIG    1       30.855 -17.308  10.836  0.00  0.00    +0.136 A 
ATOM      8  F   LIG    1       29.829 -18.014  11.333  0.00  0.00    -0.205 F 
ATOM      9  C   LIG    1       31.564 -16.484  11.709  0.00  0.00    +0.039 A 
ATOM     10  C   LIG    1       32.651 -15.750  11.238  0.00  0.00    +0.003 A 
ATOM     11  C   LIG    1       33.025 -15.846   9.899  0.00  0.00    +0.001 A 
ATOM     12  C   LIG    1       32.315 -16.681   9.029  0.00  0.00    +0.016 A 
ENDBRANCH   3   6
BRANCH   1  15
ATOM     13  C   LIG    1       26.057 -20.738   5.817  0.00  0.00    +0.059 A 
ATOM     14  C   LIG    1       27.224 -20.020   6.104  0.00  0.00    +0.026 A 
ATOM     15  C   LIG    1       28.023 -20.366   7.205  0.00  0.00    +0.023 A 
ATOM     16  C   LIG    1       27.656 -21.467   7.992  0.00  0.00    +0.012 A 
ATOM     17  C   LIG    1       26.510 -22.208   7.687  0.00  0.00    +0.002 A 
ATOM     18  C   LIG    1       25.710 -21.843   6.602  0.00  0.00    +0.015 A 
BRANCH  13  20
ATOM     19  O   LIG    1       23.985 -20.574   4.666  0.00  0.00    -0.245 OA
ATOM     20  C   LIG    1       25.190 -20.373   4.672  0.00  0.00    +0.337 C 
BRANCH  20  21
ATOM     21  O   LIG    1       25.839 -19.764   3.660  0.00  0.00    -0.477 OA
ATOM     22  H   LIG    1       26.731 -19.428   3.871  0.00  0.00    +0.295 HD
ENDBRANCH  20  21
ENDBRANCH  13  20
ENDBRANCH   1  15
TORSDOF 4
ENDMDL
MODEL 8
REMARK VINA RESULT:      -9.1      2.117      2.695
REMARK  Name = *****
REMARK                            x       y       z     vdW  Elec       q    Type
REMARK                         _______ _______ _______ _____ _____    ______ ____
ROOT
ATOM      1  C   LIG    1       27.853 -20.919   7.250  0.00  0.00    +0.202 A 
ATOM      2  N   LIG    1       27.067 -19.997   6.594  0.00  0.00    -0.187 NA
ATOM      3  C   LIG    1       26.023 -20.714   6.240  0.00  0.00    +0.262 A 
ATOM      4  O   LIG    1       26.130 -22.027   6.594  0.00  0.00    -0.332 OA
ATOM      5  N   LIG    1       27.341 -22.161   7.264  0.00  0.00    -0.056 NA
ENDROOT
BRANCH   3   6
ATOM      6  C   LIG    1       24.823 -20.321   5.523  0.00  0.00    +0.074 A 
ATOM      7  C   LIG    1       23.552 -20.439   6.094  0.00  0.00    +0.136 A 
ATOM      8  F   LIG    1       23.401 -20.916   7.338  0.00  0.00    -0.205 F 
ATOM      9  C   LIG    1       22.408 -20.042   5.404  0.00  0.00    +0.039 A 
ATOM     10  C   LIG    1       22.522 -19.521   4.117  0.00  0.00    +0.003 A 
ATOM     11  C   LIG    1       23.780 -19.395   3.529  0.00  0.00    +0.001 A 
ATOM     12  C   LIG    1       24.926 -19.786   4.230  0.00  0.00    +0.016 A 
ENDBRANCH   3   6
BRANCH   1  15
ATOM     13  C   LIG    1       30.640 -18.862   8.728  0.00  0.00    +0.059 A 
ATOM     14  C   LIG    1       29.417 -19.218   8.148  0.00  0.00    +0.026 A 
ATOM     15  C   LIG    1       29.102 -20.565   7.912  0.00  0.00    +0.023 A 
ATOM     16  C   LIG    1       30.017 -21.554   8.302  0.00  0.00    +0.012 A 
ATOM     17  C   LIG    1       31.225 -21.204   8.913  0.00  0.00    +0.002 A 
ATOM     18  C   LIG    1       31.537 -19.860   9.125  0.00  0.00    +0.015 A 
BRANCH  13  20
ATOM     19  O   LIG    1       30.276 -16.674   9.580  0.00  0.00    -0.245 OA
ATOM     20  C   LIG    1       30.998 -17.443   8.964  0.00  0.00    +0.337 C 
BRANCH  20  21
ATOM     21  O   LIG    1       32.204 -17.090   8.476  0.00  0.00    -0.477 OA
ATOM     22  H   LIG    1       32.898 -17.773   8.531  0.00  0.00    +0.295 HD
ENDBRANCH  20  21
ENDBRANCH  13  20
ENDBRANCH   1  15
TORSDOF 4
ENDMDL
MODEL 9
REMARK VINA RESULT:      -9.0      1.725      2.149
REMARK  Name = *****
REMARK                            x       y       z     vdW  Elec       q    Type
REMARK                         _______ _______ _______ _____ _____    ______ ____
ROOT
ATOM      1  C   LIG    1       28.216 -20.269   7.667  0.00  0.00    +0.202 A 
ATOM      2  N   LIG    1       27.317 -19.839   6.716  0.00  0.00    -0.187 NA
ATOM      3  C   LIG    1       26.303 -20.657   6.892  0.00  0.00    +0.262 A 
ATOM      4  O   LIG    1       26.532 -21.592   7.859  0.00  0.00    -0.332 OA
ATOM      5  N   LIG    1       27.797 -21.333   8.373  0.00  0.00    -0.056 NA
ENDROOT
BRANCH   3   6
ATOM      6  C   LIG    1       25.026 -20.720   6.205  0.00  0.00    +0.074 A 
ATOM      7  C   LIG    1       24.895 -20.365   4.859  0.00  0.00    +0.136 A 
ATOM      8  F   LIG    1       25.959 -19.957   4.151  0.00  0.00    -0.205 F 
ATOM      9  C   LIG    1       23.667 -20.446   4.204  0.00  0.00    +0.039 A 
ATOM     10  C   LIG    1       22.541 -20.885   4.897  0.00  0.00    +0.003 A 
ATOM     11  C   LIG    1       22.649 -21.245   6.239  0.00  0.00    +0.001 A 
ATOM     12  C   LIG    1       23.886 -21.170   6.889  0.00  0.00    +0.016 A 
ENDBRANCH   3   6
BRANCH   1  15
ATOM     13  C   LIG    1       30.850 -18.138   9.311  0.00  0.00    +0.059 A 
ATOM     14  C   LIG    1       29.659 -18.838   9.087  0.00  0.00    +0.026 A 
ATOM     15  C   LIG    1       29.484 -19.596   7.918  0.00  0.00    +0.023 A 
ATOM     16  C   LIG    1       30.537 -19.673   6.995  0.00  0.00    +0.012 A 
ATOM     17  C   LIG    1       31.741 -19.003   7.233  0.00  0.00    +0.002 A 
ATOM     18  C   LIG    1       31.897 -18.235   8.389  0.00  0.00    +0.015 A 
BRANCH  13  20
ATOM     19  O   LIG    1       30.196 -16.538  10.941  0.00  0.00    -0.245 OA
ATOM     20  C   LIG    1       31.043 -17.315  10.529  0.00  0.00    +0.337 C 
BRANCH  20  21
ATOM     21  O   LIG    1       32.214 -17.531  11.161  0.00  0.00    -0.477 OA
ATOM     22  H   LIG    1       32.275 -18.365  11.665  0.00  0.00    +0.295 HD
ENDBRANCH  20  21
ENDBRANCH  13  20
ENDBRANCH   1  15
TORSDOF 4
ENDMDL
