MODEL 1
REMARK VINA RESULT:      77.5      0.000      0.000
REMARK  Name = *****
REMARK                            x       y       z     vdW  Elec       q    Type
REMARK                         _______ _______ _______ _____ _____    ______ ____
ROOT
ATOM      1  C   LIG    1       26.788 -15.106   2.842  0.00  0.00    +0.140 C 
ATOM      2  C   LIG    1       27.499 -14.467   4.109  0.00  0.00    +0.045 C 
ATOM      3  C   LIG    1       28.970 -14.117   3.760  0.00  0.00    +0.013 C 
ATOM      4  C   LIG    1       27.349 -15.050   5.584  0.00  0.00    +0.130 C 
ATOM      5  C   LIG    1       28.117 -16.410   5.644  0.00  0.00    +0.018 C 
ATOM      6  C   LIG    1       29.355 -16.154   6.517  0.00  0.00    +0.010 C 
ATOM      7  C   LIG    1       27.209 -17.518   6.121  0.00  0.00    +0.051 C 
ATOM      8  C   LIG    1       27.336 -18.972   5.780  0.00  0.00    +0.151 C 
ATOM      9  O   LIG    1       28.391 -19.408   4.929  0.00  0.00    -0.360 OA
ATOM     10  C   LIG    1       28.582 -19.653   6.326  0.00  0.00    +0.204 C 
ATOM     11  C   LIG    1       26.046 -19.738   5.947  0.00  0.00    +0.173 C 
ATOM     12  O   LIG    1       25.353 -19.401   6.913  0.00  0.00    -0.294 OA
ATOM     13  C   LIG    1       25.580 -20.901   5.105  0.00  0.00    +0.096 C 
ATOM     14  C   LIG    1       26.612 -21.569   4.198  0.00  0.00    +0.019 C 
ATOM     15  C   LIG    1       24.188 -20.722   4.422  0.00  0.00    +0.193 C 
ATOM     16  C   LIG    1       24.141 -20.116   2.991  0.00  0.00    +0.068 C 
ATOM     17  C   LIG    1       22.921 -20.753   2.263  0.00  0.00    +0.015 C 
ATOM     18  C   LIG    1       24.139 -18.561   2.751  0.00  0.00    +0.180 C 
ATOM     19  C   LIG    1       22.874 -17.800   3.159  0.00  0.00    +0.052 C 
ATOM     20  O   LIG    1       25.255 -17.767   3.248  0.00  0.00    -0.461 OA
ATOM     21  C   LIG    1       26.376 -17.834   2.496  0.00  0.00    +0.313 C 
ATOM     22  O   LIG    1       26.706 -18.876   1.928  0.00  0.00    -0.250 OA
ATOM     23  C   LIG    1       27.118 -16.518   2.209  0.00  0.00    +0.124 C 
ATOM     24  C   LIG    1       28.615 -16.847   2.033  0.00  0.00    +0.022 C 
ENDROOT
BRANCH   1  25
ATOM     25  O   LIG    1       25.373 -14.832   2.780  0.00  0.00    -0.347 OA
BRANCH  25  31
ATOM     26  C   LIG    1       25.438 -12.479   4.600  0.00  0.00    +0.166 C 
ATOM     27  C   LIG    1       26.720 -11.789   4.035  0.00  0.00    +0.234 C 
ATOM     28  C   LIG    1       27.131 -12.532   2.726  0.00  0.00    +0.161 C 
ATOM     29  C   LIG    1       28.063 -11.756   1.819  0.00  0.00    +0.042 C 
ATOM     30  O   LIG    1       26.077 -12.814   1.815  0.00  0.00    -0.344 OA
ATOM     31  C   LIG    1       24.991 -13.512   2.367  0.00  0.00    +0.254 C 
ATOM     32  C   LIG    1       24.439 -12.593   3.440  0.00  0.00    +0.096 C 
BRANCH  26  34
ATOM     33  C   LIG    1       25.728 -11.463   6.737  0.00  0.00    +0.194 C 
ATOM     34  O   LIG    1       24.826 -11.729   5.660  0.00  0.00    -0.376 OA
ENDBRANCH  26  34
BRANCH  27  35
ATOM     35  O   LIG    1       27.890 -11.721   4.896  0.00  0.00    -0.456 OA
BRANCH  35  36
ATOM     36  C   LIG    1       27.969 -12.558   5.968  0.00  0.00    +0.304 C 
ATOM     37  O   LIG    1       27.073 -13.128   6.461  0.00  0.00    -0.251 OA
ATOM     38  C   LIG    1       29.418 -12.714   6.406  0.00  0.00    +0.136 C 
ENDBRANCH  35  36
ENDBRANCH  27  35
ENDBRANCH  25  31
ENDBRANCH   1  25
BRANCH   4  39
ATOM     39  O   LIG    1       25.995 -14.986   6.130  0.00  0.00    -0.344 OA
BRANCH  39  40
ATOM     40  C   LIG    1       24.808 -14.631   5.309  0.00  0.00    +0.293 C 
ATOM     41  C   LIG    1       23.600 -15.661   5.281  0.00  0.00    +0.249 C 
ATOM     42  C   LIG    1       22.267 -15.206   5.989  0.00  0.00    +0.104 C 
ATOM     43  C   LIG    1       22.404 -13.850   6.677  0.00  0.00    +0.054 C 
ATOM     44  C   LIG    1       23.053 -12.938   5.648  0.00  0.00    +0.120 C 
ATOM     45  C   LIG    1       22.826 -11.461   5.989  0.00  0.00    +0.038 C 
ATOM     46  O   LIG    1       24.446 -13.255   5.617  0.00  0.00    -0.345 OA
BRANCH  42  47
ATOM     47  N   LIG    1       21.556 -16.253   6.764  0.00  0.00    -0.302 NA
ATOM     48  C   LIG    1       20.158 -15.973   7.060  0.00  0.00    +0.105 C 
ATOM     49  C   LIG    1       21.677 -17.584   6.159  0.00  0.00    +0.105 C 
ENDBRANCH  42  47
BRANCH  41  50
ATOM     50  O   LIG    1       23.286 -15.792   3.837  0.00  0.00    -0.455 OA
BRANCH  50  51
ATOM     51  C   LIG    1       22.040 -15.497   3.400  0.00  0.00    +0.304 C 
ATOM     52  O   LIG    1       21.674 -14.419   2.936  0.00  0.00    -0.251 OA
ATOM     53  C   LIG    1       21.127 -16.684   3.551  0.00  0.00    +0.136 C 
ENDBRANCH  50  51
ENDBRANCH  41  50
ENDBRANCH  39  40
ENDBRANCH   4  39
BRANCH  15  54
ATOM     54  O   LIG    1       23.144 -20.118   5.223  0.00  0.00    -0.460 OA
BRANCH  54  55
ATOM     55  C   LIG    1       21.873 -20.555   4.987  0.00  0.00    +0.304 C 
ATOM     56  O   LIG    1       21.118 -20.129   4.115  0.00  0.00    -0.251 OA
ATOM     57  C   LIG    1       21.426 -21.570   6.004  0.00  0.00    +0.136 C 
ENDBRANCH  54  55
ENDBRANCH  15  54
TORSDOF 12
ENDMDL
MODEL 2
REMARK VINA RESULT:      79.3      1.946      4.650
REMARK  Name = *****
REMARK                            x       y       z     vdW  Elec       q    Type
REMARK                         _______ _______ _______ _____ _____    ______ ____
ROOT
ATOM      1  C   LIG    1       26.596 -17.721   2.213  0.00  0.00    +0.140 C 
ATOM      2  C   LIG    1       27.677 -17.462   3.345  0.00  0.00    +0.045 C 
ATOM      3  C   LIG    1       28.928 -18.342   3.085  0.00  0.00    +0.013 C 
ATOM      4  C   LIG    1       27.317 -17.365   4.894  0.00  0.00    +0.130 C 
ATOM      5  C   LIG    1       26.919 -18.795   5.386  0.00  0.00    +0.018 C 
ATOM      6  C   LIG    1       28.065 -19.260   6.296  0.00  0.00    +0.010 C 
ATOM      7  C   LIG    1       25.552 -18.780   6.026  0.00  0.00    +0.051 C 
ATOM      8  C   LIG    1       24.591 -19.929   6.085  0.00  0.00    +0.151 C 
ATOM      9  O   LIG    1       24.947 -21.177   5.496  0.00  0.00    -0.360 OA
ATOM     10  C   LIG    1       25.056 -21.111   6.921  0.00  0.00    +0.204 C 
ATOM     11  C   LIG    1       23.160 -19.500   6.298  0.00  0.00    +0.173 C 
ATOM     12  O   LIG    1       23.005 -18.541   7.062  0.00  0.00    -0.294 OA
ATOM     13  C   LIG    1       21.931 -20.171   5.735  0.00  0.00    +0.096 C 
ATOM     14  C   LIG    1       22.101 -21.572   5.150  0.00  0.00    +0.019 C 
ATOM     15  C   LIG    1       20.998 -19.258   4.878  0.00  0.00    +0.193 C 
ATOM     16  C   LIG    1       21.239 -19.191   3.344  0.00  0.00    +0.068 C 
ATOM     17  C   LIG    1       19.855 -18.955   2.672  0.00  0.00    +0.015 C 
ATOM     18  C   LIG    1       22.298 -18.211   2.716  0.00  0.00    +0.180 C 
ATOM     19  C   LIG    1       21.975 -16.715   2.772  0.00  0.00    +0.052 C 
ATOM     20  O   LIG    1       23.695 -18.329   3.114  0.00  0.00    -0.461 OA
ATOM     21  C   LIG    1       24.364 -19.350   2.534  0.00  0.00    +0.313 C 
ATOM     22  O   LIG    1       23.812 -20.423   2.291  0.00  0.00    -0.250 OA
ATOM     23  C   LIG    1       25.778 -19.060   2.004  0.00  0.00    +0.124 C 
ATOM     24  C   LIG    1       26.592 -20.369   2.085  0.00  0.00    +0.022 C 
ENDROOT
BRANCH   1  25
ATOM     25  O   LIG    1       25.778 -16.568   1.927  0.00  0.00    -0.347 OA
BRANCH  25  31
ATOM     26  C   LIG    1       23.937 -14.271   2.356  0.00  0.00    +0.166 C 
ATOM     27  C   LIG    1       23.770 -14.399   3.904  0.00  0.00    +0.234 C 
ATOM     28  C   LIG    1       24.794 -15.460   4.413  0.00  0.00    +0.161 C 
ATOM     29  C   LIG    1       25.084 -15.402   5.899  0.00  0.00    +0.042 C 
ATOM     30  O   LIG    1       26.114 -15.346   3.899  0.00  0.00    -0.344 OA
ATOM     31  C   LIG    1       26.201 -15.322   2.498  0.00  0.00    +0.254 C 
ATOM     32  C   LIG    1       25.435 -14.083   2.078  0.00  0.00    +0.096 C 
BRANCH  26  34
ATOM     33  C   LIG    1       23.018 -12.111   2.773  0.00  0.00    +0.194 C 
ATOM     34  O   LIG    1       23.225 -13.150   1.812  0.00  0.00    -0.376 OA
ENDBRANCH  26  34
BRANCH  27  35
ATOM     35  O   LIG    1       22.458 -14.762   4.417  0.00  0.00    -0.456 OA
BRANCH  35  36
ATOM     36  C   LIG    1       21.940 -14.055   5.460  0.00  0.00    +0.304 C 
ATOM     37  O   LIG    1       21.046 -14.389   6.138  0.00  0.00    -0.251 OA
ATOM     38  C   LIG    1       22.742 -12.780   5.677  0.00  0.00    +0.136 C 
ENDBRANCH  35  36
ENDBRANCH  27  35
ENDBRANCH  25  31
ENDBRANCH   1  25
BRANCH   4  39
ATOM     39  O   LIG    1       26.460 -16.238   5.252  0.00  0.00    -0.344 OA
BRANCH  39  40
ATOM     40  C   LIG    1       26.994 -14.926   5.703  0.00  0.00    +0.293 C 
ATOM     41  C   LIG    1       27.810 -14.064   4.649  0.00  0.00    +0.249 C 
ATOM     42  C   LIG    1       27.133 -12.730   4.152  0.00  0.00    +0.104 C 
ATOM     43  C   LIG    1       25.728 -12.541   4.720  0.00  0.00    +0.054 C 
ATOM     44  C   LIG    1       25.856 -12.803   6.212  0.00  0.00    +0.120 C 
ATOM     45  C   LIG    1       24.680 -12.200   6.988  0.00  0.00    +0.038 C 
ATOM     46  O   LIG    1       25.923 -14.219   6.391  0.00  0.00    -0.345 OA
BRANCH  42  47
ATOM     47  N   LIG    1       27.291 -12.423   2.709  0.00  0.00    -0.302 NA
ATOM     48  C   LIG    1       26.129 -11.828   2.064  0.00  0.00    +0.105 C 
ATOM     49  C   LIG    1       28.481 -11.612   2.430  0.00  0.00    +0.105 C 
ENDBRANCH  42  47
BRANCH  41  50
ATOM     50  O   LIG    1       29.029 -13.664   5.394  0.00  0.00    -0.455 OA
BRANCH  50  51
ATOM     51  C   LIG    1       29.191 -12.370   5.755  0.00  0.00    +0.304 C 
ATOM     52  O   LIG    1       29.438 -11.963   6.888  0.00  0.00    -0.251 OA
ATOM     53  C   LIG    1       29.031 -11.461   4.567  0.00  0.00    +0.136 C 
ENDBRANCH  50  51
ENDBRANCH  41  50
ENDBRANCH  39  40
ENDBRANCH   4  39
BRANCH  15  54
ATOM     54  O   LIG    1       20.764 -17.920   5.377  0.00  0.00    -0.460 OA
BRANCH  54  55
ATOM     55  C   LIG    1       20.672 -16.933   4.438  0.00  0.00    +0.304 C 
ATOM     56  O   LIG    1       21.286 -15.868   4.454  0.00  0.00    -0.251 OA
ATOM     57  C   LIG    1       19.627 -17.236   3.399  0.00  0.00    +0.136 C 
ENDBRANCH  54  55
ENDBRANCH  15  54
TORSDOF 12
ENDMDL
