MODEL 1
REMARK VINA RESULT:      -8.7      0.000      0.000
REMARK  Name = *****
REMARK                            x       y       z     vdW  Elec       q    Type
REMARK                         _______ _______ _______ _____ _____    ______ ____
ROOT
ATOM      1  C   LIG    1       25.773 -20.726   6.750  0.00  0.00    +0.065 C 
ENDROOT
BRANCH   1   2
ATOM      2  C   LIG    1       27.301 -20.571   6.839  0.00  0.00    -0.040 A 
ATOM      3  C   LIG    1       27.967 -19.698   5.962  0.00  0.00    +0.007 A 
ATOM      4  C   LIG    1       29.346 -19.492   6.059  0.00  0.00    +0.045 A 
ATOM      5  C   LIG    1       30.071 -20.155   7.044  0.00  0.00    +0.117 A 
ATOM      6  C   LIG    1       29.442 -21.035   7.911  0.00  0.00    +0.045 A 
ATOM      7  C   LIG    1       28.065 -21.254   7.800  0.00  0.00    +0.007 A 
BRANCH   5   8
ATOM      8  O   LIG    1       31.408 -19.905   7.125  0.00  0.00    -0.507 OA
ATOM      9  H   LIG    1       31.857 -20.399   6.418  0.00  0.00    +0.292 HD
ENDBRANCH   5   8
ENDBRANCH   1   2
BRANCH   1  10
ATOM     10  C   LIG    1       25.228 -21.867   7.712  0.00  0.00    +0.074 C 
ATOM     11  C   LIG    1       23.682 -22.002   7.709  0.00  0.00    +0.035 C 
ATOM     12  C   LIG    1       23.082 -22.948   6.669  0.00  0.00    +0.003 C 
ATOM     13  C   LIG    1       23.790 -24.294   6.608  0.00  0.00    +0.000 C 
ATOM     14  C   LIG    1       25.298 -24.145   6.471  0.00  0.00    +0.003 C 
ATOM     15  C   LIG    1       25.873 -23.265   7.572  0.00  0.00    +0.035 C 
BRANCH  10  16
ATOM     16  O   LIG    1       25.526 -21.425   9.064  0.00  0.00    -0.388 OA
ATOM     17  H   LIG    1       25.796 -20.490   9.013  0.00  0.00    +0.210 HD
ENDBRANCH  10  16
ENDBRANCH   1  10
BRANCH   1  18
ATOM     18  C   LIG    1       25.240 -20.798   5.289  0.00  0.00    +0.094 C 
BRANCH  18  20
ATOM     19  C   LIG    1       25.024 -19.204   3.498  0.00  0.00    +0.104 C 
ATOM     20  N   LIG    1       24.451 -19.658   4.772  0.00  0.00    -0.308 NA
ATOM     21  C   LIG    1       23.039 -19.990   4.583  0.00  0.00    +0.104 C 
ENDBRANCH  18  20
ENDBRANCH   1  18
TORSDOF 6
ENDMDL
MODEL 2
REMARK VINA RESULT:      -8.2      2.124      4.721
REMARK  Name = *****
REMARK                            x       y       z     vdW  Elec       q    Type
REMARK                         _______ _______ _______ _____ _____    ______ ____
ROOT
ATOM      1  C   LIG    1       25.757 -21.389   6.346  0.00  0.00    +0.065 C 
ENDROOT
BRANCH   1   2
ATOM      2  C   LIG    1       24.646 -20.611   5.620  0.00  0.00    -0.040 A 
ATOM      3  C   LIG    1       23.461 -20.287   6.301  0.00  0.00    +0.007 A 
ATOM      4  C   LIG    1       22.459 -19.530   5.686  0.00  0.00    +0.045 A 
ATOM      5  C   LIG    1       22.641 -19.085   4.380  0.00  0.00    +0.117 A 
ATOM      6  C   LIG    1       23.792 -19.406   3.678  0.00  0.00    +0.045 A 
ATOM      7  C   LIG    1       24.785 -20.179   4.289  0.00  0.00    +0.007 A 
BRANCH   5   8
ATOM      8  O   LIG    1       21.654 -18.326   3.825  0.00  0.00    -0.507 OA
ATOM      9  H   LIG    1       20.799 -18.628   4.175  0.00  0.00    +0.292 HD
ENDBRANCH   5   8
ENDBRANCH   1   2
BRANCH   1  10
ATOM     10  C   LIG    1       25.174 -22.467   7.356  0.00  0.00    +0.074 C 
ATOM     11  C   LIG    1       23.658 -22.743   7.170  0.00  0.00    +0.035 C 
ATOM     12  C   LIG    1       23.282 -23.843   6.178  0.00  0.00    +0.003 C 
ATOM     13  C   LIG    1       24.092 -25.118   6.366  0.00  0.00    +0.000 C 
ATOM     14  C   LIG    1       25.588 -24.847   6.407  0.00  0.00    +0.003 C 
ATOM     15  C   LIG    1       25.937 -23.808   7.463  0.00  0.00    +0.035 C 
BRANCH  10  16
ATOM     16  O   LIG    1       25.249 -21.861   8.675  0.00  0.00    -0.388 OA
ATOM     17  H   LIG    1       25.976 -21.213   8.658  0.00  0.00    +0.210 HD
ENDBRANCH  10  16
ENDBRANCH   1  10
BRANCH   1  18
ATOM     18  C   LIG    1       26.868 -20.474   6.942  0.00  0.00    +0.094 C 
BRANCH  18  20
ATOM     19  C   LIG    1       28.842 -19.476   5.992  0.00  0.00    +0.104 C 
ATOM     20  N   LIG    1       28.269 -20.716   6.533  0.00  0.00    -0.308 NA
ATOM     21  C   LIG    1       29.102 -21.197   7.636  0.00  0.00    +0.104 C 
ENDBRANCH  18  20
ENDBRANCH   1  18
TORSDOF 6
ENDMDL
MODEL 3
REMARK VINA RESULT:      -8.0      1.688      3.291
REMARK  Name = *****
REMARK                            x       y       z     vdW  Elec       q    Type
REMARK                         _______ _______ _______ _____ _____    ______ ____
ROOT
ATOM      1  C   LIG    1       25.834 -22.142   6.540  0.00  0.00    +0.065 C 
ENDROOT
BRANCH   1   2
ATOM      2  C   LIG    1       27.131 -21.329   6.701  0.00  0.00    -0.040 A 
ATOM      3  C   LIG    1       28.063 -21.690   7.687  0.00  0.00    +0.007 A 
ATOM      4  C   LIG    1       29.276 -21.007   7.818  0.00  0.00    +0.045 A 
ATOM      5  C   LIG    1       29.568 -19.957   6.953  0.00  0.00    +0.117 A 
ATOM      6  C   LIG    1       28.658 -19.568   5.983  0.00  0.00    +0.045 A 
ATOM      7  C   LIG    1       27.438 -20.240   5.866  0.00  0.00    +0.007 A 
BRANCH   5   8
ATOM      8  O   LIG    1       30.773 -19.335   7.093  0.00  0.00    -0.507 OA
ATOM      9  H   LIG    1       31.193 -19.278   6.218  0.00  0.00    +0.292 HD
ENDBRANCH   5   8
ENDBRANCH   1   2
BRANCH   1  10
ATOM     10  C   LIG    1       24.549 -21.314   6.971  0.00  0.00    +0.074 C 
ATOM     11  C   LIG    1       24.172 -20.182   5.978  0.00  0.00    +0.035 C 
ATOM     12  C   LIG    1       23.230 -20.561   4.836  0.00  0.00    +0.003 C 
ATOM     13  C   LIG    1       22.021 -21.361   5.301  0.00  0.00    +0.000 C 
ATOM     14  C   LIG    1       22.416 -22.552   6.162  0.00  0.00    +0.003 C 
ATOM     15  C   LIG    1       23.285 -22.126   7.337  0.00  0.00    +0.035 C 
BRANCH  10  16
ATOM     16  O   LIG    1       24.923 -20.595   8.178  0.00  0.00    -0.388 OA
ATOM     17  H   LIG    1       24.237 -20.771   8.847  0.00  0.00    +0.210 HD
ENDBRANCH  10  16
ENDBRANCH   1  10
BRANCH   1  18
ATOM     18  C   LIG    1       25.919 -23.573   7.146  0.00  0.00    +0.094 C 
BRANCH  18  20
ATOM     19  C   LIG    1       25.874 -25.973   6.968  0.00  0.00    +0.104 C 
ATOM     20  N   LIG    1       26.050 -24.720   6.222  0.00  0.00    -0.308 NA
ATOM     21  C   LIG    1       25.088 -24.669   5.120  0.00  0.00    +0.104 C 
ENDBRANCH  18  20
ENDBRANCH   1  18
TORSDOF 6
ENDMDL
MODEL 4
REMARK VINA RESULT:      -7.8      2.293      4.065
REMARK  Name = *****
REMARK                            x       y       z     vdW  Elec       q    Type
REMARK                         _______ _______ _______ _____ _____    ______ ____
ROOT
ATOM      1  C   LIG    1       25.049 -23.267   6.227  0.00  0.00    +0.065 C 
ENDROOT
BRANCH   1   2
ATOM      2  C   LIG    1       26.040 -22.168   6.648  0.00  0.00    -0.040 A 
ATOM      3  C   LIG    1       26.652 -22.225   7.911  0.00  0.00    +0.007 A 
ATOM      4  C   LIG    1       27.600 -21.274   8.298  0.00  0.00    +0.045 A 
ATOM      5  C   LIG    1       27.951 -20.257   7.415  0.00  0.00    +0.117 A 
ATOM      6  C   LIG    1       27.350 -20.166   6.170  0.00  0.00    +0.045 A 
ATOM      7  C   LIG    1       26.387 -21.108   5.792  0.00  0.00    +0.007 A 
BRANCH   5   8
ATOM      8  O   LIG    1       28.900 -19.366   7.817  0.00  0.00    -0.507 OA
ATOM      9  H   LIG    1       29.679 -19.862   8.122  0.00  0.00    +0.292 HD
ENDBRANCH   5   8
ENDBRANCH   1   2
BRANCH   1  10
ATOM     10  C   LIG    1       23.539 -22.782   6.321  0.00  0.00    +0.074 C 
ATOM     11  C   LIG    1       23.257 -21.846   7.526  0.00  0.00    +0.035 C 
ATOM     12  C   LIG    1       23.454 -20.349   7.287  0.00  0.00    +0.003 C 
ATOM     13  C   LIG    1       22.807 -19.860   5.998  0.00  0.00    +0.000 C 
ATOM     14  C   LIG    1       23.204 -20.707   4.799  0.00  0.00    +0.003 C 
ATOM     15  C   LIG    1       22.917 -22.183   5.039  0.00  0.00    +0.035 C 
BRANCH  10  16
ATOM     16  O   LIG    1       22.757 -23.970   6.625  0.00  0.00    -0.388 OA
ATOM     17  H   LIG    1       23.038 -24.288   7.502  0.00  0.00    +0.210 HD
ENDBRANCH  10  16
ENDBRANCH   1  10
BRANCH   1  18
ATOM     18  C   LIG    1       25.332 -24.646   6.891  0.00  0.00    +0.094 C 
BRANCH  18  20
ATOM     19  C   LIG    1       25.229 -25.708   4.733  0.00  0.00    +0.104 C 
ATOM     20  N   LIG    1       24.934 -25.871   6.163  0.00  0.00    -0.308 NA
ATOM     21  C   LIG    1       25.606 -27.069   6.667  0.00  0.00    +0.104 C 
ENDBRANCH  18  20
ENDBRANCH   1  18
TORSDOF 6
ENDMDL
MODEL 5
REMARK VINA RESULT:      -7.6      2.792      5.475
REMARK  Name = *****
REMARK                            x       y       z     vdW  Elec       q    Type
REMARK                         _______ _______ _______ _____ _____    ______ ____
ROOT
ATOM      1  C   LIG    1       24.894 -21.411   5.858  0.00  0.00    +0.065 C 
ENDROOT
BRANCH   1   2
ATOM      2  C   LIG    1       24.859 -22.923   6.138  0.00  0.00    -0.040 A 
ATOM      3  C   LIG    1       23.628 -23.568   6.341  0.00  0.00    +0.007 A 
ATOM      4  C   LIG    1       23.561 -24.950   6.538  0.00  0.00    +0.045 A 
ATOM      5  C   LIG    1       24.732 -25.702   6.527  0.00  0.00    +0.117 A 
ATOM      6  C   LIG    1       25.962 -25.089   6.347  0.00  0.00    +0.045 A 
ATOM      7  C   LIG    1       26.028 -23.703   6.168  0.00  0.00    +0.007 A 
BRANCH   5   8
ATOM      8  O   LIG    1       24.623 -27.050   6.693  0.00  0.00    -0.507 OA
ATOM      9  H   LIG    1       23.681 -27.288   6.670  0.00  0.00    +0.292 HD
ENDBRANCH   5   8
ENDBRANCH   1   2
BRANCH   1  10
ATOM     10  C   LIG    1       24.133 -21.031   4.516  0.00  0.00    +0.074 C 
ATOM     11  C   LIG    1       22.635 -20.682   4.723  0.00  0.00    +0.035 C 
ATOM     12  C   LIG    1       22.311 -19.218   5.018  0.00  0.00    +0.003 C 
ATOM     13  C   LIG    1       23.015 -18.250   4.079  0.00  0.00    +0.000 C 
ATOM     14  C   LIG    1       24.510 -18.517   3.993  0.00  0.00    +0.003 C 
ATOM     15  C   LIG    1       24.796 -19.964   3.615  0.00  0.00    +0.035 C 
BRANCH  10  16
ATOM     16  O   LIG    1       24.090 -22.249   3.723  0.00  0.00    -0.388 OA
ATOM     17  H   LIG    1       24.055 -23.000   4.343  0.00  0.00    +0.210 HD
ENDBRANCH  10  16
ENDBRANCH   1  10
BRANCH   1  18
ATOM     18  C   LIG    1       26.311 -20.784   6.001  0.00  0.00    +0.094 C 
BRANCH  18  20
ATOM     19  C   LIG    1       25.690 -20.616   8.321  0.00  0.00    +0.104 C 
ATOM     20  N   LIG    1       26.748 -20.334   7.341  0.00  0.00    -0.308 NA
ATOM     21  C   LIG    1       27.994 -20.971   7.771  0.00  0.00    +0.104 C 
ENDBRANCH  18  20
ENDBRANCH   1  18
TORSDOF 6
ENDMDL
MODEL 6
REMARK VINA RESULT:      -7.5      3.013      5.354
REMARK  Name = *****
REMARK                            x       y       z     vdW  Elec       q    Type
REMARK                         _______ _______ _______ _____ _____    ______ ____
ROOT
ATOM      1  C   LIG    1       25.037 -23.336   6.940  0.00  0.00    +0.065 C 
ENDROOT
BRANCH   1   2
ATOM      2  C   LIG    1       25.335 -24.772   6.475  0.00  0.00    -0.040 A 
ATOM      3  C   LIG    1       25.263 -25.093   5.109  0.00  0.00    +0.007 A 
ATOM      4  C   LIG    1       25.586 -26.374   4.651  0.00  0.00    +0.045 A 
ATOM      5  C   LIG    1       25.993 -27.345   5.561  0.00  0.00    +0.117 A 
ATOM      6  C   LIG    1       26.056 -27.060   6.916  0.00  0.00    +0.045 A 
ATOM      7  C   LIG    1       25.714 -25.784   7.374  0.00  0.00    +0.007 A 
BRANCH   5   8
ATOM      8  O   LIG    1       26.327 -28.573   5.072  0.00  0.00    -0.507 OA
ATOM      9  H   LIG    1       26.596 -28.472   4.144  0.00  0.00    +0.292 HD
ENDBRANCH   5   8
ENDBRANCH   1   2
BRANCH   1  10
ATOM     10  C   LIG    1       23.595 -22.846   6.488  0.00  0.00    +0.074 C 
ATOM     11  C   LIG    1       22.962 -21.801   7.445  0.00  0.00    +0.035 C 
ATOM     12  C   LIG    1       23.271 -20.333   7.152  0.00  0.00    +0.003 C 
ATOM     13  C   LIG    1       23.097 -19.968   5.685  0.00  0.00    +0.000 C 
ATOM     14  C   LIG    1       23.840 -20.923   4.763  0.00  0.00    +0.003 C 
ATOM     15  C   LIG    1       23.445 -22.370   5.025  0.00  0.00    +0.035 C 
BRANCH  10  16
ATOM     16  O   LIG    1       22.721 -24.000   6.622  0.00  0.00    -0.388 OA
ATOM     17  H   LIG    1       21.840 -23.672   6.877  0.00  0.00    +0.210 HD
ENDBRANCH  10  16
ENDBRANCH   1  10
BRANCH   1  18
ATOM     18  C   LIG    1       26.189 -22.333   6.636  0.00  0.00    +0.094 C 
BRANCH  18  20
ATOM     19  C   LIG    1       28.333 -21.444   7.276  0.00  0.00    +0.104 C 
ATOM     20  N   LIG    1       27.006 -21.840   7.767  0.00  0.00    -0.308 NA
ATOM     21  C   LIG    1       26.385 -20.712   8.462  0.00  0.00    +0.104 C 
ENDBRANCH  18  20
ENDBRANCH   1  18
TORSDOF 6
ENDMDL
MODEL 7
REMARK VINA RESULT:      -7.4      2.820      5.068
REMARK  Name = *****
REMARK                            x       y       z     vdW  Elec       q    Type
REMARK                         _______ _______ _______ _____ _____    ______ ____
ROOT
ATOM      1  C   LIG    1       25.511 -23.038   6.143  0.00  0.00    +0.065 C 
ENDROOT
BRANCH   1   2
ATOM      2  C   LIG    1       24.563 -21.932   5.647  0.00  0.00    -0.040 A 
ATOM      3  C   LIG    1       23.664 -21.329   6.542  0.00  0.00    +0.007 A 
ATOM      4  C   LIG    1       22.833 -20.282   6.135  0.00  0.00    +0.045 A 
ATOM      5  C   LIG    1       22.900 -19.824   4.823  0.00  0.00    +0.117 A 
ATOM      6  C   LIG    1       23.765 -20.413   3.913  0.00  0.00    +0.045 A 
ATOM      7  C   LIG    1       24.582 -21.473   4.318  0.00  0.00    +0.007 A 
BRANCH   5   8
ATOM      8  O   LIG    1       22.095 -18.782   4.471  0.00  0.00    -0.507 OA
ATOM      9  H   LIG    1       22.303 -18.528   3.556  0.00  0.00    +0.292 HD
ENDBRANCH   5   8
ENDBRANCH   1   2
BRANCH   1  10
ATOM     10  C   LIG    1       24.777 -24.440   6.283  0.00  0.00    +0.074 C 
ATOM     11  C   LIG    1       24.358 -25.066   4.927  0.00  0.00    +0.035 C 
ATOM     12  C   LIG    1       25.389 -25.963   4.242  0.00  0.00    +0.003 C 
ATOM     13  C   LIG    1       26.019 -26.976   5.188  0.00  0.00    +0.000 C 
ATOM     14  C   LIG    1       26.551 -26.327   6.456  0.00  0.00    +0.003 C 
ATOM     15  C   LIG    1       25.474 -25.509   7.156  0.00  0.00    +0.035 C 
BRANCH  10  16
ATOM     16  O   LIG    1       23.507 -24.162   6.934  0.00  0.00    -0.388 OA
ATOM     17  H   LIG    1       23.079 -25.018   7.117  0.00  0.00    +0.210 HD
ENDBRANCH  10  16
ENDBRANCH   1  10
BRANCH   1  18
ATOM     18  C   LIG    1       26.358 -22.621   7.380  0.00  0.00    +0.094 C 
BRANCH  18  20
ATOM     19  C   LIG    1       26.553 -20.464   8.432  0.00  0.00    +0.104 C 
ATOM     20  N   LIG    1       27.055 -21.316   7.346  0.00  0.00    -0.308 NA
ATOM     21  C   LIG    1       28.508 -21.451   7.463  0.00  0.00    +0.104 C 
ENDBRANCH  18  20
ENDBRANCH   1  18
TORSDOF 6
ENDMDL
MODEL 8
REMARK VINA RESULT:      -7.2      1.917      2.729
REMARK  Name = *****
REMARK                            x       y       z     vdW  Elec       q    Type
REMARK                         _______ _______ _______ _____ _____    ______ ____
ROOT
ATOM      1  C   LIG    1       24.992 -20.282   4.974  0.00  0.00    +0.065 C 
ENDROOT
BRANCH   1   2
ATOM      2  C   LIG    1       26.152 -20.393   5.979  0.00  0.00    -0.040 A 
ATOM      3  C   LIG    1       27.478 -20.406   5.516  0.00  0.00    +0.007 A 
ATOM      4  C   LIG    1       28.553 -20.445   6.408  0.00  0.00    +0.045 A 
ATOM      5  C   LIG    1       28.307 -20.464   7.778  0.00  0.00    +0.117 A 
ATOM      6  C   LIG    1       27.008 -20.471   8.261  0.00  0.00    +0.045 A 
ATOM      7  C   LIG    1       25.934 -20.450   7.366  0.00  0.00    +0.007 A 
BRANCH   5   8
ATOM      8  O   LIG    1       29.382 -20.473   8.616  0.00  0.00    -0.507 OA
ATOM      9  H   LIG    1       29.848 -21.320   8.511  0.00  0.00    +0.292 HD
ENDBRANCH   5   8
ENDBRANCH   1   2
BRANCH   1  10
ATOM     10  C   LIG    1       24.136 -21.618   4.895  0.00  0.00    +0.074 C 
ATOM     11  C   LIG    1       24.984 -22.912   5.022  0.00  0.00    +0.035 C 
ATOM     12  C   LIG    1       25.210 -23.444   6.437  0.00  0.00    +0.003 C 
ATOM     13  C   LIG    1       23.934 -23.493   7.266  0.00  0.00    +0.000 C 
ATOM     14  C   LIG    1       23.184 -22.170   7.245  0.00  0.00    +0.003 C 
ATOM     15  C   LIG    1       22.902 -21.713   5.821  0.00  0.00    +0.035 C 
BRANCH  10  16
ATOM     16  O   LIG    1       23.621 -21.683   3.537  0.00  0.00    -0.388 OA
ATOM     17  H   LIG    1       22.875 -21.059   3.478  0.00  0.00    +0.210 HD
ENDBRANCH  10  16
ENDBRANCH   1  10
BRANCH   1  18
ATOM     18  C   LIG    1       25.419 -19.702   3.594  0.00  0.00    +0.094 C 
BRANCH  18  20
ATOM     19  C   LIG    1       23.674 -18.087   3.973  0.00  0.00    +0.104 C 
ATOM     20  N   LIG    1       24.880 -18.385   3.189  0.00  0.00    -0.308 NA
ATOM     21  C   LIG    1       25.851 -17.303   3.358  0.00  0.00    +0.104 C 
ENDBRANCH  18  20
ENDBRANCH   1  18
TORSDOF 6
ENDMDL
MODEL 9
REMARK VINA RESULT:      -6.9      1.928      3.083
REMARK  Name = *****
REMARK                            x       y       z     vdW  Elec       q    Type
REMARK                         _______ _______ _______ _____ _____    ______ ____
ROOT
ATOM      1  C   LIG    1       23.347 -20.833   6.543  0.00  0.00    +0.065 C 
ENDROOT
BRANCH   1   2
ATOM      2  C   LIG    1       24.820 -20.890   6.985  0.00  0.00    -0.040 A 
ATOM      3  C   LIG    1       25.162 -21.521   8.192  0.00  0.00    +0.007 A 
ATOM      4  C   LIG    1       26.496 -21.641   8.590  0.00  0.00    +0.045 A 
ATOM      5  C   LIG    1       27.504 -21.135   7.775  0.00  0.00    +0.117 A 
ATOM      6  C   LIG    1       27.193 -20.492   6.587  0.00  0.00    +0.045 A 
ATOM      7  C   LIG    1       25.856 -20.356   6.199  0.00  0.00    +0.007 A 
BRANCH   5   8
ATOM      8  O   LIG    1       28.794 -21.297   8.183  0.00  0.00    -0.507 OA
ATOM      9  H   LIG    1       29.354 -20.679   7.684  0.00  0.00    +0.292 HD
ENDBRANCH   5   8
ENDBRANCH   1   2
BRANCH   1  10
ATOM     10  C   LIG    1       22.927 -22.103   5.686  0.00  0.00    +0.074 C 
ATOM     11  C   LIG    1       23.979 -22.516   4.623  0.00  0.00    +0.035 C 
ATOM     12  C   LIG    1       25.059 -23.498   5.077  0.00  0.00    +0.003 C 
ATOM     13  C   LIG    1       24.498 -24.689   5.842  0.00  0.00    +0.000 C 
ATOM     14  C   LIG    1       23.574 -24.262   6.973  0.00  0.00    +0.003 C 
ATOM     15  C   LIG    1       22.462 -23.352   6.470  0.00  0.00    +0.035 C 
BRANCH  10  16
ATOM     16  O   LIG    1       21.785 -21.687   4.888  0.00  0.00    -0.388 OA
ATOM     17  H   LIG    1       20.989 -22.079   5.290  0.00  0.00    +0.210 HD
ENDBRANCH  10  16
ENDBRANCH   1  10
BRANCH   1  18
ATOM     18  C   LIG    1       22.938 -19.466   5.921  0.00  0.00    +0.094 C 
BRANCH  18  20
ATOM     19  C   LIG    1       21.746 -18.381   4.132  0.00  0.00    +0.104 C 
ATOM     20  N   LIG    1       22.770 -19.384   4.453  0.00  0.00    -0.308 NA
ATOM     21  C   LIG    1       24.015 -19.049   3.762  0.00  0.00    +0.104 C 
ENDBRANCH  18  20
ENDBRANCH   1  18
TORSDOF 6
ENDMDL
