MODEL 1
REMARK VINA RESULT:      -5.4      0.000      0.000
REMARK  Name = *****
REMARK                            x       y       z     vdW  Elec       q    Type
REMARK                         _______ _______ _______ _____ _____    ______ ____
ROOT
ATOM      1  C   LIG    1       31.139 -19.577   7.855  0.00  0.00    +0.175 C 
ENDROOT
BRANCH   1   3
ATOM      2  O   LIG    1       31.894 -18.648   9.972  0.00  0.00    -0.250 OA
ATOM      3  C   LIG    1       31.752 -18.515   8.764  0.00  0.00    +0.319 C 
BRANCH   3   4
ATOM      4  O   LIG    1       32.246 -17.432   8.114  0.00  0.00    -0.480 OA
ATOM      5  H   LIG    1       31.670 -17.153   7.369  0.00  0.00    +0.295 HD
ENDBRANCH   3   4
ENDBRANCH   1   3
BRANCH   1   6
ATOM      6  S   LIG    1       30.197 -18.775   6.476  0.00  0.00    -0.162 S 
ATOM      7  H   LIG    1       29.023 -18.694   7.143  0.00  0.00    +0.102 HD
ENDBRANCH   1   6
BRANCH   1   8
ATOM      8  C   LIG    1       30.290 -20.627   8.593  0.00  0.00    +0.175 C 
BRANCH   8   9
ATOM      9  C   LIG    1       31.106 -21.776   9.171  0.00  0.00    +0.319 C 
ATOM     10  O   LIG    1       30.807 -22.397  10.177  0.00  0.00    -0.250 OA
BRANCH   9  11
ATOM     11  O   LIG    1       32.165 -22.128   8.397  0.00  0.00    -0.480 OA
ATOM     12  H   LIG    1       32.772 -22.758   8.842  0.00  0.00    +0.295 HD
ENDBRANCH   9  11
ENDBRANCH   8   9
BRANCH   8  13
ATOM     13  S   LIG    1       28.910 -21.318   7.589  0.00  0.00    -0.162 S 
ATOM     14  H   LIG    1       29.543 -22.468   7.262  0.00  0.00    +0.102 HD
ENDBRANCH   8  13
ENDBRANCH   1   8
TORSDOF 7
ENDMDL
MODEL 2
REMARK VINA RESULT:      -5.4      0.031      3.478
REMARK  Name = *****
REMARK                            x       y       z     vdW  Elec       q    Type
REMARK                         _______ _______ _______ _____ _____    ______ ____
ROOT
ATOM      1  C   LIG    1       30.299 -20.641   8.599  0.00  0.00    +0.175 C 
ENDROOT
BRANCH   1   3
ATOM      2  O   LIG    1       30.806 -22.430  10.167  0.00  0.00    -0.250 OA
ATOM      3  C   LIG    1       31.119 -21.797   9.167  0.00  0.00    +0.319 C 
BRANCH   3   4
ATOM      4  O   LIG    1       32.183 -22.160   8.410  0.00  0.00    -0.480 OA
ATOM      5  H   LIG    1       32.458 -21.449   7.791  0.00  0.00    +0.295 HD
ENDBRANCH   3   4
ENDBRANCH   1   3
BRANCH   1   6
ATOM      6  S   LIG    1       28.912 -21.291   7.558  0.00  0.00    -0.162 S 
ATOM      7  H   LIG    1       27.923 -20.691   8.260  0.00  0.00    +0.102 HD
ENDBRANCH   1   6
BRANCH   1   8
ATOM      8  C   LIG    1       31.130 -19.584   7.850  0.00  0.00    +0.175 C 
BRANCH   8   9
ATOM      9  C   LIG    1       31.744 -18.530   8.763  0.00  0.00    +0.319 C 
ATOM     10  O   LIG    1       31.870 -18.653   9.969  0.00  0.00    -0.250 OA
BRANCH   9  11
ATOM     11  O   LIG    1       32.245 -17.461   8.093  0.00  0.00    -0.480 OA
ATOM     12  H   LIG    1       33.209 -17.343   8.227  0.00  0.00    +0.295 HD
ENDBRANCH   9  11
ENDBRANCH   8   9
BRANCH   8  13
ATOM     13  S   LIG    1       30.223 -18.742   6.487  0.00  0.00    -0.162 S 
ATOM     14  H   LIG    1       28.985 -19.010   6.963  0.00  0.00    +0.102 HD
ENDBRANCH   8  13
ENDBRANCH   1   8
TORSDOF 7
ENDMDL
MODEL 3
REMARK VINA RESULT:      -4.4      7.848      9.002
REMARK  Name = *****
REMARK                            x       y       z     vdW  Elec       q    Type
REMARK                         _______ _______ _______ _____ _____    ______ ____
ROOT
ATOM      1  C   LIG    1       24.383 -23.154   6.243  0.00  0.00    +0.175 C 
ENDROOT
BRANCH   1   3
ATOM      2  O   LIG    1       23.675 -25.467   6.497  0.00  0.00    -0.250 OA
ATOM      3  C   LIG    1       23.376 -24.280   6.464  0.00  0.00    +0.319 C 
BRANCH   3   4
ATOM      4  O   LIG    1       22.116 -23.865   6.739  0.00  0.00    -0.480 OA
ATOM      5  H   LIG    1       21.825 -24.133   7.637  0.00  0.00    +0.295 HD
ENDBRANCH   3   4
ENDBRANCH   1   3
BRANCH   1   6
ATOM      6  S   LIG    1       26.000 -23.574   7.045  0.00  0.00    -0.162 S 
ATOM      7  H   LIG    1       26.448 -22.300   7.122  0.00  0.00    +0.102 HD
ENDBRANCH   1   6
BRANCH   1   8
ATOM      8  C   LIG    1       23.879 -21.763   6.667  0.00  0.00    +0.175 C 
BRANCH   8   9
ATOM      9  C   LIG    1       23.335 -20.933   5.511  0.00  0.00    +0.319 C 
ATOM     10  O   LIG    1       23.942 -20.027   4.967  0.00  0.00    -0.250 OA
BRANCH   9  11
ATOM     11  O   LIG    1       22.130 -21.364   5.057  0.00  0.00    -0.480 OA
ATOM     12  H   LIG    1       21.688 -21.984   5.675  0.00  0.00    +0.295 HD
ENDBRANCH   9  11
ENDBRANCH   8   9
BRANCH   8  13
ATOM     13  S   LIG    1       25.117 -20.763   7.592  0.00  0.00    -0.162 S 
ATOM     14  H   LIG    1       24.631 -19.559   7.211  0.00  0.00    +0.102 HD
ENDBRANCH   8  13
ENDBRANCH   1   8
TORSDOF 7
ENDMDL
MODEL 4
REMARK VINA RESULT:      -4.4      6.059      7.425
REMARK  Name = *****
REMARK                            x       y       z     vdW  Elec       q    Type
REMARK                         _______ _______ _______ _____ _____    ______ ____
ROOT
ATOM      1  C   LIG    1       24.258 -22.298   7.098  0.00  0.00    +0.175 C 
ENDROOT
BRANCH   1   3
ATOM      2  O   LIG    1       22.956 -24.326   6.772  0.00  0.00    -0.250 OA
ATOM      3  C   LIG    1       23.893 -23.619   6.426  0.00  0.00    +0.319 C 
BRANCH   3   4
ATOM      4  O   LIG    1       24.622 -23.911   5.321  0.00  0.00    -0.480 OA
ATOM      5  H   LIG    1       24.704 -23.142   4.717  0.00  0.00    +0.295 HD
ENDBRANCH   3   4
ENDBRANCH   1   3
BRANCH   1   6
ATOM      6  S   LIG    1       23.209 -20.926   6.427  0.00  0.00    -0.162 S 
ATOM      7  H   LIG    1       24.196 -20.001   6.400  0.00  0.00    +0.102 HD
ENDBRANCH   1   6
BRANCH   1   8
ATOM      8  C   LIG    1       25.757 -21.952   7.042  0.00  0.00    +0.175 C 
BRANCH   8   9
ATOM      9  C   LIG    1       26.369 -21.669   8.408  0.00  0.00    +0.319 C 
ATOM     10  O   LIG    1       27.562 -21.520   8.611  0.00  0.00    -0.250 OA
BRANCH   9  11
ATOM     11  O   LIG    1       25.446 -21.489   9.386  0.00  0.00    -0.480 OA
ATOM     12  H   LIG    1       24.806 -20.774   9.183  0.00  0.00    +0.295 HD
ENDBRANCH   9  11
ENDBRANCH   8   9
BRANCH   8  13
ATOM     13  S   LIG    1       26.166 -20.566   5.902  0.00  0.00    -0.162 S 
ATOM     14  H   LIG    1       26.197 -19.609   6.858  0.00  0.00    +0.102 HD
ENDBRANCH   8  13
ENDBRANCH   1   8
TORSDOF 7
ENDMDL
MODEL 5
REMARK VINA RESULT:      -4.4      6.292      7.623
REMARK  Name = *****
REMARK                            x       y       z     vdW  Elec       q    Type
REMARK                         _______ _______ _______ _____ _____    ______ ____
ROOT
ATOM      1  C   LIG    1       23.899 -22.021   7.074  0.00  0.00    +0.175 C 
ENDROOT
BRANCH   1   3
ATOM      2  O   LIG    1       24.392 -24.376   6.721  0.00  0.00    -0.250 OA
ATOM      3  C   LIG    1       23.561 -23.479   6.771  0.00  0.00    +0.319 C 
BRANCH   3   4
ATOM      4  O   LIG    1       22.235 -23.742   6.669  0.00  0.00    -0.480 OA
ATOM      5  H   LIG    1       21.965 -23.932   5.745  0.00  0.00    +0.295 HD
ENDBRANCH   3   4
ENDBRANCH   1   3
BRANCH   1   6
ATOM      6  S   LIG    1       23.008 -20.899   5.898  0.00  0.00    -0.162 S 
ATOM      7  H   LIG    1       24.039 -20.765   5.032  0.00  0.00    +0.102 HD
ENDBRANCH   1   6
BRANCH   1   8
ATOM      8  C   LIG    1       25.407 -21.717   7.123  0.00  0.00    +0.175 C 
BRANCH   8   9
ATOM      9  C   LIG    1       25.882 -21.204   8.477  0.00  0.00    +0.319 C 
ATOM     10  O   LIG    1       25.482 -21.620   9.551  0.00  0.00    -0.250 OA
BRANCH   9  11
ATOM     11  O   LIG    1       26.888 -20.297   8.387  0.00  0.00    -0.480 OA
ATOM     12  H   LIG    1       26.575 -19.370   8.460  0.00  0.00    +0.295 HD
ENDBRANCH   9  11
ENDBRANCH   8   9
BRANCH   8  13
ATOM     13  S   LIG    1       25.985 -20.566   5.808  0.00  0.00    -0.162 S 
ATOM     14  H   LIG    1       27.292 -20.906   5.896  0.00  0.00    +0.102 HD
ENDBRANCH   8  13
ENDBRANCH   1   8
TORSDOF 7
ENDMDL
MODEL 6
REMARK VINA RESULT:      -4.4      6.301      7.067
REMARK  Name = *****
REMARK                            x       y       z     vdW  Elec       q    Type
REMARK                         _______ _______ _______ _____ _____    ______ ____
ROOT
ATOM      1  C   LIG    1       25.398 -21.727   7.099  0.00  0.00    +0.175 C 
ENDROOT
BRANCH   1   3
ATOM      2  O   LIG    1       25.492 -21.651   9.529  0.00  0.00    -0.250 OA
ATOM      3  C   LIG    1       25.884 -21.216   8.454  0.00  0.00    +0.319 C 
BRANCH   3   4
ATOM      4  O   LIG    1       26.886 -20.306   8.388  0.00  0.00    -0.480 OA
ATOM      5  H   LIG    1       27.621 -20.604   7.810  0.00  0.00    +0.295 HD
ENDBRANCH   3   4
ENDBRANCH   1   3
BRANCH   1   6
ATOM      6  S   LIG    1       25.921 -20.566   5.753  0.00  0.00    -0.162 S 
ATOM      7  H   LIG    1       27.139 -20.293   6.274  0.00  0.00    +0.102 HD
ENDBRANCH   1   6
BRANCH   1   8
ATOM      8  C   LIG    1       23.890 -22.029   7.041  0.00  0.00    +0.175 C 
BRANCH   8   9
ATOM      9  C   LIG    1       23.572 -23.495   6.772  0.00  0.00    +0.319 C 
ATOM     10  O   LIG    1       24.403 -24.386   6.742  0.00  0.00    -0.250 OA
BRANCH   9  11
ATOM     11  O   LIG    1       22.243 -23.748   6.670  0.00  0.00    -0.480 OA
ATOM     12  H   LIG    1       21.688 -22.959   6.845  0.00  0.00    +0.295 HD
ENDBRANCH   9  11
ENDBRANCH   8   9
BRANCH   8  13
ATOM     13  S   LIG    1       22.960 -20.984   5.845  0.00  0.00    -0.162 S 
ATOM     14  H   LIG    1       22.296 -22.008   5.259  0.00  0.00    +0.102 HD
ENDBRANCH   8  13
ENDBRANCH   1   8
TORSDOF 7
ENDMDL
MODEL 7
REMARK VINA RESULT:      -4.4      2.102      2.674
REMARK  Name = *****
REMARK                            x       y       z     vdW  Elec       q    Type
REMARK                         _______ _______ _______ _____ _____    ______ ____
ROOT
ATOM      1  C   LIG    1       31.457 -18.333   9.841  0.00  0.00    +0.175 C 
ENDROOT
BRANCH   1   3
ATOM      2  O   LIG    1       29.523 -17.456  11.027  0.00  0.00    -0.250 OA
ATOM      3  C   LIG    1       30.714 -17.739  11.036  0.00  0.00    +0.319 C 
BRANCH   3   4
ATOM      4  O   LIG    1       31.449 -17.650  12.171  0.00  0.00    -0.480 OA
ATOM      5  H   LIG    1       32.414 -17.652  11.989  0.00  0.00    +0.295 HD
ENDBRANCH   3   4
ENDBRANCH   1   3
BRANCH   1   6
ATOM      6  S   LIG    1       32.247 -16.985   8.845  0.00  0.00    -0.162 S 
ATOM      7  H   LIG    1       31.109 -16.284   8.638  0.00  0.00    +0.102 HD
ENDBRANCH   1   6
BRANCH   1   8
ATOM      8  C   LIG    1       30.603 -19.266   8.964  0.00  0.00    +0.175 C 
BRANCH   8   9
ATOM      9  C   LIG    1       31.192 -20.662   8.807  0.00  0.00    +0.319 C 
ATOM     10  O   LIG    1       32.207 -21.049   9.361  0.00  0.00    -0.250 OA
BRANCH   9  11
ATOM     11  O   LIG    1       30.419 -21.494   8.063  0.00  0.00    -0.480 OA
ATOM     12  H   LIG    1       29.596 -21.067   7.743  0.00  0.00    +0.295 HD
ENDBRANCH   9  11
ENDBRANCH   8   9
BRANCH   8  13
ATOM     13  S   LIG    1       30.216 -18.587   7.298  0.00  0.00    -0.162 S 
ATOM     14  H   LIG    1       31.041 -17.518   7.393  0.00  0.00    +0.102 HD
ENDBRANCH   8  13
ENDBRANCH   1   8
TORSDOF 7
ENDMDL
MODEL 8
REMARK VINA RESULT:      -4.4      7.076      8.214
REMARK  Name = *****
REMARK                            x       y       z     vdW  Elec       q    Type
REMARK                         _______ _______ _______ _____ _____    ______ ____
ROOT
ATOM      1  C   LIG    1       24.542 -22.573   6.160  0.00  0.00    +0.175 C 
ENDROOT
BRANCH   1   3
ATOM      2  O   LIG    1       22.889 -21.889   7.807  0.00  0.00    -0.250 OA
ATOM      3  C   LIG    1       23.257 -22.706   6.974  0.00  0.00    +0.319 C 
BRANCH   3   4
ATOM      4  O   LIG    1       22.473 -23.755   6.624  0.00  0.00    -0.480 OA
ATOM      5  H   LIG    1       22.317 -24.367   7.375  0.00  0.00    +0.295 HD
ENDBRANCH   3   4
ENDBRANCH   1   3
BRANCH   1   6
ATOM      6  S   LIG    1       25.889 -23.594   6.919  0.00  0.00    -0.162 S 
ATOM      7  H   LIG    1       25.558 -23.322   8.203  0.00  0.00    +0.102 HD
ENDBRANCH   1   6
BRANCH   1   8
ATOM      8  C   LIG    1       24.992 -21.121   5.919  0.00  0.00    +0.175 C 
BRANCH   8   9
ATOM      9  C   LIG    1       25.029 -20.730   4.447  0.00  0.00    +0.319 C 
ATOM     10  O   LIG    1       24.083 -20.827   3.684  0.00  0.00    -0.250 OA
BRANCH   9  11
ATOM     11  O   LIG    1       26.199 -20.155   4.070  0.00  0.00    -0.480 OA
ATOM     12  H   LIG    1       26.240 -19.198   4.278  0.00  0.00    +0.295 HD
ENDBRANCH   9  11
ENDBRANCH   8   9
BRANCH   8  13
ATOM     13  S   LIG    1       26.606 -20.695   6.694  0.00  0.00    -0.162 S 
ATOM     14  H   LIG    1       26.947 -21.967   7.003  0.00  0.00    +0.102 HD
ENDBRANCH   8  13
ENDBRANCH   1   8
TORSDOF 7
ENDMDL
MODEL 9
REMARK VINA RESULT:      -4.4      7.064      7.661
REMARK  Name = *****
REMARK                            x       y       z     vdW  Elec       q    Type
REMARK                         _______ _______ _______ _____ _____    ______ ____
ROOT
ATOM      1  C   LIG    1       25.014 -21.162   5.921  0.00  0.00    +0.175 C 
ENDROOT
BRANCH   1   3
ATOM      2  O   LIG    1       24.109 -20.853   3.684  0.00  0.00    -0.250 OA
ATOM      3  C   LIG    1       25.057 -20.747   4.452  0.00  0.00    +0.319 C 
BRANCH   3   4
ATOM      4  O   LIG    1       26.205 -20.135   4.071  0.00  0.00    -0.480 OA
ATOM      5  H   LIG    1       26.044 -19.238   3.706  0.00  0.00    +0.295 HD
ENDBRANCH   3   4
ENDBRANCH   1   3
BRANCH   1   6
ATOM      6  S   LIG    1       26.643 -20.813   6.732  0.00  0.00    -0.162 S 
ATOM      7  H   LIG    1       27.368 -20.820   5.589  0.00  0.00    +0.102 HD
ENDBRANCH   1   6
BRANCH   1   8
ATOM      8  C   LIG    1       24.556 -22.612   6.156  0.00  0.00    +0.175 C 
BRANCH   8   9
ATOM      9  C   LIG    1       23.276 -22.722   6.976  0.00  0.00    +0.319 C 
ATOM     10  O   LIG    1       22.912 -21.899   7.798  0.00  0.00    -0.250 OA
BRANCH   9  11
ATOM     11  O   LIG    1       22.505 -23.785   6.632  0.00  0.00    -0.480 OA
ATOM     12  H   LIG    1       21.659 -23.820   7.127  0.00  0.00    +0.295 HD
ENDBRANCH   9  11
ENDBRANCH   8   9
BRANCH   8  13
ATOM     13  S   LIG    1       25.843 -23.694   6.905  0.00  0.00    -0.162 S 
ATOM     14  H   LIG    1       24.994 -24.686   7.262  0.00  0.00    +0.102 HD
ENDBRANCH   8  13
ENDBRANCH   1   8
TORSDOF 7
ENDMDL
