MODEL 1
REMARK VINA RESULT:      -6.6      0.000      0.000
REMARK  Name = *****
REMARK                            x       y       z     vdW  Elec       q    Type
REMARK                         _______ _______ _______ _____ _____    ______ ____
ROOT
ATOM      1  C   LIG    1       26.649 -20.928   7.522  0.00  0.00    +0.156 A 
ATOM      2  C   LIG    1       25.337 -21.163   7.083  0.00  0.00    +0.115 A 
ATOM      3  C   LIG    1       24.968 -20.712   5.796  0.00  0.00    +0.022 A 
ATOM      4  C   LIG    1       23.645 -20.977   5.374  0.00  0.00    +0.013 A 
ATOM      5  C   LIG    1       22.758 -21.660   6.197  0.00  0.00    +0.020 A 
ATOM      6  C   LIG    1       23.211 -22.055   7.434  0.00  0.00    +0.111 A 
ATOM      7  C   LIG    1       25.928 -20.036   5.000  0.00  0.00    +0.051 A 
ATOM      8 CL   LIG    1       25.552 -19.440   3.416  0.00  0.00    -0.083 Cl
ATOM      9  C   LIG    1       27.229 -19.823   5.456  0.00  0.00    +0.038 A 
ATOM     10  N   LIG    1       24.460 -21.816   7.881  0.00  0.00    -0.251 NA
ATOM     11  C   LIG    1       27.590 -20.273   6.718  0.00  0.00    +0.058 A 
ATOM     12  I   LIG    1       29.555 -19.964   7.361  0.00  0.00    -0.040 I 
ENDROOT
BRANCH   1  13
ATOM     13  O   LIG    1       27.001 -21.367   8.780  0.00  0.00    -0.504 OA
ATOM     14  H   LIG    1       27.611 -20.722   9.174  0.00  0.00    +0.292 HD
ENDBRANCH   1  13
TORSDOF 1
ENDMDL
MODEL 2
REMARK VINA RESULT:      -6.3      2.673      3.277
REMARK  Name = *****
REMARK                            x       y       z     vdW  Elec       q    Type
REMARK                         _______ _______ _______ _____ _____    ______ ____
ROOT
ATOM      1  C   LIG    1       26.555 -20.213   5.559  0.00  0.00    +0.156 A 
ATOM      2  C   LIG    1       25.261 -19.971   5.073  0.00  0.00    +0.115 A 
ATOM      3  C   LIG    1       24.162 -20.453   5.819  0.00  0.00    +0.022 A 
ATOM      4  C   LIG    1       22.870 -20.180   5.313  0.00  0.00    +0.013 A 
ATOM      5  C   LIG    1       22.703 -19.463   4.136  0.00  0.00    +0.020 A 
ATOM      6  C   LIG    1       23.835 -19.040   3.480  0.00  0.00    +0.111 A 
ATOM      7  C   LIG    1       24.403 -21.164   7.022  0.00  0.00    +0.051 A 
ATOM      8 CL   LIG    1       23.112 -21.798   7.990  0.00  0.00    -0.083 Cl
ATOM      9  C   LIG    1       25.700 -21.383   7.490  0.00  0.00    +0.038 A 
ATOM     10  N   LIG    1       25.085 -19.284   3.920  0.00  0.00    -0.251 NA
ATOM     11  C   LIG    1       26.776 -20.903   6.758  0.00  0.00    +0.058 A 
ATOM     12  I   LIG    1       28.705 -21.222   7.497  0.00  0.00    -0.040 I 
ENDROOT
BRANCH   1  13
ATOM     13  O   LIG    1       27.623 -19.743   4.824  0.00  0.00    -0.504 OA
ATOM     14  H   LIG    1       28.355 -19.548   5.433  0.00  0.00    +0.292 HD
ENDBRANCH   1  13
TORSDOF 1
ENDMDL
MODEL 3
REMARK VINA RESULT:      -6.3      3.868      4.412
REMARK  Name = *****
REMARK                            x       y       z     vdW  Elec       q    Type
REMARK                         _______ _______ _______ _____ _____    ______ ____
ROOT
ATOM      1  C   LIG    1       24.353 -21.962   4.595  0.00  0.00    +0.156 A 
ATOM      2  C   LIG    1       24.869 -23.068   5.288  0.00  0.00    +0.115 A 
ATOM      3  C   LIG    1       25.336 -22.875   6.608  0.00  0.00    +0.022 A 
ATOM      4  C   LIG    1       25.834 -24.010   7.288  0.00  0.00    +0.013 A 
ATOM      5  C   LIG    1       25.851 -25.257   6.675  0.00  0.00    +0.020 A 
ATOM      6  C   LIG    1       25.378 -25.341   5.387  0.00  0.00    +0.111 A 
ATOM      7  C   LIG    1       25.274 -21.579   7.179  0.00  0.00    +0.051 A 
ATOM      8 CL   LIG    1       25.838 -21.255   8.787  0.00  0.00    -0.083 Cl
ATOM      9  C   LIG    1       24.748 -20.497   6.472  0.00  0.00    +0.038 A 
ATOM     10  N   LIG    1       24.902 -24.285   4.698  0.00  0.00    -0.251 NA
ATOM     11  C   LIG    1       24.284 -20.691   5.179  0.00  0.00    +0.058 A 
ATOM     12  I   LIG    1       23.476 -19.058   4.155  0.00  0.00    -0.040 I 
ENDROOT
BRANCH   1  13
ATOM     13  O   LIG    1       23.902 -22.156   3.307  0.00  0.00    -0.504 OA
ATOM     14  H   LIG    1       23.167 -22.791   3.329  0.00  0.00    +0.292 HD
ENDBRANCH   1  13
TORSDOF 1
ENDMDL
MODEL 4
REMARK VINA RESULT:      -6.2      2.708      3.237
REMARK  Name = *****
REMARK                            x       y       z     vdW  Elec       q    Type
REMARK                         _______ _______ _______ _____ _____    ______ ____
ROOT
ATOM      1  C   LIG    1       27.890 -19.603   5.664  0.00  0.00    +0.156 A 
ATOM      2  C   LIG    1       26.591 -20.017   5.331  0.00  0.00    +0.115 A 
ATOM      3  C   LIG    1       25.936 -20.929   6.189  0.00  0.00    +0.022 A 
ATOM      4  C   LIG    1       24.622 -21.315   5.837  0.00  0.00    +0.013 A 
ATOM      5  C   LIG    1       24.011 -20.807   4.698  0.00  0.00    +0.020 A 
ATOM      6  C   LIG    1       24.733 -19.928   3.925  0.00  0.00    +0.111 A 
ATOM      7  C   LIG    1       26.612 -21.396   7.345  0.00  0.00    +0.051 A 
ATOM      8 CL   LIG    1       25.883 -22.524   8.442  0.00  0.00    -0.083 Cl
ATOM      9  C   LIG    1       27.900 -20.961   7.660  0.00  0.00    +0.038 A 
ATOM     10  N   LIG    1       25.989 -19.538   4.217  0.00  0.00    -0.251 NA
ATOM     11  C   LIG    1       28.537 -20.061   6.818  0.00  0.00    +0.058 A 
ATOM     12  I   LIG    1       30.456 -19.407   7.330  0.00  0.00    -0.040 I 
ENDROOT
BRANCH   1  13
ATOM     13  O   LIG    1       28.525 -18.716   4.821  0.00  0.00    -0.504 OA
ATOM     14  H   LIG    1       28.384 -19.006   3.904  0.00  0.00    +0.292 HD
ENDBRANCH   1  13
TORSDOF 1
ENDMDL
MODEL 5
REMARK VINA RESULT:      -6.1      2.555      3.980
REMARK  Name = *****
REMARK                            x       y       z     vdW  Elec       q    Type
REMARK                         _______ _______ _______ _____ _____    ______ ____
ROOT
ATOM      1  C   LIG    1       25.909 -22.129   7.012  0.00  0.00    +0.156 A 
ATOM      2  C   LIG    1       27.024 -21.303   6.796  0.00  0.00    +0.115 A 
ATOM      3  C   LIG    1       26.945 -20.319   5.785  0.00  0.00    +0.022 A 
ATOM      4  C   LIG    1       28.077 -19.491   5.602  0.00  0.00    +0.013 A 
ATOM      5  C   LIG    1       29.207 -19.645   6.393  0.00  0.00    +0.020 A 
ATOM      6  C   LIG    1       29.188 -20.634   7.348  0.00  0.00    +0.111 A 
ATOM      7  C   LIG    1       25.753 -20.204   5.025  0.00  0.00    +0.051 A 
ATOM      8 CL   LIG    1       25.580 -19.032   3.759  0.00  0.00    -0.083 Cl
ATOM      9  C   LIG    1       24.655 -21.031   5.266  0.00  0.00    +0.038 A 
ATOM     10  N   LIG    1       28.136 -21.451   7.552  0.00  0.00    -0.251 NA
ATOM     11  C   LIG    1       24.734 -21.992   6.263  0.00  0.00    +0.058 A 
ATOM     12  I   LIG    1       23.063 -23.196   6.619  0.00  0.00    -0.040 I 
ENDROOT
BRANCH   1  13
ATOM     13  O   LIG    1       25.994 -23.089   7.997  0.00  0.00    -0.504 OA
ATOM     14  H   LIG    1       26.636 -23.762   7.719  0.00  0.00    +0.292 HD
ENDBRANCH   1  13
TORSDOF 1
ENDMDL
MODEL 6
REMARK VINA RESULT:      -6.0      3.758      4.357
REMARK  Name = *****
REMARK                            x       y       z     vdW  Elec       q    Type
REMARK                         _______ _______ _______ _____ _____    ______ ____
ROOT
ATOM      1  C   LIG    1       24.997 -23.969   5.257  0.00  0.00    +0.156 A 
ATOM      2  C   LIG    1       24.764 -22.592   5.112  0.00  0.00    +0.115 A 
ATOM      3  C   LIG    1       25.085 -21.739   6.192  0.00  0.00    +0.022 A 
ATOM      4  C   LIG    1       24.855 -20.356   6.012  0.00  0.00    +0.013 A 
ATOM      5  C   LIG    1       24.343 -19.869   4.816  0.00  0.00    +0.020 A 
ATOM      6  C   LIG    1       24.058 -20.780   3.826  0.00  0.00    +0.111 A 
ATOM      7  C   LIG    1       25.621 -22.301   7.379  0.00  0.00    +0.051 A 
ATOM      8 CL   LIG    1       26.031 -21.326   8.753  0.00  0.00    -0.083 Cl
ATOM      9  C   LIG    1       25.853 -23.672   7.495  0.00  0.00    +0.038 A 
ATOM     10  N   LIG    1       24.253 -22.107   3.957  0.00  0.00    -0.251 NA
ATOM     11  C   LIG    1       25.543 -24.505   6.430  0.00  0.00    +0.058 A 
ATOM     12  I   LIG    1       25.926 -26.551   6.622  0.00  0.00    -0.040 I 
ENDROOT
BRANCH   1  13
ATOM     13  O   LIG    1       24.678 -24.796   4.201  0.00  0.00    -0.504 OA
ATOM     14  H   LIG    1       23.906 -24.426   3.741  0.00  0.00    +0.292 HD
ENDBRANCH   1  13
TORSDOF 1
ENDMDL
MODEL 7
REMARK VINA RESULT:      -6.0      1.168      1.202
REMARK  Name = *****
REMARK                            x       y       z     vdW  Elec       q    Type
REMARK                         _______ _______ _______ _____ _____    ______ ____
ROOT
ATOM      1  C   LIG    1       27.638 -21.115   7.191  0.00  0.00    +0.156 A 
ATOM      2  C   LIG    1       26.398 -21.707   6.905  0.00  0.00    +0.115 A 
ATOM      3  C   LIG    1       25.649 -21.204   5.817  0.00  0.00    +0.022 A 
ATOM      4  C   LIG    1       24.412 -21.831   5.542  0.00  0.00    +0.013 A 
ATOM      5  C   LIG    1       23.968 -22.899   6.311  0.00  0.00    +0.020 A 
ATOM      6  C   LIG    1       24.767 -23.312   7.351  0.00  0.00    +0.111 A 
ATOM      7  C   LIG    1       26.170 -20.123   5.062  0.00  0.00    +0.051 A 
ATOM      8 CL   LIG    1       25.308 -19.440   3.720  0.00  0.00    -0.083 Cl
ATOM      9  C   LIG    1       27.410 -19.557   5.361  0.00  0.00    +0.038 A 
ATOM     10  N   LIG    1       25.948 -22.740   7.655  0.00  0.00    -0.251 NA
ATOM     11  C   LIG    1       28.145 -20.058   6.425  0.00  0.00    +0.058 A 
ATOM     12  I   LIG    1       30.012 -19.209   6.832  0.00  0.00    -0.040 I 
ENDROOT
BRANCH   1  13
ATOM     13  O   LIG    1       28.362 -21.607   8.256  0.00  0.00    -0.504 OA
ATOM     14  H   LIG    1       28.962 -20.911   8.571  0.00  0.00    +0.292 HD
ENDBRANCH   1  13
TORSDOF 1
ENDMDL
MODEL 8
REMARK VINA RESULT:      -5.8      3.482      4.945
REMARK  Name = *****
REMARK                            x       y       z     vdW  Elec       q    Type
REMARK                         _______ _______ _______ _____ _____    ______ ____
ROOT
ATOM      1  C   LIG    1       26.436 -19.785   5.092  0.00  0.00    +0.156 A 
ATOM      2  C   LIG    1       27.555 -20.022   5.905  0.00  0.00    +0.115 A 
ATOM      3  C   LIG    1       27.446 -20.984   6.935  0.00  0.00    +0.022 A 
ATOM      4  C   LIG    1       28.594 -21.214   7.727  0.00  0.00    +0.013 A 
ATOM      5  C   LIG    1       29.775 -20.523   7.487  0.00  0.00    +0.020 A 
ATOM      6  C   LIG    1       29.780 -19.604   6.464  0.00  0.00    +0.111 A 
ATOM      7  C   LIG    1       26.215 -21.666   7.114  0.00  0.00    +0.051 A 
ATOM      8 CL   LIG    1       25.995 -22.851   8.361  0.00  0.00    -0.083 Cl
ATOM      9  C   LIG    1       25.120 -21.419   6.286  0.00  0.00    +0.038 A 
ATOM     10  N   LIG    1       28.708 -19.346   5.690  0.00  0.00    -0.251 NA
ATOM     11  C   LIG    1       25.233 -20.479   5.272  0.00  0.00    +0.058 A 
ATOM     12  I   LIG    1       23.584 -20.151   4.031  0.00  0.00    -0.040 I 
ENDROOT
BRANCH   1  13
ATOM     13  O   LIG    1       26.548 -18.843   4.092  0.00  0.00    -0.504 OA
ATOM     14  H   LIG    1       26.229 -17.991   4.432  0.00  0.00    +0.292 HD
ENDBRANCH   1  13
TORSDOF 1
ENDMDL
MODEL 9
REMARK VINA RESULT:      -5.7      3.096      4.891
REMARK  Name = *****
REMARK                            x       y       z     vdW  Elec       q    Type
REMARK                         _______ _______ _______ _____ _____    ______ ____
ROOT
ATOM      1  C   LIG    1       27.481 -21.364   7.367  0.00  0.00    +0.156 A 
ATOM      2  C   LIG    1       28.801 -20.968   7.637  0.00  0.00    +0.115 A 
ATOM      3  C   LIG    1       29.359 -19.921   6.869  0.00  0.00    +0.022 A 
ATOM      4  C   LIG    1       30.684 -19.534   7.175  0.00  0.00    +0.013 A 
ATOM      5  C   LIG    1       31.392 -20.158   8.193  0.00  0.00    +0.020 A 
ATOM      6  C   LIG    1       30.763 -21.169   8.881  0.00  0.00    +0.111 A 
ATOM      7  C   LIG    1       28.574 -19.315   5.855  0.00  0.00    +0.051 A 
ATOM      8 CL   LIG    1       29.188 -18.034   4.861  0.00  0.00    -0.083 Cl
ATOM      9  C   LIG    1       27.261 -19.720   5.612  0.00  0.00    +0.038 A 
ATOM     10  N   LIG    1       29.505 -21.578   8.619  0.00  0.00    -0.251 NA
ATOM     11  C   LIG    1       26.714 -20.743   6.372  0.00  0.00    +0.058 A 
ATOM     12  I   LIG    1       24.736 -21.309   6.005  0.00  0.00    -0.040 I 
ENDROOT
BRANCH   1  13
ATOM     13  O   LIG    1       26.944 -22.388   8.117  0.00  0.00    -0.504 OA
ATOM     14  H   LIG    1       27.648 -23.027   8.316  0.00  0.00    +0.292 HD
ENDBRANCH   1  13
TORSDOF 1
ENDMDL
