MODEL 1
REMARK VINA RESULT:      -5.1      0.000      0.000
REMARK  Name = *****
REMARK                            x       y       z     vdW  Elec       q    Type
REMARK                         _______ _______ _______ _____ _____    ______ ____
ROOT
ATOM      1  C   LIG    1       26.710 -15.090   3.108  0.00  0.00    +0.307 C 
ATOM      2  O   LIG    1       26.772 -14.443   2.070  0.00  0.00    -0.251 OA
ENDROOT
BRANCH   1   3
ATOM      3  O   LIG    1       26.653 -16.449   3.193  0.00  0.00    -0.465 OA
BRANCH   3   4
ATOM      4  C   LIG    1       25.332 -16.997   3.293  0.00  0.00    +0.232 C 
BRANCH   4   5
ATOM      5  C   LIG    1       25.390 -18.504   3.528  0.00  0.00    +0.041 C 
BRANCH   5   6
ATOM      6  C   LIG    1       24.010 -19.147   3.678  0.00  0.00    +0.003 C 
BRANCH   6   7
ATOM      7  C   LIG    1       24.050 -20.499   4.401  0.00  0.00    -0.000 C 
BRANCH   7   9
ATOM      8  C   LIG    1       23.416 -20.725   6.867  0.00  0.00    +0.004 C 
ATOM      9  C   LIG    1       22.929 -20.677   5.426  0.00  0.00    -0.003 C 
ENDBRANCH   7   9
ENDBRANCH   6   7
ENDBRANCH   5   6
ENDBRANCH   4   5
ENDBRANCH   3   4
ENDBRANCH   1   3
BRANCH   1  10
ATOM     10  C   LIG    1       26.712 -14.494   4.494  0.00  0.00    +0.128 C 
BRANCH  10  11
ATOM     11  C   LIG    1       26.008 -13.143   4.506  0.00  0.00    +0.086 C 
BRANCH  11  12
ATOM     12  C   LIG    1       24.538 -13.276   4.152  0.00  0.00    +0.147 C 
ATOM     13  O   LIG    1       23.822 -14.142   4.667  0.00  0.00    -0.296 OA
BRANCH  12  14
ATOM     14  C   LIG    1       23.962 -12.247   3.186  0.00  0.00    +0.152 C 
BRANCH  14  15
ATOM     15  N   LIG    1       24.266 -12.657   1.813  0.00  0.00    -0.324 NA
ATOM     16  H   LIG    1       24.447 -13.659   1.793  0.00  0.00    +0.119 HD
ATOM     17  H   LIG    1       23.420 -12.514   1.253  0.00  0.00    +0.119 HD
ENDBRANCH  14  15
ENDBRANCH  12  14
ENDBRANCH  11  12
ENDBRANCH  10  11
ENDBRANCH   1  10
TORSDOF 11
ENDMDL
MODEL 2
REMARK VINA RESULT:      -5.1      2.389      2.787
REMARK  Name = *****
REMARK                            x       y       z     vdW  Elec       q    Type
REMARK                         _______ _______ _______ _____ _____    ______ ____
ROOT
ATOM      1  C   LIG    1       26.584 -16.695   3.447  0.00  0.00    +0.307 C 
ATOM      2  O   LIG    1       27.654 -16.947   3.985  0.00  0.00    -0.251 OA
ENDROOT
BRANCH   1   3
ATOM      3  O   LIG    1       25.762 -17.604   2.851  0.00  0.00    -0.465 OA
BRANCH   3   4
ATOM      4  C   LIG    1       25.401 -18.724   3.670  0.00  0.00    +0.232 C 
BRANCH   4   5
ATOM      5  C   LIG    1       23.894 -18.965   3.621  0.00  0.00    +0.041 C 
BRANCH   5   6
ATOM      6  C   LIG    1       23.461 -20.244   4.339  0.00  0.00    +0.003 C 
BRANCH   6   7
ATOM      7  C   LIG    1       22.807 -19.980   5.700  0.00  0.00    -0.000 C 
BRANCH   7   9
ATOM      8  C   LIG    1       24.822 -20.767   7.062  0.00  0.00    +0.004 C 
ATOM      9  C   LIG    1       23.326 -20.891   6.814  0.00  0.00    -0.003 C 
ENDBRANCH   7   9
ENDBRANCH   6   7
ENDBRANCH   5   6
ENDBRANCH   4   5
ENDBRANCH   3   4
ENDBRANCH   1   3
BRANCH   1  10
ATOM     10  C   LIG    1       25.963 -15.323   3.370  0.00  0.00    +0.128 C 
BRANCH  10  11
ATOM     11  C   LIG    1       27.004 -14.274   3.000  0.00  0.00    +0.086 C 
BRANCH  11  12
ATOM     12  C   LIG    1       27.493 -13.516   4.221  0.00  0.00    +0.147 C 
ATOM     13  O   LIG    1       26.881 -13.553   5.295  0.00  0.00    -0.296 OA
BRANCH  12  14
ATOM     14  C   LIG    1       28.812 -12.764   4.089  0.00  0.00    +0.152 C 
BRANCH  14  15
ATOM     15  N   LIG    1       29.017 -11.942   5.285  0.00  0.00    -0.324 NA
ATOM     16  H   LIG    1       28.212 -11.332   5.416  0.00  0.00    +0.119 HD
ATOM     17  H   LIG    1       29.027 -12.570   6.094  0.00  0.00    +0.119 HD
ENDBRANCH  14  15
ENDBRANCH  12  14
ENDBRANCH  11  12
ENDBRANCH  10  11
ENDBRANCH   1  10
TORSDOF 11
ENDMDL
MODEL 3
REMARK VINA RESULT:      -5.0      1.715      1.976
REMARK  Name = *****
REMARK                            x       y       z     vdW  Elec       q    Type
REMARK                         _______ _______ _______ _____ _____    ______ ____
ROOT
ATOM      1  C   LIG    1       27.156 -14.680   3.424  0.00  0.00    +0.307 C 
ATOM      2  O   LIG    1       27.998 -14.826   4.299  0.00  0.00    -0.251 OA
ENDROOT
BRANCH   1   3
ATOM      3  O   LIG    1       26.378 -15.668   2.898  0.00  0.00    -0.465 OA
BRANCH   3   4
ATOM      4  C   LIG    1       26.586 -16.969   3.463  0.00  0.00    +0.232 C 
BRANCH   4   5
ATOM      5  C   LIG    1       25.352 -17.847   3.264  0.00  0.00    +0.041 C 
BRANCH   5   6
ATOM      6  C   LIG    1       25.481 -19.228   3.909  0.00  0.00    +0.003 C 
BRANCH   6   7
ATOM      7  C   LIG    1       24.232 -20.097   3.727  0.00  0.00    -0.000 C 
BRANCH   7   9
ATOM      8  C   LIG    1       22.198 -18.824   4.609  0.00  0.00    +0.004 C 
ATOM      9  C   LIG    1       23.207 -19.936   4.852  0.00  0.00    -0.003 C 
ENDBRANCH   7   9
ENDBRANCH   6   7
ENDBRANCH   5   6
ENDBRANCH   4   5
ENDBRANCH   3   4
ENDBRANCH   1   3
BRANCH   1  10
ATOM     10  C   LIG    1       26.803 -13.361   2.781  0.00  0.00    +0.128 C 
BRANCH  10  11
ATOM     11  C   LIG    1       25.392 -13.397   2.206  0.00  0.00    +0.086 C 
BRANCH  11  12
ATOM     12  C   LIG    1       24.411 -12.644   3.085  0.00  0.00    +0.147 C 
ATOM     13  O   LIG    1       23.885 -11.588   2.713  0.00  0.00    -0.296 OA
BRANCH  12  14
ATOM     14  C   LIG    1       24.043 -13.282   4.419  0.00  0.00    +0.152 C 
BRANCH  14  15
ATOM     15  N   LIG    1       23.653 -14.676   4.193  0.00  0.00    -0.324 NA
ATOM     16  H   LIG    1       23.796 -14.910   3.211  0.00  0.00    +0.119 HD
ATOM     17  H   LIG    1       24.301 -15.268   4.719  0.00  0.00    +0.119 HD
ENDBRANCH  14  15
ENDBRANCH  12  14
ENDBRANCH  11  12
ENDBRANCH  10  11
ENDBRANCH   1  10
TORSDOF 11
ENDMDL
MODEL 4
REMARK VINA RESULT:      -4.9      3.344      6.555
REMARK  Name = *****
REMARK                            x       y       z     vdW  Elec       q    Type
REMARK                         _______ _______ _______ _____ _____    ______ ____
ROOT
ATOM      1  C   LIG    1       25.303 -18.966   3.739  0.00  0.00    +0.307 C 
ATOM      2  O   LIG    1       26.040 -19.564   4.512  0.00  0.00    -0.251 OA
ENDROOT
BRANCH   1   3
ATOM      3  O   LIG    1       25.647 -17.872   3.002  0.00  0.00    -0.465 OA
BRANCH   3   4
ATOM      4  C   LIG    1       26.615 -17.009   3.612  0.00  0.00    +0.232 C 
BRANCH   4   5
ATOM      5  C   LIG    1       26.378 -15.557   3.200  0.00  0.00    +0.041 C 
BRANCH   5   6
ATOM      6  C   LIG    1       27.065 -14.547   4.121  0.00  0.00    +0.003 C 
BRANCH   6   7
ATOM      7  C   LIG    1       26.086 -13.571   4.783  0.00  0.00    -0.000 C 
BRANCH   7   9
ATOM      8  C   LIG    1       24.125 -12.618   3.449  0.00  0.00    +0.004 C 
ATOM      9  C   LIG    1       24.638 -13.753   4.322  0.00  0.00    -0.003 C 
ENDBRANCH   7   9
ENDBRANCH   6   7
ENDBRANCH   5   6
ENDBRANCH   4   5
ENDBRANCH   3   4
ENDBRANCH   1   3
BRANCH   1  10
ATOM     10  C   LIG    1       23.876 -19.351   3.440  0.00  0.00    +0.128 C 
BRANCH  10  11
ATOM     11  C   LIG    1       22.975 -19.074   4.637  0.00  0.00    +0.086 C 
BRANCH  11  12
ATOM     12  C   LIG    1       22.620 -20.350   5.378  0.00  0.00    +0.147 C 
ATOM     13  O   LIG    1       21.787 -21.148   4.933  0.00  0.00    -0.296 OA
BRANCH  12  14
ATOM     14  C   LIG    1       23.389 -20.645   6.661  0.00  0.00    +0.152 C 
BRANCH  14  15
ATOM     15  N   LIG    1       24.556 -21.471   6.341  0.00  0.00    -0.324 NA
ATOM     16  H   LIG    1       24.486 -22.359   6.836  0.00  0.00    +0.119 HD
ATOM     17  H   LIG    1       24.508 -21.702   5.344  0.00  0.00    +0.119 HD
ENDBRANCH  14  15
ENDBRANCH  12  14
ENDBRANCH  11  12
ENDBRANCH  10  11
ENDBRANCH   1  10
TORSDOF 11
ENDMDL
MODEL 5
REMARK VINA RESULT:      -4.8      2.396      3.252
REMARK  Name = *****
REMARK                            x       y       z     vdW  Elec       q    Type
REMARK                         _______ _______ _______ _____ _____    ______ ____
ROOT
ATOM      1  C   LIG    1       24.098 -14.075   3.862  0.00  0.00    +0.307 C 
ATOM      2  O   LIG    1       23.925 -12.909   3.533  0.00  0.00    -0.251 OA
ENDROOT
BRANCH   1   3
ATOM      3  O   LIG    1       23.158 -14.890   4.417  0.00  0.00    -0.465 OA
BRANCH   3   4
ATOM      4  C   LIG    1       23.349 -16.290   4.176  0.00  0.00    +0.232 C 
BRANCH   4   5
ATOM      5  C   LIG    1       22.220 -17.105   4.802  0.00  0.00    +0.041 C 
BRANCH   5   6
ATOM      6  C   LIG    1       22.132 -18.533   4.262  0.00  0.00    +0.003 C 
BRANCH   6   7
ATOM      7  C   LIG    1       22.607 -19.588   5.268  0.00  0.00    -0.000 C 
BRANCH   7   9
ATOM      8  C   LIG    1       24.819 -19.810   4.005  0.00  0.00    +0.004 C 
ATOM      9  C   LIG    1       23.676 -20.528   4.708  0.00  0.00    -0.003 C 
ENDBRANCH   7   9
ENDBRANCH   6   7
ENDBRANCH   5   6
ENDBRANCH   4   5
ENDBRANCH   3   4
ENDBRANCH   1   3
BRANCH   1  10
ATOM     10  C   LIG    1       25.388 -14.836   3.684  0.00  0.00    +0.128 C 
BRANCH  10  11
ATOM     11  C   LIG    1       26.511 -13.907   3.241  0.00  0.00    +0.086 C 
BRANCH  11  12
ATOM     12  C   LIG    1       27.353 -13.446   4.417  0.00  0.00    +0.147 C 
ATOM     13  O   LIG    1       27.014 -13.668   5.584  0.00  0.00    -0.296 OA
BRANCH  12  14
ATOM     14  C   LIG    1       28.675 -12.757   4.096  0.00  0.00    +0.152 C 
BRANCH  14  15
ATOM     15  N   LIG    1       29.053 -11.899   5.222  0.00  0.00    -0.324 NA
ATOM     16  H   LIG    1       28.326 -11.201   5.373  0.00  0.00    +0.119 HD
ATOM     17  H   LIG    1       29.063 -12.481   6.065  0.00  0.00    +0.119 HD
ENDBRANCH  14  15
ENDBRANCH  12  14
ENDBRANCH  11  12
ENDBRANCH  10  11
ENDBRANCH   1  10
TORSDOF 11
ENDMDL
MODEL 6
REMARK VINA RESULT:      -4.8      2.929      6.027
REMARK  Name = *****
REMARK                            x       y       z     vdW  Elec       q    Type
REMARK                         _______ _______ _______ _____ _____    ______ ____
ROOT
ATOM      1  C   LIG    1       26.544 -17.081   3.551  0.00  0.00    +0.307 C 
ATOM      2  O   LIG    1       27.569 -17.523   4.054  0.00  0.00    -0.251 OA
ENDROOT
BRANCH   1   3
ATOM      3  O   LIG    1       26.401 -15.842   3.001  0.00  0.00    -0.465 OA
BRANCH   3   4
ATOM      4  C   LIG    1       27.265 -14.834   3.541  0.00  0.00    +0.232 C 
BRANCH   4   5
ATOM      5  C   LIG    1       26.852 -13.449   3.048  0.00  0.00    +0.041 C 
BRANCH   5   6
ATOM      6  C   LIG    1       25.573 -13.462   2.209  0.00  0.00    +0.003 C 
BRANCH   6   7
ATOM      7  C   LIG    1       24.376 -12.824   2.924  0.00  0.00    -0.000 C 
BRANCH   7   9
ATOM      8  C   LIG    1       23.458 -14.734   4.353  0.00  0.00    +0.004 C 
ATOM      9  C   LIG    1       24.142 -13.375   4.332  0.00  0.00    -0.003 C 
ENDBRANCH   7   9
ENDBRANCH   6   7
ENDBRANCH   5   6
ENDBRANCH   4   5
ENDBRANCH   3   4
ENDBRANCH   1   3
BRANCH   1  10
ATOM     10  C   LIG    1       25.250 -17.844   3.426  0.00  0.00    +0.128 C 
BRANCH  10  11
ATOM     11  C   LIG    1       25.503 -19.347   3.419  0.00  0.00    +0.086 C 
BRANCH  11  12
ATOM     12  C   LIG    1       24.994 -20.006   4.688  0.00  0.00    +0.147 C 
ATOM     13  O   LIG    1       23.793 -20.245   4.858  0.00  0.00    -0.296 OA
BRANCH  12  14
ATOM     14  C   LIG    1       26.036 -20.427   5.717  0.00  0.00    +0.152 C 
BRANCH  14  15
ATOM     15  N   LIG    1       27.373 -20.248   5.145  0.00  0.00    -0.324 NA
ATOM     16  H   LIG    1       27.710 -19.311   5.364  0.00  0.00    +0.119 HD
ATOM     17  H   LIG    1       28.005 -20.893   5.628  0.00  0.00    +0.119 HD
ENDBRANCH  14  15
ENDBRANCH  12  14
ENDBRANCH  11  12
ENDBRANCH  10  11
ENDBRANCH   1  10
TORSDOF 11
ENDMDL
MODEL 7
REMARK VINA RESULT:      -4.8      4.098      6.393
REMARK  Name = *****
REMARK                            x       y       z     vdW  Elec       q    Type
REMARK                         _______ _______ _______ _____ _____    ______ ____
ROOT
ATOM      1  C   LIG    1       25.740 -20.591   5.114  0.00  0.00    +0.307 C 
ATOM      2  O   LIG    1       26.080 -19.566   4.538  0.00  0.00    -0.251 OA
ENDROOT
BRANCH   1   3
ATOM      3  O   LIG    1       24.801 -21.474   4.673  0.00  0.00    -0.465 OA
BRANCH   3   4
ATOM      4  C   LIG    1       23.597 -21.518   5.448  0.00  0.00    +0.232 C 
BRANCH   4   5
ATOM      5  C   LIG    1       22.505 -20.672   4.797  0.00  0.00    +0.041 C 
BRANCH   5   6
ATOM      6  C   LIG    1       22.402 -19.263   5.382  0.00  0.00    +0.003 C 
BRANCH   6   7
ATOM      7  C   LIG    1       22.504 -18.161   4.321  0.00  0.00    -0.000 C 
BRANCH   7   9
ATOM      8  C   LIG    1       23.093 -15.674   4.392  0.00  0.00    +0.004 C 
ATOM      9  C   LIG    1       22.141 -16.771   4.847  0.00  0.00    -0.003 C 
ENDBRANCH   7   9
ENDBRANCH   6   7
ENDBRANCH   5   6
ENDBRANCH   4   5
ENDBRANCH   3   4
ENDBRANCH   1   3
BRANCH   1  10
ATOM     10  C   LIG    1       26.324 -21.080   6.416  0.00  0.00    +0.128 C 
BRANCH  10  11
ATOM     11  C   LIG    1       27.222 -20.019   7.042  0.00  0.00    +0.086 C 
BRANCH  11  12
ATOM     12  C   LIG    1       28.681 -20.239   6.686  0.00  0.00    +0.147 C 
ATOM     13  O   LIG    1       29.191 -21.365   6.708  0.00  0.00    -0.296 OA
BRANCH  12  14
ATOM     14  C   LIG    1       29.474 -19.021   6.228  0.00  0.00    +0.152 C 
BRANCH  14  15
ATOM     15  N   LIG    1       28.837 -18.454   5.036  0.00  0.00    -0.324 NA
ATOM     16  H   LIG    1       27.979 -17.977   5.308  0.00  0.00    +0.119 HD
ATOM     17  H   LIG    1       29.458 -17.727   4.670  0.00  0.00    +0.119 HD
ENDBRANCH  14  15
ENDBRANCH  12  14
ENDBRANCH  11  12
ENDBRANCH  10  11
ENDBRANCH   1  10
TORSDOF 11
ENDMDL
MODEL 8
REMARK VINA RESULT:      -4.6      2.282      3.489
REMARK  Name = *****
REMARK                            x       y       z     vdW  Elec       q    Type
REMARK                         _______ _______ _______ _____ _____    ______ ____
ROOT
ATOM      1  C   LIG    1       25.165 -18.481   3.631  0.00  0.00    +0.307 C 
ATOM      2  O   LIG    1       23.955 -18.305   3.569  0.00  0.00    -0.251 OA
ENDROOT
BRANCH   1   3
ATOM      3  O   LIG    1       25.780 -19.648   3.972  0.00  0.00    -0.465 OA
BRANCH   3   4
ATOM      4  C   LIG    1       26.936 -19.504   4.807  0.00  0.00    +0.232 C 
BRANCH   4   5
ATOM      5  C   LIG    1       26.763 -20.287   6.107  0.00  0.00    +0.041 C 
BRANCH   5   6
ATOM      6  C   LIG    1       25.577 -21.252   6.079  0.00  0.00    +0.003 C 
BRANCH   6   7
ATOM      7  C   LIG    1       24.419 -20.810   6.982  0.00  0.00    -0.000 C 
BRANCH   7   9
ATOM      8  C   LIG    1       22.458 -20.871   5.343  0.00  0.00    +0.004 C 
ATOM      9  C   LIG    1       23.078 -21.444   6.609  0.00  0.00    -0.003 C 
ENDBRANCH   7   9
ENDBRANCH   6   7
ENDBRANCH   5   6
ENDBRANCH   4   5
ENDBRANCH   3   4
ENDBRANCH   1   3
BRANCH   1  10
ATOM     10  C   LIG    1       26.203 -17.435   3.312  0.00  0.00    +0.128 C 
BRANCH  10  11
ATOM     11  C   LIG    1       25.616 -16.033   3.424  0.00  0.00    +0.086 C 
BRANCH  11  12
ATOM     12  C   LIG    1       26.617 -14.972   3.004  0.00  0.00    +0.147 C 
ATOM     13  O   LIG    1       26.569 -14.440   1.889  0.00  0.00    -0.296 OA
BRANCH  12  14
ATOM     14  C   LIG    1       27.643 -14.536   4.044  0.00  0.00    +0.152 C 
BRANCH  14  15
ATOM     15  N   LIG    1       28.417 -13.411   3.511  0.00  0.00    -0.324 NA
ATOM     16  H   LIG    1       29.056 -13.073   4.229  0.00  0.00    +0.119 HD
ATOM     17  H   LIG    1       29.008 -13.772   2.757  0.00  0.00    +0.119 HD
ENDBRANCH  14  15
ENDBRANCH  12  14
ENDBRANCH  11  12
ENDBRANCH  10  11
ENDBRANCH   1  10
TORSDOF 11
ENDMDL
MODEL 9
REMARK VINA RESULT:      -4.6      2.905      6.175
REMARK  Name = *****
REMARK                            x       y       z     vdW  Elec       q    Type
REMARK                         _______ _______ _______ _____ _____    ______ ____
ROOT
ATOM      1  C   LIG    1       25.144 -18.240   3.539  0.00  0.00    +0.307 C 
ATOM      2  O   LIG    1       23.923 -18.209   3.628  0.00  0.00    -0.251 OA
ENDROOT
BRANCH   1   3
ATOM      3  O   LIG    1       25.923 -17.271   2.979  0.00  0.00    -0.465 OA
BRANCH   3   4
ATOM      4  C   LIG    1       27.086 -16.915   3.737  0.00  0.00    +0.232 C 
BRANCH   4   5
ATOM      5  C   LIG    1       27.252 -15.398   3.790  0.00  0.00    +0.041 C 
BRANCH   5   6
ATOM      6  C   LIG    1       26.524 -14.670   2.659  0.00  0.00    +0.003 C 
BRANCH   6   7
ATOM      7  C   LIG    1       25.710 -13.465   3.144  0.00  0.00    -0.000 C 
BRANCH   7   9
ATOM      8  C   LIG    1       23.685 -14.626   4.187  0.00  0.00    +0.004 C 
ATOM      9  C   LIG    1       24.903 -13.743   4.414  0.00  0.00    -0.003 C 
ENDBRANCH   7   9
ENDBRANCH   6   7
ENDBRANCH   5   6
ENDBRANCH   4   5
ENDBRANCH   3   4
ENDBRANCH   1   3
BRANCH   1  10
ATOM     10  C   LIG    1       26.016 -19.353   4.062  0.00  0.00    +0.128 C 
BRANCH  10  11
ATOM     11  C   LIG    1       25.176 -20.559   4.466  0.00  0.00    +0.086 C 
BRANCH  11  12
ATOM     12  C   LIG    1       24.944 -20.602   5.965  0.00  0.00    +0.147 C 
ATOM     13  O   LIG    1       25.871 -20.452   6.770  0.00  0.00    -0.296 OA
BRANCH  12  14
ATOM     14  C   LIG    1       23.505 -20.766   6.441  0.00  0.00    +0.152 C 
BRANCH  14  15
ATOM     15  N   LIG    1       22.644 -19.852   5.686  0.00  0.00    -0.324 NA
ATOM     16  H   LIG    1       23.011 -19.747   4.741  0.00  0.00    +0.119 HD
ATOM     17  H   LIG    1       21.730 -20.302   5.583  0.00  0.00    +0.119 HD
ENDBRANCH  14  15
ENDBRANCH  12  14
ENDBRANCH  11  12
ENDBRANCH  10  11
ENDBRANCH   1  10
TORSDOF 11
ENDMDL
