MODEL 1
REMARK VINA RESULT:      -0.1      0.000      0.000
REMARK  Name = *****
REMARK                            x       y       z     vdW  Elec       q    Type
REMARK                         _______ _______ _______ _____ _____    ______ ____
ROOT
ATOM      1  O   LIG    1       23.652 -15.416   4.792  0.00  0.00    -0.275 OA
ATOM      2  C   LIG    1       24.445 -16.186   4.297  0.00  0.00    +0.226 C 
ATOM      3  N   LIG    1       24.405 -17.511   4.031  0.00  0.00    -0.263 N 
ATOM      4  C   LIG    1       25.777 -17.619   3.521  0.00  0.00    +0.123 C 
ATOM      5  C   LIG    1       25.829 -16.053   3.627  0.00  0.00    +0.101 C 
ENDROOT
BRANCH   3   6
ATOM      6  C   LIG    1       23.351 -18.419   4.021  0.00  0.00    +0.037 A 
ATOM      7  C   LIG    1       22.051 -17.986   3.735  0.00  0.00    +0.026 A 
ATOM      8  C   LIG    1       20.981 -18.882   3.800  0.00  0.00    +0.040 A 
ATOM      9  C   LIG    1       21.214 -20.208   4.143  0.00  0.00    +0.123 A 
ATOM     10  F   LIG    1       20.186 -21.062   4.219  0.00  0.00    -0.205 F 
ATOM     11  C   LIG    1       22.498 -20.660   4.412  0.00  0.00    +0.040 A 
ATOM     12  C   LIG    1       23.567 -19.766   4.345  0.00  0.00    +0.026 A 
ENDBRANCH   3   6
BRANCH   4  13
ATOM     13  C   LIG    1       26.806 -18.462   4.413  0.00  0.00    -0.026 A 
ATOM     14  C   LIG    1       26.471 -19.719   4.962  0.00  0.00    +0.009 A 
ATOM     15  C   LIG    1       27.369 -20.455   5.742  0.00  0.00    +0.045 A 
ATOM     16  C   LIG    1       28.633 -19.949   5.995  0.00  0.00    +0.117 A 
ATOM     17  C   LIG    1       29.015 -18.722   5.473  0.00  0.00    +0.045 A 
ATOM     18  C   LIG    1       28.108 -17.991   4.691  0.00  0.00    +0.009 A 
BRANCH  16  19
ATOM     19  O   LIG    1       29.473 -20.694   6.767  0.00  0.00    -0.507 OA
ATOM     20  H   LIG    1       30.207 -20.132   7.064  0.00  0.00    +0.292 HD
ENDBRANCH  16  19
ENDBRANCH   4  13
BRANCH   5  21
ATOM     21  C   LIG    1       25.828 -15.281   2.303  0.00  0.00    +0.018 C 
BRANCH  21  22
ATOM     22  C   LIG    1       27.203 -14.647   2.037  0.00  0.00    +0.037 C 
BRANCH  22  23
ATOM     23  C   LIG    1       27.436 -13.365   2.852  0.00  0.00    +0.144 C 
BRANCH  23  24
ATOM     24  C   LIG    1       26.167 -12.841   3.502  0.00  0.00    -0.019 A 
ATOM     25  C   LIG    1       26.042 -12.805   4.902  0.00  0.00    +0.009 A 
ATOM     26  C   LIG    1       24.869 -12.333   5.499  0.00  0.00    +0.039 A 
ATOM     27  C   LIG    1       23.818 -11.898   4.701  0.00  0.00    +0.123 A 
ATOM     28  F   LIG    1       22.695 -11.447   5.275  0.00  0.00    -0.205 F 
ATOM     29  C   LIG    1       23.915 -11.927   3.316  0.00  0.00    +0.039 A 
ATOM     30  C   LIG    1       25.086 -12.398   2.718  0.00  0.00    +0.009 A 
ENDBRANCH  23  24
BRANCH  23  31
ATOM     31  O   LIG    1       28.423 -13.625   3.850  0.00  0.00    -0.387 OA
ATOM     32  H   LIG    1       29.286 -13.355   3.493  0.00  0.00    +0.210 HD
ENDBRANCH  23  31
ENDBRANCH  22  23
ENDBRANCH  21  22
ENDBRANCH   5  21
TORSDOF 8
ENDMDL
