MODEL 1
REMARK VINA RESULT:      -8.3      0.000      0.000
REMARK  Name = *****
REMARK                            x       y       z     vdW  Elec       q    Type
REMARK                         _______ _______ _______ _____ _____    ______ ____
ROOT
ATOM      1  C   LIG    1       24.542 -21.888   5.379  0.00  0.00    +0.242 C 
ATOM      2  C   LIG    1       25.307 -21.406   6.672  0.00  0.00    +0.199 C 
ATOM      3  N   LIG    1       26.224 -20.693   5.803  0.00  0.00    -0.244 N 
ATOM      4  C   LIG    1       27.361 -20.063   6.235  0.00  0.00    +0.125 C 
ATOM      5  C   LIG    1       27.861 -20.322   7.474  0.00  0.00    +0.006 C 
ATOM      6  C   LIG    1       27.266 -21.354   8.430  0.00  0.00    +0.107 C 
ATOM      7  S   LIG    1       26.263 -22.636   7.599  0.00  0.00    -0.128 S 
ATOM      8  C   LIG    1       25.467 -20.790   4.680  0.00  0.00    +0.275 C 
ATOM      9  O   LIG    1       25.570 -20.310   3.562  0.00  0.00    -0.270 OA
ENDROOT
BRANCH   1  10
ATOM     10  N   LIG    1       24.850 -23.280   4.910  0.00  0.00    -0.278 N 
ATOM     11  H   LIG    1       25.280 -23.398   3.998  0.00  0.00    +0.152 HD
ATOM     12  C   LIG    1       24.297 -24.390   5.520  0.00  0.00    +0.220 C 
ATOM     13  O   LIG    1       23.560 -24.324   6.499  0.00  0.00    -0.275 OA
BRANCH  12  14
ATOM     14  C   LIG    1       24.738 -25.715   4.933  0.00  0.00    +0.138 C 
BRANCH  14  15
ATOM     15  C   LIG    1       25.127 -26.719   5.978  0.00  0.00    -0.002 A 
ATOM     16  S   LIG    1       24.379 -28.268   5.944  0.00  0.00    -0.101 S 
ATOM     17  C   LIG    1       25.227 -28.790   7.330  0.00  0.00    +0.045 A 
ATOM     18  C   LIG    1       26.053 -27.809   7.826  0.00  0.00    +0.008 A 
ATOM     19  C   LIG    1       25.990 -26.610   7.053  0.00  0.00    +0.012 A 
ENDBRANCH  14  15
ENDBRANCH  12  14
ENDBRANCH   1  10
BRANCH   1  21
ATOM     20  C   LIG    1       22.786 -20.223   5.748  0.00  0.00    +0.197 C 
ATOM     21  O   LIG    1       23.128 -21.547   5.377  0.00  0.00    -0.349 OA
ENDBRANCH   1  21
BRANCH   4  22
ATOM     22  C   LIG    1       28.022 -19.095   5.286  0.00  0.00    +0.351 C 
ATOM     23  O   LIG    1       29.209 -18.833   5.202  0.00  0.00    -0.244 OA
BRANCH  22  24
ATOM     24  O   LIG    1       27.129 -18.497   4.488  0.00  0.00    -0.476 OA
ATOM     25  H   LIG    1       26.896 -17.631   4.875  0.00  0.00    +0.295 HD
ENDBRANCH  22  24
ENDBRANCH   4  22
BRANCH   5  26
ATOM     26  C   LIG    1       29.086 -19.645   8.076  0.00  0.00    +0.268 C 
BRANCH  26  27
ATOM     27  O   LIG    1       29.954 -20.631   8.661  0.00  0.00    -0.446 OA
BRANCH  27  28
ATOM     28  C   LIG    1       31.284 -20.414   8.553  0.00  0.00    +0.398 C 
ATOM     29  O   LIG    1       32.155 -20.859   9.280  0.00  0.00    -0.227 OA
ATOM     30  N   LIG    1       31.543 -19.633   7.477  0.00  0.00    -0.295 N 
ATOM     31  H   LIG    1       32.506 -19.458   7.226  0.00  0.00    +0.148 HD
ATOM     32  H   LIG    1       30.804 -19.393   6.834  0.00  0.00    +0.148 HD
ENDBRANCH  27  28
ENDBRANCH  26  27
ENDBRANCH   5  26
TORSDOF 9
ENDMDL
MODEL 2
REMARK VINA RESULT:      -7.8      1.143      1.293
REMARK  Name = *****
REMARK                            x       y       z     vdW  Elec       q    Type
REMARK                         _______ _______ _______ _____ _____    ______ ____
ROOT
ATOM      1  C   LIG    1       25.028 -21.229   5.671  0.00  0.00    +0.242 C 
ATOM      2  C   LIG    1       26.058 -20.836   6.800  0.00  0.00    +0.199 C 
ATOM      3  N   LIG    1       26.782 -20.070   5.804  0.00  0.00    -0.244 N 
ATOM      4  C   LIG    1       27.996 -19.473   6.024  0.00  0.00    +0.125 C 
ATOM      5  C   LIG    1       28.742 -19.815   7.110  0.00  0.00    +0.006 C 
ATOM      6  C   LIG    1       28.346 -20.907   8.101  0.00  0.00    +0.107 C 
ATOM      7  S   LIG    1       27.168 -22.127   7.422  0.00  0.00    -0.128 S 
ATOM      8  C   LIG    1       25.803 -20.090   4.864  0.00  0.00    +0.275 C 
ATOM      9  O   LIG    1       25.675 -19.537   3.783  0.00  0.00    -0.270 OA
ENDROOT
BRANCH   1  10
ATOM     10  N   LIG    1       25.207 -22.588   5.058  0.00  0.00    -0.278 N 
ATOM     11  H   LIG    1       25.540 -22.646   4.102  0.00  0.00    +0.152 HD
ATOM     12  C   LIG    1       24.648 -23.717   5.626  0.00  0.00    +0.220 C 
ATOM     13  O   LIG    1       24.012 -23.702   6.675  0.00  0.00    -0.275 OA
BRANCH  12  14
ATOM     14  C   LIG    1       24.952 -25.006   4.889  0.00  0.00    +0.138 C 
BRANCH  14  15
ATOM     15  C   LIG    1       25.237 -26.155   5.810  0.00  0.00    -0.002 A 
ATOM     16  S   LIG    1       24.375 -27.626   5.576  0.00  0.00    -0.101 S 
ATOM     17  C   LIG    1       25.147 -28.375   6.902  0.00  0.00    +0.045 A 
ATOM     18  C   LIG    1       26.032 -27.528   7.526  0.00  0.00    +0.008 A 
ATOM     19  C   LIG    1       26.078 -26.244   6.904  0.00  0.00    +0.012 A 
ENDBRANCH  14  15
ENDBRANCH  12  14
ENDBRANCH   1  10
BRANCH   1  21
ATOM     20  C   LIG    1       22.765 -20.702   4.902  0.00  0.00    +0.197 C 
ATOM     21  O   LIG    1       23.653 -20.885   5.991  0.00  0.00    -0.349 OA
ENDBRANCH   1  21
BRANCH   4  22
ATOM     22  C   LIG    1       28.457 -18.445   5.021  0.00  0.00    +0.351 C 
ATOM     23  O   LIG    1       27.769 -17.650   4.405  0.00  0.00    -0.244 OA
BRANCH  22  24
ATOM     24  O   LIG    1       29.784 -18.484   4.846  0.00  0.00    -0.476 OA
ATOM     25  H   LIG    1       29.989 -18.155   3.950  0.00  0.00    +0.295 HD
ENDBRANCH  22  24
ENDBRANCH   4  22
BRANCH   5  26
ATOM     26  C   LIG    1       30.078 -19.183   7.479  0.00  0.00    +0.268 C 
BRANCH  26  27
ATOM     27  O   LIG    1       30.094 -18.851   8.879  0.00  0.00    -0.446 OA
BRANCH  27  28
ATOM     28  C   LIG    1       31.270 -18.996   9.527  0.00  0.00    +0.398 C 
ATOM     29  O   LIG    1       32.152 -19.795   9.262  0.00  0.00    -0.227 OA
ATOM     30  N   LIG    1       31.367 -18.090  10.529  0.00  0.00    -0.295 N 
ATOM     31  H   LIG    1       32.233 -18.029  11.046  0.00  0.00    +0.148 HD
ATOM     32  H   LIG    1       30.669 -17.369  10.630  0.00  0.00    +0.148 HD
ENDBRANCH  27  28
ENDBRANCH  26  27
ENDBRANCH   5  26
TORSDOF 9
ENDMDL
MODEL 3
REMARK VINA RESULT:      -7.0      6.259      9.097
REMARK  Name = *****
REMARK                            x       y       z     vdW  Elec       q    Type
REMARK                         _______ _______ _______ _____ _____    ______ ____
ROOT
ATOM      1  C   LIG    1       24.445 -30.510   8.263  0.00  0.00    +0.242 C 
ATOM      2  C   LIG    1       25.507 -30.113   9.360  0.00  0.00    +0.199 C 
ATOM      3  N   LIG    1       24.402 -29.816  10.251  0.00  0.00    -0.244 N 
ATOM      4  C   LIG    1       24.543 -29.237  11.485  0.00  0.00    +0.125 C 
ATOM      5  C   LIG    1       25.711 -28.628  11.829  0.00  0.00    +0.006 C 
ATOM      6  C   LIG    1       26.898 -28.474  10.880  0.00  0.00    +0.107 C 
ATOM      7  S   LIG    1       26.448 -28.583   9.113  0.00  0.00    -0.128 S 
ATOM      8  C   LIG    1       23.445 -30.423   9.505  0.00  0.00    +0.275 C 
ATOM      9  O   LIG    1       22.264 -30.664   9.702  0.00  0.00    -0.270 OA
ENDROOT
BRANCH   1  10
ATOM     10  N   LIG    1       24.153 -29.473   7.218  0.00  0.00    -0.278 N 
ATOM     11  H   LIG    1       23.304 -28.925   7.305  0.00  0.00    +0.152 HD
ATOM     12  C   LIG    1       24.821 -29.456   6.009  0.00  0.00    +0.220 C 
ATOM     13  O   LIG    1       25.714 -30.246   5.719  0.00  0.00    -0.275 OA
BRANCH  12  14
ATOM     14  C   LIG    1       24.419 -28.323   5.085  0.00  0.00    +0.138 C 
BRANCH  14  15
ATOM     15  C   LIG    1       24.761 -26.969   5.633  0.00  0.00    -0.002 A 
ATOM     16  S   LIG    1       26.420 -26.575   5.866  0.00  0.00    -0.101 S 
ATOM     17  C   LIG    1       26.042 -25.032   6.490  0.00  0.00    +0.045 A 
ATOM     18  C   LIG    1       24.685 -24.817   6.540  0.00  0.00    +0.008 A 
ATOM     19  C   LIG    1       23.944 -25.937   6.055  0.00  0.00    +0.012 A 
ENDBRANCH  14  15
ENDBRANCH  12  14
ENDBRANCH   1  10
BRANCH   1  21
ATOM     20  C   LIG    1       25.640 -32.645   8.331  0.00  0.00    +0.197 C 
ATOM     21  O   LIG    1       24.617 -31.859   7.747  0.00  0.00    -0.349 OA
ENDBRANCH   1  21
BRANCH   4  22
ATOM     22  C   LIG    1       23.362 -29.300  12.421  0.00  0.00    +0.351 C 
ATOM     23  O   LIG    1       22.475 -28.475  12.552  0.00  0.00    -0.244 OA
BRANCH  22  24
ATOM     24  O   LIG    1       23.371 -30.420  13.155  0.00  0.00    -0.476 OA
ATOM     25  H   LIG    1       24.293 -30.733  13.232  0.00  0.00    +0.295 HD
ENDBRANCH  22  24
ENDBRANCH   4  22
BRANCH   5  26
ATOM     26  C   LIG    1       25.995 -27.998  13.186  0.00  0.00    +0.268 C 
BRANCH  26  27
ATOM     27  O   LIG    1       25.419 -26.681  13.247  0.00  0.00    -0.446 OA
BRANCH  27  28
ATOM     28  C   LIG    1       26.279 -25.642  13.327  0.00  0.00    +0.398 C 
ATOM     29  O   LIG    1       26.002 -24.460  13.228  0.00  0.00    -0.227 OA
ATOM     30  N   LIG    1       27.533 -26.093  13.571  0.00  0.00    -0.295 N 
ATOM     31  H   LIG    1       28.267 -25.418  13.738  0.00  0.00    +0.148 HD
ATOM     32  H   LIG    1       27.692 -27.068  13.770  0.00  0.00    +0.148 HD
ENDBRANCH  27  28
ENDBRANCH  26  27
ENDBRANCH   5  26
TORSDOF 9
ENDMDL
MODEL 4
REMARK VINA RESULT:      -6.5      5.890      9.295
REMARK  Name = *****
REMARK                            x       y       z     vdW  Elec       q    Type
REMARK                         _______ _______ _______ _____ _____    ______ ____
ROOT
ATOM      1  C   LIG    1       24.789 -29.889   7.443  0.00  0.00    +0.242 C 
ATOM      2  C   LIG    1       25.875 -29.729   8.576  0.00  0.00    +0.199 C 
ATOM      3  N   LIG    1       24.837 -30.027   9.544  0.00  0.00    -0.244 N 
ATOM      4  C   LIG    1       25.004 -29.945  10.902  0.00  0.00    +0.125 C 
ATOM      5  C   LIG    1       26.074 -29.286  11.424  0.00  0.00    +0.006 C 
ATOM      6  C   LIG    1       27.107 -28.543  10.578  0.00  0.00    +0.107 C 
ATOM      7  S   LIG    1       26.496 -28.062   8.924  0.00  0.00    -0.128 S 
ATOM      8  C   LIG    1       23.928 -30.488   8.647  0.00  0.00    +0.275 C 
ATOM      9  O   LIG    1       22.837 -31.023   8.767  0.00  0.00    -0.270 OA
ENDROOT
BRANCH   1  10
ATOM     10  N   LIG    1       24.208 -28.616   6.900  0.00  0.00    -0.278 N 
ATOM     11  H   LIG    1       23.253 -28.377   7.148  0.00  0.00    +0.152 HD
ATOM     12  C   LIG    1       24.799 -27.939   5.851  0.00  0.00    +0.220 C 
ATOM     13  O   LIG    1       25.847 -28.297   5.322  0.00  0.00    -0.275 OA
BRANCH  12  14
ATOM     14  C   LIG    1       24.093 -26.660   5.450  0.00  0.00    +0.138 C 
BRANCH  14  15
ATOM     15  C   LIG    1       24.636 -25.447   6.145  0.00  0.00    -0.002 A 
ATOM     16  S   LIG    1       23.543 -24.185   6.566  0.00  0.00    -0.101 S 
ATOM     17  C   LIG    1       24.790 -23.226   7.228  0.00  0.00    +0.045 A 
ATOM     18  C   LIG    1       26.018 -23.835   7.121  0.00  0.00    +0.008 A 
ATOM     19  C   LIG    1       25.933 -25.111   6.488  0.00  0.00    +0.012 A 
ENDBRANCH  14  15
ENDBRANCH  12  14
ENDBRANCH   1  10
BRANCH   1  21
ATOM     20  C   LIG    1       26.060 -31.884   6.812  0.00  0.00    +0.197 C 
ATOM     21  O   LIG    1       25.142 -30.873   6.432  0.00  0.00    -0.349 OA
ENDBRANCH   1  21
BRANCH   4  22
ATOM     22  C   LIG    1       23.959 -30.600  11.771  0.00  0.00    +0.351 C 
ATOM     23  O   LIG    1       23.941 -31.753  12.165  0.00  0.00    -0.244 OA
BRANCH  22  24
ATOM     24  O   LIG    1       22.979 -29.748  12.094  0.00  0.00    -0.476 OA
ATOM     25  H   LIG    1       22.139 -30.246  12.146  0.00  0.00    +0.295 HD
ENDBRANCH  22  24
ENDBRANCH   4  22
BRANCH   5  26
ATOM     26  C   LIG    1       26.385 -29.175  12.910  0.00  0.00    +0.268 C 
BRANCH  26  27
ATOM     27  O   LIG    1       27.701 -28.624  13.097  0.00  0.00    -0.446 OA
BRANCH  27  28
ATOM     28  C   LIG    1       28.539 -29.306  13.908  0.00  0.00    +0.398 C 
ATOM     29  O   LIG    1       28.568 -30.513  14.074  0.00  0.00    -0.227 OA
ATOM     30  N   LIG    1       29.395 -28.453  14.519  0.00  0.00    -0.295 N 
ATOM     31  H   LIG    1       30.135 -28.836  15.092  0.00  0.00    +0.148 HD
ATOM     32  H   LIG    1       29.416 -27.480  14.256  0.00  0.00    +0.148 HD
ENDBRANCH  27  28
ENDBRANCH  26  27
ENDBRANCH   5  26
TORSDOF 9
ENDMDL
MODEL 5
REMARK VINA RESULT:      -6.5      8.242     10.903
REMARK  Name = *****
REMARK                            x       y       z     vdW  Elec       q    Type
REMARK                         _______ _______ _______ _____ _____    ______ ____
ROOT
ATOM      1  C   LIG    1       23.454 -29.481  12.697  0.00  0.00    +0.242 C 
ATOM      2  C   LIG    1       23.721 -30.603  11.620  0.00  0.00    +0.199 C 
ATOM      3  N   LIG    1       24.749 -29.749  11.057  0.00  0.00    -0.244 N 
ATOM      4  C   LIG    1       25.420 -30.016   9.892  0.00  0.00    +0.125 C 
ATOM      5  C   LIG    1       24.949 -30.958   9.030  0.00  0.00    +0.006 C 
ATOM      6  C   LIG    1       23.641 -31.719   9.237  0.00  0.00    +0.107 C 
ATOM      7  S   LIG    1       22.461 -30.870  10.345  0.00  0.00    -0.128 S 
ATOM      8  C   LIG    1       24.813 -28.887  12.104  0.00  0.00    +0.275 C 
ATOM      9  O   LIG    1       25.557 -27.957  12.373  0.00  0.00    -0.270 OA
ENDROOT
BRANCH   1  10
ATOM     10  N   LIG    1       22.277 -28.585  12.440  0.00  0.00    -0.278 N 
ATOM     11  H   LIG    1       21.812 -28.645  11.540  0.00  0.00    +0.152 HD
ATOM     12  C   LIG    1       22.009 -27.493  13.243  0.00  0.00    +0.220 C 
ATOM     13  O   LIG    1       22.675 -27.203  14.232  0.00  0.00    -0.275 OA
BRANCH  12  14
ATOM     14  C   LIG    1       20.767 -26.718  12.854  0.00  0.00    +0.138 C 
BRANCH  14  15
ATOM     15  C   LIG    1       19.597 -26.994  13.751  0.00  0.00    -0.002 A 
ATOM     16  S   LIG    1       19.491 -28.535  14.510  0.00  0.00    -0.101 S 
ATOM     17  C   LIG    1       18.014 -28.142  15.269  0.00  0.00    +0.045 A 
ATOM     18  C   LIG    1       17.592 -26.874  14.946  0.00  0.00    +0.008 A 
ATOM     19  C   LIG    1       18.499 -26.213  14.063  0.00  0.00    +0.012 A 
ENDBRANCH  14  15
ENDBRANCH  12  14
ENDBRANCH   1  10
BRANCH   1  21
ATOM     20  C   LIG    1       22.724 -31.015  14.459  0.00  0.00    +0.197 C 
ATOM     21  O   LIG    1       23.572 -29.949  14.068  0.00  0.00    -0.349 OA
ENDBRANCH   1  21
BRANCH   4  22
ATOM     22  C   LIG    1       26.675 -29.227   9.616  0.00  0.00    +0.351 C 
ATOM     23  O   LIG    1       27.766 -29.362  10.140  0.00  0.00    -0.244 OA
BRANCH  22  24
ATOM     24  O   LIG    1       26.474 -28.290   8.680  0.00  0.00    -0.476 OA
ATOM     25  H   LIG    1       27.035 -27.517   8.889  0.00  0.00    +0.295 HD
ENDBRANCH  22  24
ENDBRANCH   4  22
BRANCH   5  26
ATOM     26  C   LIG    1       25.636 -31.371   7.735  0.00  0.00    +0.268 C 
BRANCH  26  27
ATOM     27  O   LIG    1       24.731 -31.217   6.628  0.00  0.00    -0.446 OA
BRANCH  27  28
ATOM     28  C   LIG    1       24.600 -29.974   6.116  0.00  0.00    +0.398 C 
ATOM     29  O   LIG    1       23.558 -29.368   5.936  0.00  0.00    -0.227 OA
ATOM     30  N   LIG    1       25.819 -29.450   5.843  0.00  0.00    -0.295 N 
ATOM     31  H   LIG    1       25.875 -28.490   5.532  0.00  0.00    +0.148 HD
ATOM     32  H   LIG    1       26.655 -29.937   6.124  0.00  0.00    +0.148 HD
ENDBRANCH  27  28
ENDBRANCH  26  27
ENDBRANCH   5  26
TORSDOF 9
ENDMDL
MODEL 6
REMARK VINA RESULT:      -6.1      5.238      9.229
REMARK  Name = *****
REMARK                            x       y       z     vdW  Elec       q    Type
REMARK                         _______ _______ _______ _____ _____    ______ ____
ROOT
ATOM      1  C   LIG    1       25.259 -29.257   5.885  0.00  0.00    +0.242 C 
ATOM      2  C   LIG    1       25.882 -29.381   7.330  0.00  0.00    +0.199 C 
ATOM      3  N   LIG    1       24.619 -29.943   7.771  0.00  0.00    -0.244 N 
ATOM      4  C   LIG    1       24.315 -30.218   9.079  0.00  0.00    +0.125 C 
ATOM      5  C   LIG    1       25.072 -29.701  10.084  0.00  0.00    +0.006 C 
ATOM      6  C   LIG    1       26.239 -28.742   9.859  0.00  0.00    +0.107 C 
ATOM      7  S   LIG    1       26.166 -27.854   8.264  0.00  0.00    -0.128 S 
ATOM      8  C   LIG    1       24.117 -30.168   6.531  0.00  0.00    +0.275 C 
ATOM      9  O   LIG    1       23.114 -30.736   6.129  0.00  0.00    -0.270 OA
ENDROOT
BRANCH   1  10
ATOM     10  N   LIG    1       24.756 -27.897   5.497  0.00  0.00    -0.278 N 
ATOM     11  H   LIG    1       23.755 -27.761   5.403  0.00  0.00    +0.152 HD
ATOM     12  C   LIG    1       25.599 -26.936   4.971  0.00  0.00    +0.220 C 
ATOM     13  O   LIG    1       26.805 -27.104   4.824  0.00  0.00    -0.275 OA
BRANCH  12  14
ATOM     14  C   LIG    1       24.928 -25.613   4.661  0.00  0.00    +0.138 C 
BRANCH  14  15
ATOM     15  C   LIG    1       25.222 -24.552   5.679  0.00  0.00    -0.002 A 
ATOM     16  S   LIG    1       24.739 -22.936   5.342  0.00  0.00    -0.101 S 
ATOM     17  C   LIG    1       25.388 -22.357   6.811  0.00  0.00    +0.045 A 
ATOM     18  C   LIG    1       25.976 -23.361   7.543  0.00  0.00    +0.008 A 
ATOM     19  C   LIG    1       25.891 -24.626   6.888  0.00  0.00    +0.012 A 
ENDBRANCH  14  15
ENDBRANCH  12  14
ENDBRANCH   1  10
BRANCH   1  21
ATOM     20  C   LIG    1       26.059 -31.349   4.898  0.00  0.00    +0.197 C 
ATOM     21  O   LIG    1       26.033 -29.933   4.857  0.00  0.00    -0.349 OA
ENDBRANCH   1  21
BRANCH   4  22
ATOM     22  C   LIG    1       23.119 -31.099   9.343  0.00  0.00    +0.351 C 
ATOM     23  O   LIG    1       22.041 -30.768   9.804  0.00  0.00    -0.244 OA
BRANCH  22  24
ATOM     24  O   LIG    1       23.359 -32.373   9.007  0.00  0.00    -0.476 OA
ATOM     25  H   LIG    1       22.542 -32.891   9.149  0.00  0.00    +0.295 HD
ENDBRANCH  22  24
ENDBRANCH   4  22
BRANCH   5  26
ATOM     26  C   LIG    1       24.857 -29.981  11.566  0.00  0.00    +0.268 C 
BRANCH  26  27
ATOM     27  O   LIG    1       23.903 -29.050  12.108  0.00  0.00    -0.446 OA
BRANCH  27  28
ATOM     28  C   LIG    1       24.375 -28.129  12.976  0.00  0.00    +0.398 C 
ATOM     29  O   LIG    1       23.860 -27.060  13.255  0.00  0.00    -0.227 OA
ATOM     30  N   LIG    1       25.524 -28.569  13.545  0.00  0.00    -0.295 N 
ATOM     31  H   LIG    1       25.945 -28.017  14.279  0.00  0.00    +0.148 HD
ATOM     32  H   LIG    1       25.844 -29.511  13.378  0.00  0.00    +0.148 HD
ENDBRANCH  27  28
ENDBRANCH  26  27
ENDBRANCH   5  26
TORSDOF 9
ENDMDL
MODEL 7
REMARK VINA RESULT:      -6.1      4.644      9.319
REMARK  Name = *****
REMARK                            x       y       z     vdW  Elec       q    Type
REMARK                         _______ _______ _______ _____ _____    ______ ____
ROOT
ATOM      1  C   LIG    1       25.044 -27.793   6.066  0.00  0.00    +0.242 C 
ATOM      2  C   LIG    1       25.958 -28.576   7.087  0.00  0.00    +0.199 C 
ATOM      3  N   LIG    1       24.889 -29.549   7.219  0.00  0.00    -0.244 N 
ATOM      4  C   LIG    1       24.893 -30.577   8.126  0.00  0.00    +0.125 C 
ATOM      5  C   LIG    1       25.770 -30.572   9.166  0.00  0.00    +0.006 C 
ATOM      6  C   LIG    1       26.741 -29.428   9.451  0.00  0.00    +0.107 C 
ATOM      7  S   LIG    1       26.237 -27.833   8.716  0.00  0.00    -0.128 S 
ATOM      8  C   LIG    1       24.177 -29.132   6.142  0.00  0.00    +0.275 C 
ATOM      9  O   LIG    1       23.190 -29.573   5.575  0.00  0.00    -0.270 OA
ENDROOT
BRANCH   1  10
ATOM     10  N   LIG    1       24.311 -26.603   6.613  0.00  0.00    -0.278 N 
ATOM     11  H   LIG    1       23.684 -26.742   7.399  0.00  0.00    +0.152 HD
ATOM     12  C   LIG    1       24.220 -25.420   5.906  0.00  0.00    +0.220 C 
ATOM     13  O   LIG    1       24.757 -25.241   4.817  0.00  0.00    -0.275 OA
BRANCH  12  14
ATOM     14  C   LIG    1       23.466 -24.317   6.621  0.00  0.00    +0.138 C 
BRANCH  14  15
ATOM     15  C   LIG    1       24.355 -23.198   7.077  0.00  0.00    -0.002 A 
ATOM     16  S   LIG    1       23.697 -21.611   7.163  0.00  0.00    -0.101 S 
ATOM     17  C   LIG    1       25.181 -20.943   7.680  0.00  0.00    +0.045 A 
ATOM     18  C   LIG    1       26.167 -21.896   7.773  0.00  0.00    +0.008 A 
ATOM     19  C   LIG    1       25.696 -23.196   7.416  0.00  0.00    +0.012 A 
ENDBRANCH  14  15
ENDBRANCH  12  14
ENDBRANCH   1  10
BRANCH   1  21
ATOM     20  C   LIG    1       27.084 -27.491   4.747  0.00  0.00    +0.197 C 
ATOM     21  O   LIG    1       25.670 -27.576   4.771  0.00  0.00    -0.349 OA
ENDBRANCH   1  21
BRANCH   4  22
ATOM     22  C   LIG    1       23.892 -31.687   7.920  0.00  0.00    +0.351 C 
ATOM     23  O   LIG    1       23.981 -32.633   7.158  0.00  0.00    -0.244 OA
BRANCH  22  24
ATOM     24  O   LIG    1       22.815 -31.533   8.701  0.00  0.00    -0.476 OA
ATOM     25  H   LIG    1       22.038 -31.377   8.130  0.00  0.00    +0.295 HD
ENDBRANCH  22  24
ENDBRANCH   4  22
BRANCH   5  26
ATOM     26  C   LIG    1       25.896 -31.682  10.201  0.00  0.00    +0.268 C 
BRANCH  26  27
ATOM     27  O   LIG    1       25.623 -31.163  11.515  0.00  0.00    -0.446 OA
BRANCH  27  28
ATOM     28  C   LIG    1       24.332 -30.898  11.810  0.00  0.00    +0.398 C 
ATOM     29  O   LIG    1       23.375 -31.625  11.606  0.00  0.00    -0.227 OA
ATOM     30  N   LIG    1       24.229 -29.688  12.411  0.00  0.00    -0.295 N 
ATOM     31  H   LIG    1       23.327 -29.397  12.763  0.00  0.00    +0.148 HD
ATOM     32  H   LIG    1       25.059 -29.179  12.671  0.00  0.00    +0.148 HD
ENDBRANCH  27  28
ENDBRANCH  26  27
ENDBRANCH   5  26
TORSDOF 9
ENDMDL
MODEL 8
REMARK VINA RESULT:      -6.0      7.058     10.481
REMARK  Name = *****
REMARK                            x       y       z     vdW  Elec       q    Type
REMARK                         _______ _______ _______ _____ _____    ______ ____
ROOT
ATOM      1  C   LIG    1       25.902 -31.305   7.306  0.00  0.00    +0.242 C 
ATOM      2  C   LIG    1       25.998 -30.882   8.824  0.00  0.00    +0.199 C 
ATOM      3  N   LIG    1       24.585 -31.186   8.946  0.00  0.00    -0.244 N 
ATOM      4  C   LIG    1       23.836 -30.924  10.063  0.00  0.00    +0.125 C 
ATOM      5  C   LIG    1       24.306 -30.084  11.025  0.00  0.00    +0.006 C 
ATOM      6  C   LIG    1       25.629 -29.327  10.916  0.00  0.00    +0.107 C 
ATOM      7  S   LIG    1       26.222 -29.123   9.200  0.00  0.00    -0.128 S 
ATOM      8  C   LIG    1       24.477 -31.856   7.771  0.00  0.00    +0.275 C 
ATOM      9  O   LIG    1       23.575 -32.502   7.260  0.00  0.00    -0.270 OA
ENDROOT
BRANCH   1  10
ATOM     10  N   LIG    1       25.788 -30.185   6.314  0.00  0.00    -0.278 N 
ATOM     11  H   LIG    1       26.641 -29.778   5.945  0.00  0.00    +0.152 HD
ATOM     12  C   LIG    1       24.604 -29.497   6.131  0.00  0.00    +0.220 C 
ATOM     13  O   LIG    1       23.565 -29.773   6.723  0.00  0.00    -0.275 OA
BRANCH  12  14
ATOM     14  C   LIG    1       24.662 -28.417   5.070  0.00  0.00    +0.138 C 
BRANCH  14  15
ATOM     15  C   LIG    1       24.870 -27.045   5.641  0.00  0.00    -0.002 A 
ATOM     16  S   LIG    1       26.468 -26.564   6.058  0.00  0.00    -0.101 S 
ATOM     17  C   LIG    1       25.943 -25.040   6.619  0.00  0.00    +0.045 A 
ATOM     18  C   LIG    1       24.580 -24.896   6.511  0.00  0.00    +0.008 A 
ATOM     19  C   LIG    1       23.958 -26.055   5.956  0.00  0.00    +0.012 A 
ENDBRANCH  14  15
ENDBRANCH  12  14
ENDBRANCH   1  10
BRANCH   1  21
ATOM     20  C   LIG    1       27.434 -33.089   7.988  0.00  0.00    +0.197 C 
ATOM     21  O   LIG    1       26.839 -32.352   6.933  0.00  0.00    -0.349 OA
ENDBRANCH   1  21
BRANCH   4  22
ATOM     22  C   LIG    1       22.488 -31.594  10.168  0.00  0.00    +0.351 C 
ATOM     23  O   LIG    1       22.256 -32.748  10.481  0.00  0.00    -0.244 OA
BRANCH  22  24
ATOM     24  O   LIG    1       21.492 -30.753   9.861  0.00  0.00    -0.476 OA
ATOM     25  H   LIG    1       21.343 -30.787   8.896  0.00  0.00    +0.295 HD
ENDBRANCH  22  24
ENDBRANCH   4  22
BRANCH   5  26
ATOM     26  C   LIG    1       23.583 -29.761  12.326  0.00  0.00    +0.268 C 
BRANCH  26  27
ATOM     27  O   LIG    1       22.518 -28.828  12.077  0.00  0.00    -0.446 OA
BRANCH  27  28
ATOM     28  C   LIG    1       21.453 -28.883  12.907  0.00  0.00    +0.398 C 
ATOM     29  O   LIG    1       21.436 -28.587  14.089  0.00  0.00    -0.227 OA
ATOM     30  N   LIG    1       20.355 -29.297  12.230  0.00  0.00    -0.295 N 
ATOM     31  H   LIG    1       19.464 -29.305  12.709  0.00  0.00    +0.148 HD
ATOM     32  H   LIG    1       20.388 -29.410  11.229  0.00  0.00    +0.148 HD
ENDBRANCH  27  28
ENDBRANCH  26  27
ENDBRANCH   5  26
TORSDOF 9
ENDMDL
MODEL 9
REMARK VINA RESULT:      -6.0      2.834      4.281
REMARK  Name = *****
REMARK                            x       y       z     vdW  Elec       q    Type
REMARK                         _______ _______ _______ _____ _____    ______ ____
ROOT
ATOM      1  C   LIG    1       25.367 -22.018   7.001  0.00  0.00    +0.242 C 
ATOM      2  C   LIG    1       26.029 -20.658   6.550  0.00  0.00    +0.199 C 
ATOM      3  N   LIG    1       25.062 -20.602   5.471  0.00  0.00    -0.244 N 
ATOM      4  C   LIG    1       25.082 -19.670   4.466  0.00  0.00    +0.125 C 
ATOM      5  C   LIG    1       26.194 -18.915   4.253  0.00  0.00    +0.006 C 
ATOM      6  C   LIG    1       27.495 -19.082   5.034  0.00  0.00    +0.107 C 
ATOM      7  S   LIG    1       27.683 -20.726   5.810  0.00  0.00    -0.128 S 
ATOM      8  C   LIG    1       24.244 -21.571   5.956  0.00  0.00    +0.275 C 
ATOM      9  O   LIG    1       23.149 -21.986   5.612  0.00  0.00    -0.270 OA
ENDROOT
BRANCH   1  10
ATOM     10  N   LIG    1       26.077 -23.271   6.578  0.00  0.00    -0.278 N 
ATOM     11  H   LIG    1       26.972 -23.183   6.108  0.00  0.00    +0.152 HD
ATOM     12  C   LIG    1       25.427 -24.489   6.526  0.00  0.00    +0.220 C 
ATOM     13  O   LIG    1       24.255 -24.643   6.854  0.00  0.00    -0.275 OA
BRANCH  12  14
ATOM     14  C   LIG    1       26.304 -25.651   6.104  0.00  0.00    +0.138 C 
BRANCH  14  15
ATOM     15  C   LIG    1       25.753 -26.983   6.519  0.00  0.00    -0.002 A 
ATOM     16  S   LIG    1       24.654 -27.781   5.461  0.00  0.00    -0.101 S 
ATOM     17  C   LIG    1       24.460 -29.094   6.535  0.00  0.00    +0.045 A 
ATOM     18  C   LIG    1       25.197 -28.931   7.684  0.00  0.00    +0.008 A 
ATOM     19  C   LIG    1       25.936 -27.710   7.681  0.00  0.00    +0.012 A 
ENDBRANCH  14  15
ENDBRANCH  12  14
ENDBRANCH   1  10
BRANCH   1  21
ATOM     20  C   LIG    1       25.597 -21.161   9.282  0.00  0.00    +0.197 C 
ATOM     21  O   LIG    1       24.913 -22.014   8.382  0.00  0.00    -0.349 OA
ENDBRANCH   1  21
BRANCH   4  22
ATOM     22  C   LIG    1       23.840 -19.532   3.622  0.00  0.00    +0.351 C 
ATOM     23  O   LIG    1       22.909 -18.764   3.793  0.00  0.00    -0.244 OA
BRANCH  22  24
ATOM     24  O   LIG    1       23.842 -20.389   2.594  0.00  0.00    -0.476 OA
ATOM     25  H   LIG    1       22.918 -20.537   2.311  0.00  0.00    +0.295 HD
ENDBRANCH  22  24
ENDBRANCH   4  22
BRANCH   5  26
ATOM     26  C   LIG    1       26.310 -17.819   3.202  0.00  0.00    +0.268 C 
BRANCH  26  27
ATOM     27  O   LIG    1       27.242 -16.814   3.641  0.00  0.00    -0.446 OA
BRANCH  27  28
ATOM     28  C   LIG    1       26.816 -15.532   3.611  0.00  0.00    +0.398 C 
ATOM     29  O   LIG    1       25.668 -15.151   3.461  0.00  0.00    -0.227 OA
ATOM     30  N   LIG    1       27.858 -14.689   3.805  0.00  0.00    -0.295 N 
ATOM     31  H   LIG    1       27.672 -13.700   3.890  0.00  0.00    +0.148 HD
ATOM     32  H   LIG    1       28.766 -15.053   4.049  0.00  0.00    +0.148 HD
ENDBRANCH  27  28
ENDBRANCH  26  27
ENDBRANCH   5  26
TORSDOF 9
ENDMDL
