MODEL 1
REMARK VINA RESULT:       2.4      0.000      0.000
REMARK  Name = *****
REMARK                            x       y       z     vdW  Elec       q    Type
REMARK                         _______ _______ _______ _____ _____    ______ ____
ROOT
ATOM      1  C   LIG    1       20.904 -19.606   3.889  0.00  0.00    +0.189 C 
ENDROOT
BRANCH   1   2
ATOM      2  O   LIG    1       19.563 -20.117   3.925  0.00  0.00    -0.385 OA
ATOM      3  H   LIG    1       19.496 -20.787   3.215  0.00  0.00    +0.210 HD
ENDBRANCH   1   2
BRANCH   1   4
ATOM      4  C   LIG    1       21.714 -20.099   5.108  0.00  0.00    +0.263 C 
BRANCH   4   5
ATOM      5  O   LIG    1       22.727 -21.062   4.781  0.00  0.00    -0.488 OA
BRANCH   5  10
ATOM      6  C   LIG    1       27.524 -20.270   6.209  0.00  0.00    +0.215 C 
ATOM      7  O   LIG    1       27.466 -20.095   4.831  0.00  0.00    -0.448 OA
ATOM      8  C   LIG    1       26.248 -20.218   4.198  0.00  0.00    +0.143 A 
ATOM      9  C   LIG    1       25.052 -20.517   4.859  0.00  0.00    +0.105 A 
ATOM     10  C   LIG    1       23.860 -20.660   4.123  0.00  0.00    +0.135 A 
ATOM     11  C   LIG    1       23.903 -20.413   2.742  0.00  0.00    +0.046 A 
ATOM     12  C   LIG    1       25.094 -20.090   2.094  0.00  0.00    +0.007 A 
ATOM     13  C   LIG    1       25.106 -20.639   6.336  0.00  0.00    +0.197 C 
ATOM     14  O   LIG    1       24.139 -20.776   7.061  0.00  0.00    -0.287 OA
ATOM     15  C   LIG    1       26.274 -20.010   2.818  0.00  0.00    +0.047 A 
ATOM     16  C   LIG    1       26.455 -20.529   6.952  0.00  0.00    +0.105 C 
BRANCH   6  18
ATOM     17  O   LIG    1       29.415 -19.070   7.062  0.00  0.00    -0.242 OA
ATOM     18  C   LIG    1       28.869 -20.115   6.814  0.00  0.00    +0.373 C 
BRANCH  18  19
ATOM     19  O   LIG    1       29.475 -21.303   7.056  0.00  0.00    -0.475 OA
ATOM     20  H   LIG    1       29.564 -21.311   8.025  0.00  0.00    +0.295 HD
ENDBRANCH  18  19
ENDBRANCH   6  18
ENDBRANCH   5  10
ENDBRANCH   4   5
ENDBRANCH   1   4
BRANCH   1  21
ATOM     21  C   LIG    1       20.892 -18.071   3.825  0.00  0.00    +0.263 C 
BRANCH  21  22
ATOM     22  O   LIG    1       22.238 -17.572   3.781  0.00  0.00    -0.488 OA
BRANCH  22  23
ATOM     23  C   LIG    1       22.521 -16.493   4.584  0.00  0.00    +0.135 A 
ATOM     24  C   LIG    1       23.746 -15.828   4.391  0.00  0.00    +0.105 A 
ATOM     25  C   LIG    1       24.015 -14.617   5.038  0.00  0.00    +0.143 A 
ATOM     26  O   LIG    1       25.163 -13.888   4.826  0.00  0.00    -0.448 OA
ATOM     27  C   LIG    1       26.021 -14.314   3.823  0.00  0.00    +0.215 C 
ATOM     28  C   LIG    1       25.904 -15.476   3.170  0.00  0.00    +0.105 C 
ATOM     29  C   LIG    1       23.110 -14.104   5.962  0.00  0.00    +0.047 A 
ATOM     30  C   LIG    1       21.924 -14.791   6.218  0.00  0.00    +0.007 A 
ATOM     31  C   LIG    1       24.844 -16.408   3.593  0.00  0.00    +0.197 C 
ATOM     32  O   LIG    1       24.957 -17.607   3.369  0.00  0.00    -0.287 OA
ATOM     33  C   LIG    1       21.619 -15.963   5.517  0.00  0.00    +0.046 A 
BRANCH  27  34
ATOM     34  C   LIG    1       27.206 -13.464   3.490  0.00  0.00    +0.373 C 
ATOM     35  O   LIG    1       27.726 -12.680   4.237  0.00  0.00    -0.242 OA
BRANCH  34  36
ATOM     36  O   LIG    1       27.626 -13.677   2.216  0.00  0.00    -0.475 OA
ATOM     37  H   LIG    1       27.295 -13.013   1.585  0.00  0.00    +0.295 HD
ENDBRANCH  34  36
ENDBRANCH  27  34
ENDBRANCH  22  23
ENDBRANCH  21  22
ENDBRANCH   1  21
TORSDOF 11
ENDMDL
MODEL 2
REMARK VINA RESULT:       2.8      1.768      4.614
REMARK  Name = *****
REMARK                            x       y       z     vdW  Elec       q    Type
REMARK                         _______ _______ _______ _____ _____    ______ ____
ROOT
ATOM      1  C   LIG    1       23.734 -21.572   5.604  0.00  0.00    +0.189 C 
ENDROOT
BRANCH   1   2
ATOM      2  O   LIG    1       23.395 -21.015   6.883  0.00  0.00    -0.385 OA
ATOM      3  H   LIG    1       23.848 -20.150   6.944  0.00  0.00    +0.210 HD
ENDBRANCH   1   2
BRANCH   1   4
ATOM      4  C   LIG    1       25.263 -21.556   5.385  0.00  0.00    +0.263 C 
BRANCH   4   5
ATOM      5  O   LIG    1       25.713 -20.510   4.510  0.00  0.00    -0.488 OA
BRANCH   5  10
ATOM      6  C   LIG    1       27.245 -15.769   3.584  0.00  0.00    +0.215 C 
ATOM      7  O   LIG    1       28.200 -16.362   4.404  0.00  0.00    -0.448 OA
ATOM      8  C   LIG    1       28.031 -17.680   4.770  0.00  0.00    +0.143 A 
ATOM      9  C   LIG    1       26.947 -18.469   4.371  0.00  0.00    +0.105 A 
ATOM     10  C   LIG    1       26.840 -19.797   4.826  0.00  0.00    +0.135 A 
ATOM     11  C   LIG    1       27.885 -20.313   5.609  0.00  0.00    +0.046 A 
ATOM     12  C   LIG    1       28.975 -19.528   5.981  0.00  0.00    +0.007 A 
ATOM     13  C   LIG    1       25.966 -17.853   3.445  0.00  0.00    +0.197 C 
ATOM     14  O   LIG    1       25.042 -18.441   2.916  0.00  0.00    -0.287 OA
ATOM     15  C   LIG    1       29.042 -18.203   5.578  0.00  0.00    +0.047 A 
ATOM     16  C   LIG    1       26.187 -16.419   3.117  0.00  0.00    +0.105 C 
BRANCH   6  18
ATOM     17  O   LIG    1       27.966 -13.514   3.962  0.00  0.00    -0.242 OA
ATOM     18  C   LIG    1       27.502 -14.351   3.231  0.00  0.00    +0.373 C 
BRANCH  18  19
ATOM     19  O   LIG    1       27.133 -14.054   1.961  0.00  0.00    -0.475 OA
ATOM     20  H   LIG    1       27.313 -14.881   1.480  0.00  0.00    +0.295 HD
ENDBRANCH  18  19
ENDBRANCH   6  18
ENDBRANCH   5  10
ENDBRANCH   4   5
ENDBRANCH   1   4
BRANCH   1  21
ATOM     21  C   LIG    1       23.013 -20.814   4.479  0.00  0.00    +0.263 C 
BRANCH  21  22
ATOM     22  O   LIG    1       21.650 -20.560   4.855  0.00  0.00    -0.488 OA
BRANCH  22  23
ATOM     23  C   LIG    1       21.002 -19.554   4.180  0.00  0.00    +0.135 A 
ATOM     24  C   LIG    1       21.542 -18.256   4.249  0.00  0.00    +0.105 A 
ATOM     25  C   LIG    1       21.047 -17.228   3.439  0.00  0.00    +0.143 A 
ATOM     26  O   LIG    1       21.588 -15.963   3.411  0.00  0.00    -0.448 OA
ATOM     27  C   LIG    1       22.760 -15.748   4.120  0.00  0.00    +0.215 C 
ATOM     28  C   LIG    1       23.304 -16.629   4.970  0.00  0.00    +0.105 C 
ATOM     29  C   LIG    1       19.942 -17.454   2.623  0.00  0.00    +0.047 A 
ATOM     30  C   LIG    1       19.351 -18.716   2.600  0.00  0.00    +0.007 A 
ATOM     31  C   LIG    1       22.573 -17.879   5.236  0.00  0.00    +0.197 C 
ATOM     32  O   LIG    1       22.761 -18.488   6.283  0.00  0.00    -0.287 OA
ATOM     33  C   LIG    1       19.891 -19.765   3.353  0.00  0.00    +0.046 A 
BRANCH  27  34
ATOM     34  C   LIG    1       23.433 -14.418   3.998  0.00  0.00    +0.373 C 
ATOM     35  O   LIG    1       24.100 -13.900   4.852  0.00  0.00    -0.242 OA
BRANCH  34  36
ATOM     36  O   LIG    1       23.188 -13.847   2.790  0.00  0.00    -0.475 OA
ATOM     37  H   LIG    1       22.291 -14.027   2.454  0.00  0.00    +0.295 HD
ENDBRANCH  34  36
ENDBRANCH  27  34
ENDBRANCH  22  23
ENDBRANCH  21  22
ENDBRANCH   1  21
TORSDOF 11
ENDMDL
MODEL 3
REMARK VINA RESULT:       3.6      1.786      5.632
REMARK  Name = *****
REMARK                            x       y       z     vdW  Elec       q    Type
REMARK                         _______ _______ _______ _____ _____    ______ ____
ROOT
ATOM      1  C   LIG    1       28.712 -14.320   4.586  0.00  0.00    +0.189 C 
ENDROOT
BRANCH   1   2
ATOM      2  O   LIG    1       29.313 -13.790   3.394  0.00  0.00    -0.385 OA
ATOM      3  H   LIG    1       29.149 -14.440   2.682  0.00  0.00    +0.210 HD
ENDBRANCH   1   2
BRANCH   1   4
ATOM      4  C   LIG    1       28.080 -15.703   4.315  0.00  0.00    +0.263 C 
BRANCH   4   5
ATOM      5  O   LIG    1       29.007 -16.795   4.414  0.00  0.00    -0.488 OA
BRANCH   5  10
ATOM      6  C   LIG    1       25.318 -20.265   4.245  0.00  0.00    +0.215 C 
ATOM      7  O   LIG    1       26.186 -20.630   5.268  0.00  0.00    -0.448 OA
ATOM      8  C   LIG    1       27.263 -19.816   5.545  0.00  0.00    +0.143 A 
ATOM      9  C   LIG    1       27.547 -18.634   4.852  0.00  0.00    +0.105 A 
ATOM     10  C   LIG    1       28.694 -17.886   5.182  0.00  0.00    +0.135 A 
ATOM     11  C   LIG    1       29.475 -18.317   6.265  0.00  0.00    +0.046 A 
ATOM     12  C   LIG    1       29.170 -19.481   6.968  0.00  0.00    +0.007 A 
ATOM     13  C   LIG    1       26.584 -18.215   3.805  0.00  0.00    +0.197 C 
ATOM     14  O   LIG    1       26.625 -17.159   3.202  0.00  0.00    -0.287 OA
ATOM     15  C   LIG    1       28.073 -20.245   6.598  0.00  0.00    +0.047 A 
ATOM     16  C   LIG    1       25.464 -19.154   3.533  0.00  0.00    +0.105 C 
BRANCH   6  18
ATOM     17  O   LIG    1       23.787 -21.569   2.942  0.00  0.00    -0.242 OA
ATOM     18  C   LIG    1       24.181 -21.189   4.014  0.00  0.00    +0.373 C 
BRANCH  18  19
ATOM     19  O   LIG    1       23.576 -21.572   5.166  0.00  0.00    -0.475 OA
ATOM     20  H   LIG    1       24.133 -22.309   5.472  0.00  0.00    +0.295 HD
ENDBRANCH  18  19
ENDBRANCH   6  18
ENDBRANCH   5  10
ENDBRANCH   4   5
ENDBRANCH   1   4
BRANCH   1  21
ATOM     21  C   LIG    1       27.668 -13.340   5.142  0.00  0.00    +0.263 C 
BRANCH  21  22
ATOM     22  O   LIG    1       26.695 -13.035   4.130  0.00  0.00    -0.488 OA
BRANCH  22  23
ATOM     23  C   LIG    1       25.389 -12.922   4.545  0.00  0.00    +0.135 A 
ATOM     24  C   LIG    1       24.544 -14.034   4.376  0.00  0.00    +0.105 A 
ATOM     25  C   LIG    1       23.265 -14.056   4.943  0.00  0.00    +0.143 A 
ATOM     26  O   LIG    1       22.427 -15.146   4.874  0.00  0.00    -0.448 OA
ATOM     27  C   LIG    1       22.938 -16.317   4.333  0.00  0.00    +0.215 C 
ATOM     28  C   LIG    1       24.121 -16.412   3.714  0.00  0.00    +0.105 C 
ATOM     29  C   LIG    1       22.774 -12.931   5.600  0.00  0.00    +0.047 A 
ATOM     30  C   LIG    1       23.575 -11.795   5.711  0.00  0.00    +0.007 A 
ATOM     31  C   LIG    1       24.904 -15.180   3.518  0.00  0.00    +0.197 C 
ATOM     32  O   LIG    1       25.726 -15.114   2.612  0.00  0.00    -0.287 OA
ATOM     33  C   LIG    1       24.882 -11.798   5.210  0.00  0.00    +0.046 A 
BRANCH  27  34
ATOM     34  C   LIG    1       22.088 -17.547   4.368  0.00  0.00    +0.373 C 
ATOM     35  O   LIG    1       21.223 -17.812   3.577  0.00  0.00    -0.242 OA
BRANCH  34  36
ATOM     36  O   LIG    1       22.406 -18.339   5.424  0.00  0.00    -0.475 OA
ATOM     37  H   LIG    1       22.146 -17.959   6.283  0.00  0.00    +0.295 HD
ENDBRANCH  34  36
ENDBRANCH  27  34
ENDBRANCH  22  23
ENDBRANCH  21  22
ENDBRANCH   1  21
TORSDOF 11
ENDMDL
