MODEL 1
REMARK VINA RESULT:      -4.7      0.000      0.000
REMARK  Name = *****
REMARK                            x       y       z     vdW  Elec       q    Type
REMARK                         _______ _______ _______ _____ _____    ______ ____
ROOT
ATOM      1  C   LIG    1       26.138 -20.093   5.265  0.00  0.00    +0.177 C 
ENDROOT
BRANCH   1   2
ATOM      2  O   LIG    1       26.793 -20.176   3.986  0.00  0.00    -0.387 OA
ATOM      3  H   LIG    1       26.536 -19.380   3.477  0.00  0.00    +0.210 HD
ENDBRANCH   1   2
BRANCH   1   4
ATOM      4  C   LIG    1       24.925 -21.064   5.229  0.00  0.00    +0.185 C 
BRANCH   4   5
ATOM      5  O   LIG    1       24.243 -21.174   6.496  0.00  0.00    -0.386 OA
ATOM      6  H   LIG    1       23.295 -21.330   6.290  0.00  0.00    +0.210 HD
ENDBRANCH   4   5
BRANCH   4   7
ATOM      7  C   LIG    1       23.839 -20.756   4.191  0.00  0.00    +0.254 C 
BRANCH   7   9
ATOM      8  O   LIG    1       22.219 -19.288   5.250  0.00  0.00    -0.248 OA
ATOM      9  C   LIG    1       22.524 -20.399   4.874  0.00  0.00    +0.336 C 
BRANCH   9  10
ATOM     10  O   LIG    1       21.725 -21.488   5.022  0.00  0.00    -0.479 OA
ATOM     11  H   LIG    1       21.873 -21.830   5.939  0.00  0.00    +0.295 HD
ENDBRANCH   9  10
ENDBRANCH   7   9
BRANCH   7  12
ATOM     12  O   LIG    1       24.225 -19.585   3.418  0.00  0.00    -0.378 OA
ATOM     13  H   LIG    1       23.598 -18.878   3.692  0.00  0.00    +0.211 HD
ENDBRANCH   7  12
ENDBRANCH   4   7
ENDBRANCH   1   4
BRANCH   1  14
ATOM     14  C   LIG    1       27.143 -20.319   6.425  0.00  0.00    +0.176 C 
BRANCH  14  15
ATOM     15  O   LIG    1       26.839 -21.569   7.061  0.00  0.00    -0.387 OA
ATOM     16  H   LIG    1       27.670 -22.092   7.081  0.00  0.00    +0.210 HD
ENDBRANCH  14  15
BRANCH  14  17
ATOM     17  C   LIG    1       28.621 -20.233   5.933  0.00  0.00    +0.171 C 
BRANCH  17  18
ATOM     18  O   LIG    1       29.464 -21.099   6.715  0.00  0.00    -0.387 OA
ATOM     19  H   LIG    1       29.599 -21.919   6.202  0.00  0.00    +0.210 HD
ENDBRANCH  17  18
BRANCH  17  20
ATOM     20  C   LIG    1       29.192 -18.809   6.000  0.00  0.00    +0.190 C 
BRANCH  20  21
ATOM     21  O   LIG    1       28.979 -18.131   4.764  0.00  0.00    -0.392 OA
ATOM     22  H   LIG    1       28.524 -18.762   4.171  0.00  0.00    +0.209 HD
ENDBRANCH  20  21
ENDBRANCH  17  20
ENDBRANCH  14  17
ENDBRANCH   1  14
TORSDOF 13
ENDMDL
MODEL 2
REMARK VINA RESULT:      -3.6      1.462      5.285
REMARK  Name = *****
REMARK                            x       y       z     vdW  Elec       q    Type
REMARK                         _______ _______ _______ _____ _____    ______ ____
ROOT
ATOM      1  C   LIG    1       25.758 -19.776   4.004  0.00  0.00    +0.177 C 
ENDROOT
BRANCH   1   2
ATOM      2  O   LIG    1       25.991 -18.431   3.548  0.00  0.00    -0.387 OA
ATOM      3  H   LIG    1       25.643 -17.827   4.236  0.00  0.00    +0.210 HD
ENDBRANCH   1   2
BRANCH   1   4
ATOM      4  C   LIG    1       26.372 -19.897   5.427  0.00  0.00    +0.185 C 
BRANCH   4   5
ATOM      5  O   LIG    1       25.655 -20.810   6.283  0.00  0.00    -0.386 OA
ATOM      6  H   LIG    1       25.446 -20.315   7.105  0.00  0.00    +0.210 HD
ENDBRANCH   4   5
BRANCH   4   7
ATOM      7  C   LIG    1       27.845 -20.321   5.496  0.00  0.00    +0.254 C 
BRANCH   7   9
ATOM      8  O   LIG    1       29.368 -18.966   6.817  0.00  0.00    -0.248 OA
ATOM      9  C   LIG    1       28.739 -19.123   5.792  0.00  0.00    +0.336 C 
BRANCH   9  10
ATOM     10  O   LIG    1       28.743 -18.235   4.764  0.00  0.00    -0.479 OA
ATOM     11  H   LIG    1       28.339 -17.398   5.106  0.00  0.00    +0.295 HD
ENDBRANCH   9  10
ENDBRANCH   7   9
BRANCH   7  12
ATOM     12  O   LIG    1       28.030 -21.249   6.602  0.00  0.00    -0.378 OA
ATOM     13  H   LIG    1       27.581 -20.827   7.368  0.00  0.00    +0.211 HD
ENDBRANCH   7  12
ENDBRANCH   4   7
ENDBRANCH   1   4
BRANCH   1  14
ATOM     14  C   LIG    1       24.258 -20.155   3.887  0.00  0.00    +0.176 C 
BRANCH  14  15
ATOM     15  O   LIG    1       24.125 -21.572   4.079  0.00  0.00    -0.387 OA
ATOM     16  H   LIG    1       23.746 -21.707   4.974  0.00  0.00    +0.210 HD
ENDBRANCH  14  15
BRANCH  14  17
ATOM     17  C   LIG    1       23.375 -19.326   4.870  0.00  0.00    +0.171 C 
BRANCH  17  18
ATOM     18  O   LIG    1       22.759 -20.188   5.844  0.00  0.00    -0.387 OA
ATOM     19  H   LIG    1       22.264 -20.875   5.358  0.00  0.00    +0.210 HD
ENDBRANCH  17  18
BRANCH  17  20
ATOM     20  C   LIG    1       22.272 -18.530   4.158  0.00  0.00    +0.190 C 
BRANCH  20  21
ATOM     21  O   LIG    1       22.017 -17.309   4.849  0.00  0.00    -0.392 OA
ATOM     22  H   LIG    1       21.129 -17.009   4.573  0.00  0.00    +0.209 HD
ENDBRANCH  20  21
ENDBRANCH  17  20
ENDBRANCH  14  17
ENDBRANCH   1  14
TORSDOF 13
ENDMDL
MODEL 3
REMARK VINA RESULT:      -3.3      6.220      7.518
REMARK  Name = *****
REMARK                            x       y       z     vdW  Elec       q    Type
REMARK                         _______ _______ _______ _____ _____    ______ ____
ROOT
ATOM      1  C   LIG    1       26.483 -13.577   5.131  0.00  0.00    +0.177 C 
ENDROOT
BRANCH   1   2
ATOM      2  O   LIG    1       27.168 -13.300   6.367  0.00  0.00    -0.387 OA
ATOM      3  H   LIG    1       26.859 -12.424   6.678  0.00  0.00    +0.210 HD
ENDBRANCH   1   2
BRANCH   1   4
ATOM      4  C   LIG    1       25.120 -12.833   5.178  0.00  0.00    +0.185 C 
BRANCH   4   5
ATOM      5  O   LIG    1       25.152 -11.631   5.977  0.00  0.00    -0.386 OA
ATOM      6  H   LIG    1       24.580 -11.800   6.758  0.00  0.00    +0.210 HD
ENDBRANCH   4   5
BRANCH   4   7
ATOM      7  C   LIG    1       24.520 -12.425   3.827  0.00  0.00    +0.254 C 
BRANCH   7   9
ATOM      8  O   LIG    1       23.562 -14.654   3.702  0.00  0.00    -0.248 OA
ATOM      9  C   LIG    1       23.862 -13.619   3.146  0.00  0.00    +0.336 C 
BRANCH   9  10
ATOM     10  O   LIG    1       23.655 -13.390   1.823  0.00  0.00    -0.479 OA
ATOM     11  H   LIG    1       22.704 -13.601   1.641  0.00  0.00    +0.295 HD
ENDBRANCH   9  10
ENDBRANCH   7   9
BRANCH   7  12
ATOM     12  O   LIG    1       23.464 -11.447   4.039  0.00  0.00    -0.378 OA
ATOM     13  H   LIG    1       22.941 -11.795   4.796  0.00  0.00    +0.211 HD
ENDBRANCH   7  12
ENDBRANCH   4   7
ENDBRANCH   1   4
BRANCH   1  14
ATOM     14  C   LIG    1       27.381 -13.253   3.908  0.00  0.00    +0.176 C 
BRANCH  14  15
ATOM     15  O   LIG    1       28.657 -12.795   4.381  0.00  0.00    -0.387 OA
ATOM     16  H   LIG    1       28.867 -13.310   5.190  0.00  0.00    +0.210 HD
ENDBRANCH  14  15
BRANCH  14  17
ATOM     17  C   LIG    1       27.497 -14.471   2.939  0.00  0.00    +0.171 C 
BRANCH  17  18
ATOM     18  O   LIG    1       26.617 -14.304   1.813  0.00  0.00    -0.387 OA
ATOM     19  H   LIG    1       26.934 -14.892   1.101  0.00  0.00    +0.210 HD
ENDBRANCH  17  18
BRANCH  17  20
ATOM     20  C   LIG    1       27.171 -15.808   3.617  0.00  0.00    +0.190 C 
BRANCH  20  21
ATOM     21  O   LIG    1       26.050 -16.424   2.986  0.00  0.00    -0.392 OA
ATOM     22  H   LIG    1       25.281 -15.841   3.146  0.00  0.00    +0.209 HD
ENDBRANCH  20  21
ENDBRANCH  17  20
ENDBRANCH  14  17
ENDBRANCH   1  14
TORSDOF 13
ENDMDL
MODEL 4
REMARK VINA RESULT:      -3.2      6.286      7.359
REMARK  Name = *****
REMARK                            x       y       z     vdW  Elec       q    Type
REMARK                         _______ _______ _______ _____ _____    ______ ____
ROOT
ATOM      1  C   LIG    1       25.999 -14.803   2.983  0.00  0.00    +0.177 C 
ENDROOT
BRANCH   1   2
ATOM      2  O   LIG    1       26.534 -16.101   3.301  0.00  0.00    -0.387 OA
ATOM      3  H   LIG    1       26.831 -16.505   2.459  0.00  0.00    +0.210 HD
ENDBRANCH   1   2
BRANCH   1   4
ATOM      4  C   LIG    1       25.121 -14.356   4.185  0.00  0.00    +0.185 C 
BRANCH   4   5
ATOM      5  O   LIG    1       25.803 -13.466   5.093  0.00  0.00    -0.386 OA
ATOM      6  H   LIG    1       26.206 -14.031   5.788  0.00  0.00    +0.210 HD
ENDBRANCH   4   5
BRANCH   4   7
ATOM      7  C   LIG    1       23.794 -13.670   3.838  0.00  0.00    +0.254 C 
BRANCH   7   9
ATOM      8  O   LIG    1       23.879 -11.682   5.232  0.00  0.00    -0.248 OA
ATOM      9  C   LIG    1       23.869 -12.175   4.125  0.00  0.00    +0.336 C 
BRANCH   9  10
ATOM     10  O   LIG    1       23.915 -11.447   2.978  0.00  0.00    -0.479 OA
ATOM     11  H   LIG    1       23.389 -10.623   3.140  0.00  0.00    +0.295 HD
ENDBRANCH   9  10
ENDBRANCH   7   9
BRANCH   7  12
ATOM     12  O   LIG    1       23.540 -13.797   2.411  0.00  0.00    -0.378 OA
ATOM     13  H   LIG    1       24.313 -14.292   2.057  0.00  0.00    +0.211 HD
ENDBRANCH   7  12
ENDBRANCH   4   7
ENDBRANCH   1   4
BRANCH   1  14
ATOM     14  C   LIG    1       27.125 -13.818   2.574  0.00  0.00    +0.176 C 
BRANCH  14  15
ATOM     15  O   LIG    1       26.594 -12.484   2.574  0.00  0.00    -0.387 OA
ATOM     16  H   LIG    1       25.615 -12.564   2.592  0.00  0.00    +0.210 HD
ENDBRANCH  14  15
BRANCH  14  17
ATOM     17  C   LIG    1       28.383 -13.968   3.485  0.00  0.00    +0.171 C 
BRANCH  17  18
ATOM     18  O   LIG    1       28.102 -14.844   4.591  0.00  0.00    -0.387 OA
ATOM     19  H   LIG    1       28.500 -15.712   4.388  0.00  0.00    +0.210 HD
ENDBRANCH  17  18
BRANCH  17  20
ATOM     20  C   LIG    1       28.882 -12.627   4.041  0.00  0.00    +0.190 C 
BRANCH  20  21
ATOM     21  O   LIG    1       28.350 -12.404   5.347  0.00  0.00    -0.392 OA
ATOM     22  H   LIG    1       29.023 -12.717   5.983  0.00  0.00    +0.209 HD
ENDBRANCH  20  21
ENDBRANCH  17  20
ENDBRANCH  14  17
ENDBRANCH   1  14
TORSDOF 13
ENDMDL
MODEL 5
REMARK VINA RESULT:      -3.1      6.386      7.598
REMARK  Name = *****
REMARK                            x       y       z     vdW  Elec       q    Type
REMARK                         _______ _______ _______ _____ _____    ______ ____
ROOT
ATOM      1  C   LIG    1       27.284 -13.956   2.729  0.00  0.00    +0.177 C 
ENDROOT
BRANCH   1   2
ATOM      2  O   LIG    1       26.824 -15.306   2.930  0.00  0.00    -0.387 OA
ATOM      3  H   LIG    1       26.588 -15.665   2.049  0.00  0.00    +0.210 HD
ENDBRANCH   1   2
BRANCH   1   4
ATOM      4  C   LIG    1       26.042 -13.025   2.818  0.00  0.00    +0.185 C 
BRANCH   4   5
ATOM      5  O   LIG    1       26.039 -11.981   1.821  0.00  0.00    -0.386 OA
ATOM      6  H   LIG    1       25.129 -11.949   1.454  0.00  0.00    +0.210 HD
ENDBRANCH   4   5
BRANCH   4   7
ATOM      7  C   LIG    1       24.673 -13.707   2.719  0.00  0.00    +0.254 C 
BRANCH   7   9
ATOM      8  O   LIG    1       23.368 -14.648   4.539  0.00  0.00    -0.248 OA
ATOM      9  C   LIG    1       23.968 -13.705   4.070  0.00  0.00    +0.336 C 
BRANCH   9  10
ATOM     10  O   LIG    1       24.087 -12.504   4.695  0.00  0.00    -0.479 OA
ATOM     11  H   LIG    1       23.179 -12.108   4.730  0.00  0.00    +0.295 HD
ENDBRANCH   9  10
ENDBRANCH   7   9
BRANCH   7  12
ATOM     12  O   LIG    1       23.818 -12.952   1.815  0.00  0.00    -0.378 OA
ATOM     13  H   LIG    1       23.675 -13.544   1.043  0.00  0.00    +0.211 HD
ENDBRANCH   7  12
ENDBRANCH   4   7
ENDBRANCH   1   4
BRANCH   1  14
ATOM     14  C   LIG    1       28.450 -13.612   3.692  0.00  0.00    +0.176 C 
BRANCH  14  15
ATOM     15  O   LIG    1       29.473 -12.929   2.951  0.00  0.00    -0.387 OA
ATOM     16  H   LIG    1       30.203 -13.569   2.809  0.00  0.00    +0.210 HD
ENDBRANCH  14  15
BRANCH  14  17
ATOM     17  C   LIG    1       27.956 -12.802   4.930  0.00  0.00    +0.171 C 
BRANCH  17  18
ATOM     18  O   LIG    1       29.004 -11.948   5.425  0.00  0.00    -0.387 OA
ATOM     19  H   LIG    1       28.723 -11.612   6.297  0.00  0.00    +0.210 HD
ENDBRANCH  17  18
BRANCH  17  20
ATOM     20  C   LIG    1       27.478 -13.700   6.080  0.00  0.00    +0.190 C 
BRANCH  20  21
ATOM     21  O   LIG    1       26.162 -13.326   6.485  0.00  0.00    -0.392 OA
ATOM     22  H   LIG    1       26.109 -12.353   6.410  0.00  0.00    +0.209 HD
ENDBRANCH  20  21
ENDBRANCH  17  20
ENDBRANCH  14  17
ENDBRANCH   1  14
TORSDOF 13
ENDMDL
MODEL 6
REMARK VINA RESULT:      -3.0      1.274      5.436
REMARK  Name = *****
REMARK                            x       y       z     vdW  Elec       q    Type
REMARK                         _______ _______ _______ _____ _____    ______ ____
ROOT
ATOM      1  C   LIG    1       24.576 -20.184   5.730  0.00  0.00    +0.177 C 
ENDROOT
BRANCH   1   2
ATOM      2  O   LIG    1       24.336 -20.983   6.904  0.00  0.00    -0.387 OA
ATOM      3  H   LIG    1       23.600 -20.562   7.394  0.00  0.00    +0.210 HD
ENDBRANCH   1   2
BRANCH   1   4
ATOM      4  C   LIG    1       26.018 -20.497   5.242  0.00  0.00    +0.185 C 
BRANCH   4   5
ATOM      5  O   LIG    1       26.169 -20.407   3.809  0.00  0.00    -0.386 OA
ATOM      6  H   LIG    1       25.711 -21.189   3.431  0.00  0.00    +0.210 HD
ENDBRANCH   4   5
BRANCH   4   7
ATOM      7  C   LIG    1       27.139 -19.637   5.839  0.00  0.00    +0.254 C 
BRANCH   7   9
ATOM      8  O   LIG    1       27.952 -21.572   7.062  0.00  0.00    -0.248 OA
ATOM      9  C   LIG    1       28.183 -20.510   6.524  0.00  0.00    +0.336 C 
BRANCH   9  10
ATOM     10  O   LIG    1       29.419 -19.949   6.469  0.00  0.00    -0.479 OA
ATOM     11  H   LIG    1       29.644 -19.659   7.389  0.00  0.00    +0.295 HD
ENDBRANCH   9  10
ENDBRANCH   7   9
BRANCH   7  12
ATOM     12  O   LIG    1       27.834 -18.936   4.770  0.00  0.00    -0.378 OA
ATOM     13  H   LIG    1       27.157 -18.349   4.366  0.00  0.00    +0.211 HD
ENDBRANCH   7  12
ENDBRANCH   4   7
ENDBRANCH   1   4
BRANCH   1  14
ATOM     14  C   LIG    1       23.454 -20.384   4.677  0.00  0.00    +0.176 C 
BRANCH  14  15
ATOM     15  O   LIG    1       22.299 -20.931   5.333  0.00  0.00    -0.387 OA
ATOM     16  H   LIG    1       22.249 -21.880   5.086  0.00  0.00    +0.210 HD
ENDBRANCH  14  15
BRANCH  14  17
ATOM     17  C   LIG    1       23.144 -19.063   3.907  0.00  0.00    +0.171 C 
BRANCH  17  18
ATOM     18  O   LIG    1       24.297 -18.202   3.899  0.00  0.00    -0.387 OA
ATOM     19  H   LIG    1       24.192 -17.577   3.156  0.00  0.00    +0.210 HD
ENDBRANCH  17  18
BRANCH  17  20
ATOM     20  C   LIG    1       21.961 -18.287   4.503  0.00  0.00    +0.190 C 
BRANCH  20  21
ATOM     21  O   LIG    1       20.776 -18.533   3.747  0.00  0.00    -0.392 OA
ATOM     22  H   LIG    1       20.965 -18.255   2.829  0.00  0.00    +0.209 HD
ENDBRANCH  20  21
ENDBRANCH  17  20
ENDBRANCH  14  17
ENDBRANCH   1  14
TORSDOF 13
ENDMDL
MODEL 7
REMARK VINA RESULT:      -2.9      4.194      6.419
REMARK  Name = *****
REMARK                            x       y       z     vdW  Elec       q    Type
REMARK                         _______ _______ _______ _____ _____    ______ ____
ROOT
ATOM      1  C   LIG    1       25.634 -16.536   3.095  0.00  0.00    +0.177 C 
ENDROOT
BRANCH   1   2
ATOM      2  O   LIG    1       24.514 -16.414   3.990  0.00  0.00    -0.387 OA
ATOM      3  H   LIG    1       24.868 -16.140   4.862  0.00  0.00    +0.210 HD
ENDBRANCH   1   2
BRANCH   1   4
ATOM      4  C   LIG    1       26.495 -15.251   3.251  0.00  0.00    +0.185 C 
BRANCH   4   5
ATOM      5  O   LIG    1       26.637 -14.505   2.023  0.00  0.00    -0.386 OA
ATOM      6  H   LIG    1       27.014 -13.632   2.269  0.00  0.00    +0.210 HD
ENDBRANCH   4   5
BRANCH   4   7
ATOM      7  C   LIG    1       26.024 -14.242   4.305  0.00  0.00    +0.254 C 
BRANCH   7   9
ATOM      8  O   LIG    1       28.146 -13.061   4.257  0.00  0.00    -0.248 OA
ATOM      9  C   LIG    1       27.208 -13.486   4.896  0.00  0.00    +0.336 C 
BRANCH   9  10
ATOM     10  O   LIG    1       27.092 -13.347   6.243  0.00  0.00    -0.479 OA
ATOM     11  H   LIG    1       26.143 -13.131   6.428  0.00  0.00    +0.295 HD
ENDBRANCH   9  10
ENDBRANCH   7   9
BRANCH   7  12
ATOM     12  O   LIG    1       25.177 -13.240   3.674  0.00  0.00    -0.378 OA
ATOM     13  H   LIG    1       25.262 -13.405   2.708  0.00  0.00    +0.211 HD
ENDBRANCH   7  12
ENDBRANCH   4   7
ENDBRANCH   1   4
BRANCH   1  14
ATOM     14  C   LIG    1       26.384 -17.876   3.313  0.00  0.00    +0.176 C 
BRANCH  14  15
ATOM     15  O   LIG    1       27.628 -17.605   3.975  0.00  0.00    -0.387 OA
ATOM     16  H   LIG    1       27.556 -16.710   4.370  0.00  0.00    +0.210 HD
ENDBRANCH  14  15
BRANCH  14  17
ATOM     17  C   LIG    1       25.503 -18.911   4.079  0.00  0.00    +0.171 C 
BRANCH  17  18
ATOM     18  O   LIG    1       26.297 -20.036   4.498  0.00  0.00    -0.387 OA
ATOM     19  H   LIG    1       26.193 -20.736   3.826  0.00  0.00    +0.210 HD
ENDBRANCH  17  18
BRANCH  17  20
ATOM     20  C   LIG    1       24.326 -19.431   3.243  0.00  0.00    +0.190 C 
BRANCH  20  21
ATOM     21  O   LIG    1       23.090 -18.975   3.790  0.00  0.00    -0.392 OA
ATOM     22  H   LIG    1       22.435 -19.685   3.637  0.00  0.00    +0.209 HD
ENDBRANCH  20  21
ENDBRANCH  17  20
ENDBRANCH  14  17
ENDBRANCH   1  14
TORSDOF 13
ENDMDL
MODEL 8
REMARK VINA RESULT:      -2.9      3.511      4.471
REMARK  Name = *****
REMARK                            x       y       z     vdW  Elec       q    Type
REMARK                         _______ _______ _______ _____ _____    ______ ____
ROOT
ATOM      1  C   LIG    1       25.881 -17.571   3.296  0.00  0.00    +0.177 C 
ENDROOT
BRANCH   1   2
ATOM      2  O   LIG    1       27.125 -17.851   3.964  0.00  0.00    -0.387 OA
ATOM      3  H   LIG    1       27.015 -18.702   4.436  0.00  0.00    +0.210 HD
ENDBRANCH   1   2
BRANCH   1   4
ATOM      4  C   LIG    1       24.762 -18.334   4.061  0.00  0.00    +0.185 C 
BRANCH   4   5
ATOM      5  O   LIG    1       23.561 -18.517   3.282  0.00  0.00    -0.386 OA
ATOM      6  H   LIG    1       23.178 -17.623   3.146  0.00  0.00    +0.210 HD
ENDBRANCH   4   5
BRANCH   4   7
ATOM      7  C   LIG    1       25.132 -19.721   4.600  0.00  0.00    +0.254 C 
BRANCH   7   9
ATOM      8  O   LIG    1       23.061 -20.518   5.587  0.00  0.00    -0.248 OA
ATOM      9  C   LIG    1       23.895 -20.604   4.712  0.00  0.00    +0.336 C 
BRANCH   9  10
ATOM     10  O   LIG    1       23.839 -21.517   3.708  0.00  0.00    -0.479 OA
ATOM     11  H   LIG    1       24.401 -21.168   2.970  0.00  0.00    +0.295 HD
ENDBRANCH   9  10
ENDBRANCH   7   9
BRANCH   7  12
ATOM     12  O   LIG    1       26.022 -20.386   3.659  0.00  0.00    -0.378 OA
ATOM     13  H   LIG    1       25.427 -20.843   3.023  0.00  0.00    +0.211 HD
ENDBRANCH   7  12
ENDBRANCH   4   7
ENDBRANCH   1   4
BRANCH   1  14
ATOM     14  C   LIG    1       25.661 -16.044   3.134  0.00  0.00    +0.176 C 
BRANCH  14  15
ATOM     15  O   LIG    1       24.620 -15.631   4.031  0.00  0.00    -0.387 OA
ATOM     16  H   LIG    1       24.882 -14.758   4.396  0.00  0.00    +0.210 HD
ENDBRANCH  14  15
BRANCH  14  17
ATOM     17  C   LIG    1       26.987 -15.247   3.338  0.00  0.00    +0.171 C 
BRANCH  17  18
ATOM     18  O   LIG    1       27.195 -14.962   4.733  0.00  0.00    -0.387 OA
ATOM     19  H   LIG    1       27.294 -13.996   4.825  0.00  0.00    +0.210 HD
ENDBRANCH  17  18
BRANCH  17  20
ATOM     20  C   LIG    1       27.013 -13.922   2.563  0.00  0.00    +0.190 C 
BRANCH  20  21
ATOM     21  O   LIG    1       25.810 -13.763   1.812  0.00  0.00    -0.392 OA
ATOM     22  H   LIG    1       25.479 -12.862   1.997  0.00  0.00    +0.209 HD
ENDBRANCH  20  21
ENDBRANCH  17  20
ENDBRANCH  14  17
ENDBRANCH   1  14
TORSDOF 13
ENDMDL
MODEL 9
REMARK VINA RESULT:      -2.8      1.355      2.657
REMARK  Name = *****
REMARK                            x       y       z     vdW  Elec       q    Type
REMARK                         _______ _______ _______ _____ _____    ______ ____
ROOT
ATOM      1  C   LIG    1       24.888 -20.900   4.526  0.00  0.00    +0.177 C 
ENDROOT
BRANCH   1   2
ATOM      2  O   LIG    1       24.362 -21.436   5.754  0.00  0.00    -0.387 OA
ATOM      3  H   LIG    1       24.705 -20.878   6.483  0.00  0.00    +0.210 HD
ENDBRANCH   1   2
BRANCH   1   4
ATOM      4  C   LIG    1       23.966 -19.723   4.100  0.00  0.00    +0.185 C 
BRANCH   4   5
ATOM      5  O   LIG    1       23.498 -19.828   2.738  0.00  0.00    -0.386 OA
ATOM      6  H   LIG    1       24.264 -19.610   2.163  0.00  0.00    +0.210 HD
ENDBRANCH   4   5
BRANCH   4   7
ATOM      7  C   LIG    1       22.716 -19.495   4.959  0.00  0.00    +0.254 C 
BRANCH   7   9
ATOM      8  O   LIG    1       22.227 -17.122   4.794  0.00  0.00    -0.248 OA
ATOM      9  C   LIG    1       21.954 -18.262   4.487  0.00  0.00    +0.336 C 
BRANCH   9  10
ATOM     10  O   LIG    1       20.915 -18.595   3.678  0.00  0.00    -0.479 OA
ATOM     11  H   LIG    1       20.329 -17.799   3.621  0.00  0.00    +0.295 HD
ENDBRANCH   9  10
ENDBRANCH   7   9
BRANCH   7  12
ATOM     12  O   LIG    1       21.806 -20.620   4.801  0.00  0.00    -0.378 OA
ATOM     13  H   LIG    1       21.196 -20.355   4.077  0.00  0.00    +0.211 HD
ENDBRANCH   7  12
ENDBRANCH   4   7
ENDBRANCH   1   4
BRANCH   1  14
ATOM     14  C   LIG    1       26.394 -20.555   4.663  0.00  0.00    +0.176 C 
BRANCH  14  15
ATOM     15  O   LIG    1       26.596 -19.196   4.248  0.00  0.00    -0.387 OA
ATOM     16  H   LIG    1       25.744 -18.878   3.876  0.00  0.00    +0.210 HD
ENDBRANCH  14  15
BRANCH  14  17
ATOM     17  C   LIG    1       26.919 -20.831   6.107  0.00  0.00    +0.171 C 
BRANCH  17  18
ATOM     18  O   LIG    1       26.222 -20.010   7.062  0.00  0.00    -0.387 OA
ATOM     19  H   LIG    1       26.633 -19.125   7.045  0.00  0.00    +0.210 HD
ENDBRANCH  17  18
BRANCH  17  20
ATOM     20  C   LIG    1       28.426 -20.576   6.254  0.00  0.00    +0.190 C 
BRANCH  20  21
ATOM     21  O   LIG    1       28.721 -19.200   6.019  0.00  0.00    -0.392 OA
ATOM     22  H   LIG    1       28.057 -18.874   5.379  0.00  0.00    +0.209 HD
ENDBRANCH  20  21
ENDBRANCH  17  20
ENDBRANCH  14  17
ENDBRANCH   1  14
TORSDOF 13
ENDMDL
