MODEL 1
REMARK VINA RESULT:      -5.2      0.000      0.000
REMARK  Name = *****
REMARK                            x       y       z     vdW  Elec       q    Type
REMARK                         _______ _______ _______ _____ _____    ______ ____
ROOT
ATOM      1  C   LIG    1       24.102 -20.356   4.750  0.00  0.00    +0.406 C 
ATOM      2  F   LIG    1       23.864 -20.704   3.450  0.00  0.00    -0.205 F 
ENDROOT
BRANCH   1   3
ATOM      3  C   LIG    1       22.788 -20.079   5.504  0.00  0.00    +0.446 C 
ATOM      4  F   LIG    1       22.923 -20.295   6.832  0.00  0.00    -0.165 F 
ATOM      5  F   LIG    1       21.794 -20.889   5.062  0.00  0.00    -0.165 F 
ATOM      6  F   LIG    1       22.362 -18.808   5.332  0.00  0.00    -0.165 F 
ENDBRANCH   1   3
BRANCH   1   7
ATOM      7  O   LIG    1       25.014 -21.291   5.292  0.00  0.00    -0.280 OA
BRANCH   7   9
ATOM      8  F   LIG    1       26.450 -19.624   4.992  0.00  0.00    -0.178 F 
ATOM      9  C   LIG    1       26.160 -20.663   5.809  0.00  0.00    +0.485 C 
ATOM     10  F   LIG    1       25.845 -20.136   7.018  0.00  0.00    -0.178 F 
ENDBRANCH   7   9
ENDBRANCH   1   7
TORSDOF 3
ENDMDL
MODEL 2
REMARK VINA RESULT:      -5.0      1.218      3.178
REMARK  Name = *****
REMARK                            x       y       z     vdW  Elec       q    Type
REMARK                         _______ _______ _______ _____ _____    ______ ____
ROOT
ATOM      1  C   LIG    1       24.715 -20.241   5.021  0.00  0.00    +0.406 C 
ATOM      2  F   LIG    1       26.055 -20.421   5.220  0.00  0.00    -0.205 F 
ENDROOT
BRANCH   1   3
ATOM      3  C   LIG    1       24.441 -19.504   3.696  0.00  0.00    +0.446 C 
ATOM      4  F   LIG    1       23.334 -18.731   3.778  0.00  0.00    -0.165 F 
ATOM      5  F   LIG    1       24.244 -20.383   2.683  0.00  0.00    -0.165 F 
ATOM      6  F   LIG    1       25.474 -18.713   3.332  0.00  0.00    -0.165 F 
ENDBRANCH   1   3
BRANCH   1   7
ATOM      7  O   LIG    1       24.068 -21.477   5.259  0.00  0.00    -0.280 OA
BRANCH   7   9
ATOM      8  F   LIG    1       22.908 -20.110   6.570  0.00  0.00    -0.178 F 
ATOM      9  C   LIG    1       22.849 -21.305   5.937  0.00  0.00    +0.485 C 
ATOM     10  F   LIG    1       21.860 -21.212   5.014  0.00  0.00    -0.178 F 
ENDBRANCH   7   9
ENDBRANCH   1   7
TORSDOF 3
ENDMDL
MODEL 3
REMARK VINA RESULT:      -4.8      6.716      7.931
REMARK  Name = *****
REMARK                            x       y       z     vdW  Elec       q    Type
REMARK                         _______ _______ _______ _____ _____    ______ ____
ROOT
ATOM      1  C   LIG    1       26.568 -13.570   4.635  0.00  0.00    +0.406 C 
ATOM      2  F   LIG    1       26.934 -13.681   5.947  0.00  0.00    -0.205 F 
ENDROOT
BRANCH   1   3
ATOM      3  C   LIG    1       27.615 -14.215   3.708  0.00  0.00    +0.446 C 
ATOM      4  F   LIG    1       27.224 -14.173   2.413  0.00  0.00    -0.165 F 
ATOM      5  F   LIG    1       27.811 -15.518   4.028  0.00  0.00    -0.165 F 
ATOM      6  F   LIG    1       28.818 -13.605   3.797  0.00  0.00    -0.165 F 
ENDBRANCH   1   3
BRANCH   1   7
ATOM      7  O   LIG    1       25.217 -13.972   4.521  0.00  0.00    -0.280 OA
BRANCH   7   9
ATOM      8  F   LIG    1       23.494 -13.675   3.152  0.00  0.00    -0.178 F 
ATOM      9  C   LIG    1       24.440 -13.010   3.855  0.00  0.00    +0.485 C 
ATOM     10  F   LIG    1       23.791 -12.270   4.787  0.00  0.00    -0.178 F 
ENDBRANCH   7   9
ENDBRANCH   1   7
TORSDOF 3
ENDMDL
MODEL 4
REMARK VINA RESULT:      -4.8      6.718      7.984
REMARK  Name = *****
REMARK                            x       y       z     vdW  Elec       q    Type
REMARK                         _______ _______ _______ _____ _____    ______ ____
ROOT
ATOM      1  C   LIG    1       26.372 -13.623   4.452  0.00  0.00    +0.406 C 
ATOM      2  F   LIG    1       26.734 -13.649   5.770  0.00  0.00    -0.205 F 
ENDROOT
BRANCH   1   3
ATOM      3  C   LIG    1       27.445 -14.283   3.566  0.00  0.00    +0.446 C 
ATOM      4  F   LIG    1       27.584 -15.598   3.851  0.00  0.00    -0.165 F 
ATOM      5  F   LIG    1       28.654 -13.699   3.751  0.00  0.00    -0.165 F 
ATOM      6  F   LIG    1       27.155 -14.173   2.250  0.00  0.00    -0.165 F 
ENDBRANCH   1   3
BRANCH   1   7
ATOM      7  O   LIG    1       25.036 -14.079   4.357  0.00  0.00    -0.280 OA
BRANCH   7   9
ATOM      8  F   LIG    1       23.995 -12.195   4.905  0.00  0.00    -0.178 F 
ATOM      9  C   LIG    1       24.174 -13.072   3.890  0.00  0.00    +0.485 C 
ATOM     10  F   LIG    1       24.806 -12.399   2.896  0.00  0.00    -0.178 F 
ENDBRANCH   7   9
ENDBRANCH   1   7
TORSDOF 3
ENDMDL
MODEL 5
REMARK VINA RESULT:      -4.8      0.614      1.561
REMARK  Name = *****
REMARK                            x       y       z     vdW  Elec       q    Type
REMARK                         _______ _______ _______ _____ _____    ______ ____
ROOT
ATOM      1  C   LIG    1       24.060 -20.559   4.781  0.00  0.00    +0.406 C 
ATOM      2  F   LIG    1       23.813 -21.100   3.551  0.00  0.00    -0.205 F 
ENDROOT
BRANCH   1   3
ATOM      3  C   LIG    1       22.752 -20.329   5.562  0.00  0.00    +0.446 C 
ATOM      4  F   LIG    1       22.373 -19.031   5.525  0.00  0.00    -0.165 F 
ATOM      5  F   LIG    1       22.900 -20.669   6.866  0.00  0.00    -0.165 F 
ATOM      6  F   LIG    1       21.733 -21.072   5.077  0.00  0.00    -0.165 F 
ENDBRANCH   1   3
BRANCH   1   7
ATOM      7  O   LIG    1       25.094 -21.308   5.389  0.00  0.00    -0.280 OA
BRANCH   7   9
ATOM      8  F   LIG    1       27.049 -21.282   6.443  0.00  0.00    -0.178 F 
ATOM      9  C   LIG    1       26.081 -20.477   5.947  0.00  0.00    +0.485 C 
ATOM     10  F   LIG    1       26.643 -19.756   4.946  0.00  0.00    -0.178 F 
ENDBRANCH   7   9
ENDBRANCH   1   7
TORSDOF 3
ENDMDL
MODEL 6
REMARK VINA RESULT:      -4.8      6.513      7.045
REMARK  Name = *****
REMARK                            x       y       z     vdW  Elec       q    Type
REMARK                         _______ _______ _______ _____ _____    ______ ____
ROOT
ATOM      1  C   LIG    1       25.766 -14.171   2.971  0.00  0.00    +0.406 C 
ATOM      2  F   LIG    1       26.170 -15.425   3.331  0.00  0.00    -0.205 F 
ENDROOT
BRANCH   1   3
ATOM      3  C   LIG    1       24.476 -13.766   3.710  0.00  0.00    +0.446 C 
ATOM      4  F   LIG    1       23.846 -14.843   4.233  0.00  0.00    -0.165 F 
ATOM      5  F   LIG    1       23.605 -13.157   2.869  0.00  0.00    -0.165 F 
ATOM      6  F   LIG    1       24.719 -12.899   4.718  0.00  0.00    -0.165 F 
ENDBRANCH   1   3
BRANCH   1   7
ATOM      7  O   LIG    1       26.888 -13.312   3.041  0.00  0.00    -0.280 OA
BRANCH   7   9
ATOM      8  F   LIG    1       29.039 -13.204   3.585  0.00  0.00    -0.178 F 
ATOM      9  C   LIG    1       27.874 -13.813   3.908  0.00  0.00    +0.485 C 
ATOM     10  F   LIG    1       27.565 -13.424   5.170  0.00  0.00    -0.178 F 
ENDBRANCH   7   9
ENDBRANCH   1   7
TORSDOF 3
ENDMDL
MODEL 7
REMARK VINA RESULT:      -4.8      6.528      7.239
REMARK  Name = *****
REMARK                            x       y       z     vdW  Elec       q    Type
REMARK                         _______ _______ _______ _____ _____    ______ ____
ROOT
ATOM      1  C   LIG    1       25.682 -13.732   4.330  0.00  0.00    +0.406 C 
ATOM      2  F   LIG    1       26.137 -13.173   5.491  0.00  0.00    -0.205 F 
ENDROOT
BRANCH   1   3
ATOM      3  C   LIG    1       24.159 -13.555   4.183  0.00  0.00    +0.446 C 
ATOM      4  F   LIG    1       23.788 -13.506   2.883  0.00  0.00    -0.165 F 
ATOM      5  F   LIG    1       23.746 -12.401   4.764  0.00  0.00    -0.165 F 
ATOM      6  F   LIG    1       23.472 -14.558   4.773  0.00  0.00    -0.165 F 
ENDBRANCH   1   3
BRANCH   1   7
ATOM      7  O   LIG    1       26.523 -13.298   3.278  0.00  0.00    -0.280 OA
BRANCH   7   9
ATOM      8  F   LIG    1       28.654 -13.259   3.902  0.00  0.00    -0.178 F 
ATOM      9  C   LIG    1       27.734 -14.009   3.251  0.00  0.00    +0.485 C 
ATOM     10  F   LIG    1       27.574 -15.147   3.971  0.00  0.00    -0.178 F 
ENDBRANCH   7   9
ENDBRANCH   1   7
TORSDOF 3
ENDMDL
MODEL 8
REMARK VINA RESULT:      -4.8      6.492      7.742
REMARK  Name = *****
REMARK                            x       y       z     vdW  Elec       q    Type
REMARK                         _______ _______ _______ _____ _____    ______ ____
ROOT
ATOM      1  C   LIG    1       26.356 -14.050   3.062  0.00  0.00    +0.406 C 
ATOM      2  F   LIG    1       26.924 -14.083   1.819  0.00  0.00    -0.205 F 
ENDROOT
BRANCH   1   3
ATOM      3  C   LIG    1       27.426 -14.147   4.166  0.00  0.00    +0.446 C 
ATOM      4  F   LIG    1       26.932 -13.772   5.369  0.00  0.00    -0.165 F 
ATOM      5  F   LIG    1       28.480 -13.339   3.894  0.00  0.00    -0.165 F 
ATOM      6  F   LIG    1       27.914 -15.400   4.291  0.00  0.00    -0.165 F 
ENDBRANCH   1   3
BRANCH   1   7
ATOM      7  O   LIG    1       25.439 -12.973   3.095  0.00  0.00    -0.280 OA
BRANCH   7   9
ATOM      8  F   LIG    1       24.239 -14.714   3.776  0.00  0.00    -0.178 F 
ATOM      9  C   LIG    1       24.167 -13.385   3.528  0.00  0.00    +0.485 C 
ATOM     10  F   LIG    1       23.905 -12.778   4.712  0.00  0.00    -0.178 F 
ENDBRANCH   7   9
ENDBRANCH   1   7
TORSDOF 3
ENDMDL
MODEL 9
REMARK VINA RESULT:      -4.7      6.529      7.757
REMARK  Name = *****
REMARK                            x       y       z     vdW  Elec       q    Type
REMARK                         _______ _______ _______ _____ _____    ______ ____
ROOT
ATOM      1  C   LIG    1       26.383 -14.022   3.077  0.00  0.00    +0.406 C 
ATOM      2  F   LIG    1       26.897 -14.063   1.812  0.00  0.00    -0.205 F 
ENDROOT
BRANCH   1   3
ATOM      3  C   LIG    1       27.501 -14.071   4.136  0.00  0.00    +0.446 C 
ATOM      4  F   LIG    1       28.589 -13.372   3.740  0.00  0.00    -0.165 F 
ATOM      5  F   LIG    1       27.901 -15.347   4.362  0.00  0.00    -0.165 F 
ATOM      6  F   LIG    1       27.097 -13.571   5.325  0.00  0.00    -0.165 F 
ENDBRANCH   1   3
BRANCH   1   7
ATOM      7  O   LIG    1       25.438 -12.971   3.132  0.00  0.00    -0.280 OA
BRANCH   7   9
ATOM      8  F   LIG    1       24.325 -14.715   3.938  0.00  0.00    -0.178 F 
ATOM      9  C   LIG    1       24.181 -13.421   3.570  0.00  0.00    +0.485 C 
ATOM     10  F   LIG    1       23.849 -12.728   4.688  0.00  0.00    -0.178 F 
ENDBRANCH   7   9
ENDBRANCH   1   7
TORSDOF 3
ENDMDL
