MODEL 1
REMARK VINA RESULT:     -10.1      0.000      0.000
REMARK  Name = *****
REMARK                            x       y       z     vdW  Elec       q    Type
REMARK                         _______ _______ _______ _____ _____    ______ ____
ROOT
ATOM      1  C   LIG    1       27.513 -20.540   7.471  0.00  0.00    +0.165 C 
ATOM      2  C   LIG    1       27.086 -20.289   6.050  0.00  0.00    +0.249 C 
ATOM      3  O   LIG    1       27.606 -19.463   5.310  0.00  0.00    -0.273 OA
ATOM      4  N   LIG    1       25.922 -21.051   5.841  0.00  0.00    -0.180 N 
ATOM      5  N   LIG    1       25.750 -21.963   6.921  0.00  0.00    -0.180 N 
ATOM      6  C   LIG    1       26.610 -21.632   7.975  0.00  0.00    +0.249 C 
ATOM      7  O   LIG    1       26.706 -22.125   9.091  0.00  0.00    -0.273 OA
ENDROOT
BRANCH   4   8
ATOM      8  C   LIG    1       24.804 -20.380   5.257  0.00  0.00    +0.057 A 
ATOM      9  C   LIG    1       24.917 -19.825   3.976  0.00  0.00    +0.025 A 
ATOM     10  C   LIG    1       23.845 -19.137   3.402  0.00  0.00    +0.002 A 
ATOM     11  C   LIG    1       22.658 -18.980   4.113  0.00  0.00    +0.000 A 
ATOM     12  C   LIG    1       22.533 -19.529   5.388  0.00  0.00    +0.002 A 
ATOM     13  C   LIG    1       23.594 -20.242   5.952  0.00  0.00    +0.025 A 
ENDBRANCH   4   8
BRANCH   5  14
ATOM     14  C   LIG    1       25.238 -23.285   6.701  0.00  0.00    +0.057 A 
ATOM     15  C   LIG    1       23.856 -23.540   6.743  0.00  0.00    +0.025 A 
ATOM     16  C   LIG    1       23.338 -24.814   6.474  0.00  0.00    +0.002 A 
ATOM     17  C   LIG    1       24.194 -25.861   6.152  0.00  0.00    +0.000 A 
ATOM     18  C   LIG    1       25.564 -25.635   6.108  0.00  0.00    +0.002 A 
ATOM     19  C   LIG    1       26.079 -24.363   6.386  0.00  0.00    +0.025 A 
ENDBRANCH   5  14
BRANCH   1  20
ATOM     20  C   LIG    1       28.995 -20.875   7.621  0.00  0.00    +0.022 C 
BRANCH  20  21
ATOM     21  C   LIG    1       29.867 -19.680   8.024  0.00  0.00    +0.001 C 
BRANCH  21  23
ATOM     22  C   LIG    1       31.098 -21.639   9.014  0.00  0.00    +0.004 C 
ATOM     23  C   LIG    1       31.119 -20.140   8.769  0.00  0.00    -0.003 C 
ENDBRANCH  21  23
ENDBRANCH  20  21
ENDBRANCH   1  20
TORSDOF 5
ENDMDL
MODEL 2
REMARK VINA RESULT:      -9.7      0.738      4.470
REMARK  Name = *****
REMARK                            x       y       z     vdW  Elec       q    Type
REMARK                         _______ _______ _______ _____ _____    ______ ____
ROOT
ATOM      1  C   LIG    1       27.817 -20.820   7.210  0.00  0.00    +0.165 C 
ATOM      2  C   LIG    1       26.762 -21.633   7.909  0.00  0.00    +0.249 C 
ATOM      3  O   LIG    1       26.909 -22.156   9.007  0.00  0.00    -0.273 OA
ATOM      4  N   LIG    1       25.702 -21.783   6.996  0.00  0.00    -0.180 N 
ATOM      5  N   LIG    1       25.894 -20.903   5.895  0.00  0.00    -0.180 N 
ATOM      6  C   LIG    1       27.192 -20.379   5.915  0.00  0.00    +0.249 C 
ATOM      7  O   LIG    1       27.756 -19.652   5.107  0.00  0.00    -0.273 OA
ENDROOT
BRANCH   4   8
ATOM      8  C   LIG    1       25.195 -23.105   6.804  0.00  0.00    +0.057 A 
ATOM      9  C   LIG    1       26.082 -24.166   6.580  0.00  0.00    +0.025 A 
ATOM     10  C   LIG    1       25.603 -25.459   6.357  0.00  0.00    +0.002 A 
ATOM     11  C   LIG    1       24.231 -25.699   6.336  0.00  0.00    +0.000 A 
ATOM     12  C   LIG    1       23.339 -24.652   6.559  0.00  0.00    +0.002 A 
ATOM     13  C   LIG    1       23.817 -23.364   6.811  0.00  0.00    +0.025 A 
ENDBRANCH   4   8
BRANCH   5  14
ATOM     14  C   LIG    1       24.783 -20.244   5.269  0.00  0.00    +0.057 A 
ATOM     15  C   LIG    1       23.536 -20.162   5.913  0.00  0.00    +0.025 A 
ATOM     16  C   LIG    1       22.459 -19.474   5.339  0.00  0.00    +0.002 A 
ATOM     17  C   LIG    1       22.609 -18.847   4.108  0.00  0.00    +0.000 A 
ATOM     18  C   LIG    1       23.830 -18.918   3.449  0.00  0.00    +0.002 A 
ATOM     19  C   LIG    1       24.901 -19.614   4.021  0.00  0.00    +0.025 A 
ENDBRANCH   5  14
BRANCH   1  20
ATOM     20  C   LIG    1       28.352 -19.656   8.040  0.00  0.00    +0.022 C 
BRANCH  20  21
ATOM     21  C   LIG    1       29.882 -19.555   8.057  0.00  0.00    +0.001 C 
BRANCH  21  23
ATOM     22  C   LIG    1       30.100 -17.698   9.743  0.00  0.00    +0.004 C 
ATOM     23  C   LIG    1       30.335 -18.116   8.301  0.00  0.00    -0.003 C 
ENDBRANCH  21  23
ENDBRANCH  20  21
ENDBRANCH   1  20
TORSDOF 5
ENDMDL
MODEL 3
REMARK VINA RESULT:      -9.6      0.732      4.510
REMARK  Name = *****
REMARK                            x       y       z     vdW  Elec       q    Type
REMARK                         _______ _______ _______ _____ _____    ______ ____
ROOT
ATOM      1  C   LIG    1       27.792 -20.886   7.319  0.00  0.00    +0.165 C 
ATOM      2  C   LIG    1       26.722 -21.715   7.976  0.00  0.00    +0.249 C 
ATOM      3  O   LIG    1       26.846 -22.269   9.061  0.00  0.00    -0.273 OA
ATOM      4  N   LIG    1       25.678 -21.836   7.039  0.00  0.00    -0.180 N 
ATOM      5  N   LIG    1       25.893 -20.925   5.967  0.00  0.00    -0.180 N 
ATOM      6  C   LIG    1       27.192 -20.406   6.026  0.00  0.00    +0.249 C 
ATOM      7  O   LIG    1       27.774 -19.659   5.250  0.00  0.00    -0.273 OA
ENDROOT
BRANCH   4   8
ATOM      8  C   LIG    1       25.171 -23.149   6.800  0.00  0.00    +0.057 A 
ATOM      9  C   LIG    1       26.056 -24.195   6.504  0.00  0.00    +0.025 A 
ATOM     10  C   LIG    1       25.576 -25.479   6.235  0.00  0.00    +0.002 A 
ATOM     11  C   LIG    1       24.205 -25.724   6.239  0.00  0.00    +0.000 A 
ATOM     12  C   LIG    1       23.315 -24.693   6.534  0.00  0.00    +0.002 A 
ATOM     13  C   LIG    1       23.795 -23.415   6.831  0.00  0.00    +0.025 A 
ENDBRANCH   4   8
BRANCH   5  14
ATOM     14  C   LIG    1       24.796 -20.245   5.339  0.00  0.00    +0.057 A 
ATOM     15  C   LIG    1       24.920 -19.721   4.040  0.00  0.00    +0.025 A 
ATOM     16  C   LIG    1       23.840 -19.105   3.394  0.00  0.00    +0.002 A 
ATOM     17  C   LIG    1       22.609 -19.005   4.032  0.00  0.00    +0.000 A 
ATOM     18  C   LIG    1       22.463 -19.512   5.318  0.00  0.00    +0.002 A 
ATOM     19  C   LIG    1       23.547 -20.118   5.965  0.00  0.00    +0.025 A 
ENDBRANCH   5  14
BRANCH   1  20
ATOM     20  C   LIG    1       28.315 -19.748   8.192  0.00  0.00    +0.022 C 
BRANCH  20  21
ATOM     21  C   LIG    1       29.836 -19.562   8.129  0.00  0.00    +0.001 C 
BRANCH  21  23
ATOM     22  C   LIG    1       30.322 -17.635   9.674  0.00  0.00    +0.004 C 
ATOM     23  C   LIG    1       30.213 -18.085   8.226  0.00  0.00    -0.003 C 
ENDBRANCH  21  23
ENDBRANCH  20  21
ENDBRANCH   1  20
TORSDOF 5
ENDMDL
MODEL 4
REMARK VINA RESULT:      -8.4      1.716      5.754
REMARK  Name = *****
REMARK                            x       y       z     vdW  Elec       q    Type
REMARK                         _______ _______ _______ _____ _____    ______ ____
ROOT
ATOM      1  C   LIG    1       24.374 -23.895   6.855  0.00  0.00    +0.165 C 
ATOM      2  C   LIG    1       25.733 -23.443   6.392  0.00  0.00    +0.249 C 
ATOM      3  O   LIG    1       26.726 -24.160   6.363  0.00  0.00    -0.273 OA
ATOM      4  N   LIG    1       25.641 -22.056   6.177  0.00  0.00    -0.180 N 
ATOM      5  N   LIG    1       24.274 -21.660   6.202  0.00  0.00    -0.180 N 
ATOM      6  C   LIG    1       23.480 -22.696   6.706  0.00  0.00    +0.249 C 
ATOM      7  O   LIG    1       22.280 -22.716   6.949  0.00  0.00    -0.273 OA
ENDROOT
BRANCH   4   8
ATOM      8  C   LIG    1       26.656 -21.240   6.764  0.00  0.00    +0.057 A 
ATOM      9  C   LIG    1       27.638 -20.658   5.952  0.00  0.00    +0.025 A 
ATOM     10  C   LIG    1       28.657 -19.884   6.513  0.00  0.00    +0.002 A 
ATOM     11  C   LIG    1       28.715 -19.703   7.893  0.00  0.00    +0.000 A 
ATOM     12  C   LIG    1       27.743 -20.275   8.710  0.00  0.00    +0.002 A 
ATOM     13  C   LIG    1       26.706 -21.025   8.149  0.00  0.00    +0.025 A 
ENDBRANCH   4   8
BRANCH   5  14
ATOM     14  C   LIG    1       23.781 -20.640   5.321  0.00  0.00    +0.057 A 
ATOM     15  C   LIG    1       22.683 -19.841   5.684  0.00  0.00    +0.025 A 
ATOM     16  C   LIG    1       22.226 -18.805   4.859  0.00  0.00    +0.002 A 
ATOM     17  C   LIG    1       22.863 -18.542   3.652  0.00  0.00    +0.000 A 
ATOM     18  C   LIG    1       23.948 -19.320   3.268  0.00  0.00    +0.002 A 
ATOM     19  C   LIG    1       24.396 -20.361   4.091  0.00  0.00    +0.025 A 
ENDBRANCH   5  14
BRANCH   1  20
ATOM     20  C   LIG    1       23.849 -25.126   6.120  0.00  0.00    +0.022 C 
BRANCH  20  21
ATOM     21  C   LIG    1       24.472 -26.446   6.591  0.00  0.00    +0.001 C 
BRANCH  21  23
ATOM     22  C   LIG    1       26.023 -27.079   4.713  0.00  0.00    +0.004 C 
ATOM     23  C   LIG    1       24.712 -27.391   5.414  0.00  0.00    -0.003 C 
ENDBRANCH  21  23
ENDBRANCH  20  21
ENDBRANCH   1  20
TORSDOF 5
ENDMDL
MODEL 5
REMARK VINA RESULT:      -8.3      1.802      5.967
REMARK  Name = *****
REMARK                            x       y       z     vdW  Elec       q    Type
REMARK                         _______ _______ _______ _____ _____    ______ ____
ROOT
ATOM      1  C   LIG    1       24.400 -24.252   6.777  0.00  0.00    +0.165 C 
ATOM      2  C   LIG    1       25.782 -23.767   6.435  0.00  0.00    +0.249 C 
ATOM      3  O   LIG    1       26.779 -24.478   6.419  0.00  0.00    -0.273 OA
ATOM      4  N   LIG    1       25.696 -22.368   6.311  0.00  0.00    -0.180 N 
ATOM      5  N   LIG    1       24.328 -21.976   6.276  0.00  0.00    -0.180 N 
ATOM      6  C   LIG    1       23.509 -23.046   6.656  0.00  0.00    +0.249 C 
ATOM      7  O   LIG    1       22.297 -23.084   6.820  0.00  0.00    -0.273 OA
ENDROOT
BRANCH   4   8
ATOM      8  C   LIG    1       26.667 -21.594   7.018  0.00  0.00    +0.057 A 
ATOM      9  C   LIG    1       26.294 -20.898   8.176  0.00  0.00    +0.025 A 
ATOM     10  C   LIG    1       27.222 -20.110   8.861  0.00  0.00    +0.002 A 
ATOM     11  C   LIG    1       28.525 -19.994   8.383  0.00  0.00    +0.000 A 
ATOM     12  C   LIG    1       28.908 -20.682   7.234  0.00  0.00    +0.002 A 
ATOM     13  C   LIG    1       27.990 -21.494   6.563  0.00  0.00    +0.025 A 
ENDBRANCH   4   8
BRANCH   5  14
ATOM     14  C   LIG    1       23.887 -20.897   5.439  0.00  0.00    +0.057 A 
ATOM     15  C   LIG    1       24.509 -20.640   4.205  0.00  0.00    +0.025 A 
ATOM     16  C   LIG    1       24.053 -19.627   3.352  0.00  0.00    +0.002 A 
ATOM     17  C   LIG    1       22.957 -18.851   3.713  0.00  0.00    +0.000 A 
ATOM     18  C   LIG    1       22.327 -19.083   4.930  0.00  0.00    +0.002 A 
ATOM     19  C   LIG    1       22.792 -20.090   5.785  0.00  0.00    +0.025 A 
ENDBRANCH   5  14
BRANCH   1  20
ATOM     20  C   LIG    1       23.929 -25.428   5.926  0.00  0.00    +0.022 C 
BRANCH  20  21
ATOM     21  C   LIG    1       24.379 -26.797   6.452  0.00  0.00    +0.001 C 
BRANCH  21  23
ATOM     22  C   LIG    1       26.076 -27.202   4.637  0.00  0.00    +0.004 C 
ATOM     23  C   LIG    1       24.809 -27.711   5.305  0.00  0.00    -0.003 C 
ENDBRANCH  21  23
ENDBRANCH  20  21
ENDBRANCH   1  20
TORSDOF 5
ENDMDL
MODEL 6
REMARK VINA RESULT:      -7.7      1.735      5.884
REMARK  Name = *****
REMARK                            x       y       z     vdW  Elec       q    Type
REMARK                         _______ _______ _______ _____ _____    ______ ____
ROOT
ATOM      1  C   LIG    1       23.319 -21.064   6.776  0.00  0.00    +0.165 C 
ATOM      2  C   LIG    1       23.686 -22.025   5.678  0.00  0.00    +0.249 C 
ATOM      3  O   LIG    1       22.903 -22.439   4.832  0.00  0.00    -0.273 OA
ATOM      4  N   LIG    1       25.007 -22.438   5.932  0.00  0.00    -0.180 N 
ATOM      5  N   LIG    1       25.581 -21.607   6.936  0.00  0.00    -0.180 N 
ATOM      6  C   LIG    1       24.587 -20.837   7.552  0.00  0.00    +0.249 C 
ATOM      7  O   LIG    1       24.669 -20.065   8.499  0.00  0.00    -0.273 OA
ENDROOT
BRANCH   4   8
ATOM      8  C   LIG    1       25.264 -23.843   5.903  0.00  0.00    +0.057 A 
ATOM      9  C   LIG    1       25.741 -24.487   7.052  0.00  0.00    +0.025 A 
ATOM     10  C   LIG    1       26.028 -25.854   7.033  0.00  0.00    +0.002 A 
ATOM     11  C   LIG    1       25.861 -26.585   5.859  0.00  0.00    +0.000 A 
ATOM     12  C   LIG    1       25.385 -25.955   4.711  0.00  0.00    +0.002 A 
ATOM     13  C   LIG    1       25.070 -24.594   4.736  0.00  0.00    +0.025 A 
ENDBRANCH   4   8
BRANCH   5  14
ATOM     14  C   LIG    1       26.962 -21.221   6.880  0.00  0.00    +0.057 A 
ATOM     15  C   LIG    1       27.414 -20.291   5.927  0.00  0.00    +0.025 A 
ATOM     16  C   LIG    1       28.747 -19.863   5.897  0.00  0.00    +0.002 A 
ATOM     17  C   LIG    1       29.659 -20.353   6.824  0.00  0.00    +0.000 A 
ATOM     18  C   LIG    1       29.238 -21.277   7.773  0.00  0.00    +0.002 A 
ATOM     19  C   LIG    1       27.906 -21.711   7.795  0.00  0.00    +0.025 A 
ENDBRANCH   5  14
BRANCH   1  20
ATOM     20  C   LIG    1       22.685 -19.768   6.277  0.00  0.00    +0.022 C 
BRANCH  20  21
ATOM     21  C   LIG    1       22.428 -19.741   4.766  0.00  0.00    +0.001 C 
BRANCH  21  23
ATOM     22  C   LIG    1       24.621 -19.251   3.630  0.00  0.00    +0.004 C 
ATOM     23  C   LIG    1       23.288 -18.678   4.082  0.00  0.00    -0.003 C 
ENDBRANCH  21  23
ENDBRANCH  20  21
ENDBRANCH   1  20
TORSDOF 5
ENDMDL
