MODEL 1
REMARK VINA RESULT:      -3.6      0.000      0.000
REMARK  Name = *****
REMARK                            x       y       z     vdW  Elec       q    Type
REMARK                         _______ _______ _______ _____ _____    ______ ____
ROOT
ATOM      1  N   LIG    1       27.561 -15.131   3.728  0.00  0.00    -0.312 N 
ATOM      2  H   LIG    1       27.734 -14.782   4.664  0.00  0.00    +0.146 HD
ATOM      3  H   LIG    1       26.949 -15.937   3.690  0.00  0.00    +0.146 HD
ATOM      4  C   LIG    1       27.220 -14.167   2.830  0.00  0.00    +0.320 C 
ATOM      5  N   LIG    1       27.914 -13.005   2.966  0.00  0.00    -0.181 N 
ATOM      6  H   LIG    1       27.805 -12.279   2.266  0.00  0.00    +0.184 HD
ATOM      7  O   LIG    1       26.364 -14.353   1.977  0.00  0.00    -0.251 OA
ENDROOT
BRANCH   5   8
ATOM      8  O   LIG    1       29.099 -12.994   3.732  0.00  0.00    -0.294 OA
ATOM      9  H   LIG    1       29.784 -13.162   3.054  0.00  0.00    +0.241 HD
ENDBRANCH   5   8
TORSDOF 1
ENDMDL
MODEL 2
REMARK VINA RESULT:      -3.4      0.830      2.316
REMARK  Name = *****
REMARK                            x       y       z     vdW  Elec       q    Type
REMARK                         _______ _______ _______ _____ _____    ______ ____
ROOT
ATOM      1  N   LIG    1       27.849 -15.070   4.028  0.00  0.00    -0.312 N 
ATOM      2  H   LIG    1       28.026 -15.671   3.232  0.00  0.00    +0.146 HD
ATOM      3  H   LIG    1       28.375 -15.313   4.859  0.00  0.00    +0.146 HD
ATOM      4  C   LIG    1       27.898 -13.740   3.743  0.00  0.00    +0.320 C 
ATOM      5  N   LIG    1       27.344 -13.404   2.547  0.00  0.00    -0.181 N 
ATOM      6  H   LIG    1       27.234 -12.424   2.312  0.00  0.00    +0.184 HD
ATOM      7  O   LIG    1       28.396 -12.933   4.514  0.00  0.00    -0.251 OA
ENDROOT
BRANCH   5   8
ATOM      8  O   LIG    1       26.500 -14.327   1.893  0.00  0.00    -0.294 OA
ATOM      9  H   LIG    1       25.813 -14.494   2.571  0.00  0.00    +0.241 HD
ENDBRANCH   5   8
TORSDOF 1
ENDMDL
MODEL 3
REMARK VINA RESULT:      -3.3      1.491      1.859
REMARK  Name = *****
REMARK                            x       y       z     vdW  Elec       q    Type
REMARK                         _______ _______ _______ _____ _____    ______ ____
ROOT
ATOM      1  N   LIG    1       28.398 -13.223   3.236  0.00  0.00    -0.312 N 
ATOM      2  H   LIG    1       28.917 -13.492   4.063  0.00  0.00    +0.146 HD
ATOM      3  H   LIG    1       28.941 -13.239   2.380  0.00  0.00    +0.146 HD
ATOM      4  C   LIG    1       27.194 -13.844   3.107  0.00  0.00    +0.320 C 
ATOM      5  N   LIG    1       26.512 -13.987   4.276  0.00  0.00    -0.181 N 
ATOM      6  H   LIG    1       25.558 -14.332   4.252  0.00  0.00    +0.184 HD
ATOM      7  O   LIG    1       26.776 -14.226   2.024  0.00  0.00    -0.251 OA
ENDROOT
BRANCH   5   8
ATOM      8  O   LIG    1       26.898 -13.225   5.399  0.00  0.00    -0.294 OA
ATOM      9  H   LIG    1       26.610 -13.794   6.142  0.00  0.00    +0.241 HD
ENDBRANCH   5   8
TORSDOF 1
ENDMDL
MODEL 4
REMARK VINA RESULT:      -3.3      5.698      6.163
REMARK  Name = *****
REMARK                            x       y       z     vdW  Elec       q    Type
REMARK                         _______ _______ _______ _____ _____    ______ ____
ROOT
ATOM      1  N   LIG    1       25.989 -18.259   3.337  0.00  0.00    -0.312 N 
ATOM      2  H   LIG    1       26.905 -18.484   2.966  0.00  0.00    +0.146 HD
ATOM      3  H   LIG    1       25.458 -17.610   2.768  0.00  0.00    +0.146 HD
ATOM      4  C   LIG    1       25.260 -19.344   3.717  0.00  0.00    +0.320 C 
ATOM      5  N   LIG    1       25.985 -20.313   4.338  0.00  0.00    -0.181 N 
ATOM      6  H   LIG    1       25.501 -21.100   4.757  0.00  0.00    +0.184 HD
ATOM      7  O   LIG    1       24.057 -19.417   3.515  0.00  0.00    -0.251 OA
ENDROOT
BRANCH   5   8
ATOM      8  O   LIG    1       27.270 -20.006   4.832  0.00  0.00    -0.294 OA
ATOM      9  H   LIG    1       27.230 -20.357   5.744  0.00  0.00    +0.241 HD
ENDBRANCH   5   8
TORSDOF 1
ENDMDL
MODEL 5
REMARK VINA RESULT:      -3.3      2.070      2.109
REMARK  Name = *****
REMARK                            x       y       z     vdW  Elec       q    Type
REMARK                         _______ _______ _______ _____ _____    ______ ____
ROOT
ATOM      1  N   LIG    1       27.012 -13.337   5.428  0.00  0.00    -0.312 N 
ATOM      2  H   LIG    1       26.780 -12.385   5.688  0.00  0.00    +0.146 HD
ATOM      3  H   LIG    1       26.211 -13.949   5.331  0.00  0.00    +0.146 HD
ATOM      4  C   LIG    1       27.880 -13.432   4.384  0.00  0.00    +0.320 C 
ATOM      5  N   LIG    1       28.877 -12.508   4.399  0.00  0.00    -0.181 N 
ATOM      6  H   LIG    1       29.630 -12.583   3.724  0.00  0.00    +0.184 HD
ATOM      7  O   LIG    1       27.758 -14.289   3.519  0.00  0.00    -0.251 OA
ENDROOT
BRANCH   5   8
ATOM      8  O   LIG    1       29.141 -11.796   5.589  0.00  0.00    -0.294 OA
ATOM      9  H   LIG    1       29.172 -12.512   6.255  0.00  0.00    +0.241 HD
ENDBRANCH   5   8
TORSDOF 1
ENDMDL
MODEL 6
REMARK VINA RESULT:      -3.1      5.442      6.153
REMARK  Name = *****
REMARK                            x       y       z     vdW  Elec       q    Type
REMARK                         _______ _______ _______ _____ _____    ______ ____
ROOT
ATOM      1  N   LIG    1       26.792 -19.949   4.729  0.00  0.00    -0.312 N 
ATOM      2  H   LIG    1       27.042 -19.052   5.126  0.00  0.00    +0.146 HD
ATOM      3  H   LIG    1       26.965 -20.739   5.340  0.00  0.00    +0.146 HD
ATOM      4  C   LIG    1       25.553 -19.982   4.165  0.00  0.00    +0.320 C 
ATOM      5  N   LIG    1       25.225 -18.858   3.472  0.00  0.00    -0.181 N 
ATOM      6  H   LIG    1       24.372 -18.847   2.925  0.00  0.00    +0.184 HD
ATOM      7  O   LIG    1       24.818 -20.953   4.276  0.00  0.00    -0.251 OA
ENDROOT
BRANCH   5   8
ATOM      8  O   LIG    1       26.241 -17.950   3.108  0.00  0.00    -0.294 OA
ATOM      9  H   LIG    1       26.065 -17.193   3.703  0.00  0.00    +0.241 HD
ENDBRANCH   5   8
TORSDOF 1
ENDMDL
MODEL 7
REMARK VINA RESULT:      -3.0      6.770      7.189
REMARK  Name = *****
REMARK                            x       y       z     vdW  Elec       q    Type
REMARK                         _______ _______ _______ _____ _____    ______ ____
ROOT
ATOM      1  N   LIG    1       25.062 -20.668   6.120  0.00  0.00    -0.312 N 
ATOM      2  H   LIG    1       25.464 -19.829   6.523  0.00  0.00    +0.146 HD
ATOM      3  H   LIG    1       24.175 -20.941   6.525  0.00  0.00    +0.146 HD
ATOM      4  C   LIG    1       25.046 -20.678   4.759  0.00  0.00    +0.320 C 
ATOM      5  N   LIG    1       26.164 -20.159   4.183  0.00  0.00    -0.181 N 
ATOM      6  H   LIG    1       26.283 -20.235   3.179  0.00  0.00    +0.184 HD
ATOM      7  O   LIG    1       24.100 -21.127   4.128  0.00  0.00    -0.251 OA
ENDROOT
BRANCH   5   8
ATOM      8  O   LIG    1       27.327 -19.987   4.963  0.00  0.00    -0.294 OA
ATOM      9  H   LIG    1       26.956 -19.751   5.837  0.00  0.00    +0.241 HD
ENDBRANCH   5   8
TORSDOF 1
ENDMDL
MODEL 8
REMARK VINA RESULT:      -2.9      6.711      7.232
REMARK  Name = *****
REMARK                            x       y       z     vdW  Elec       q    Type
REMARK                         _______ _______ _______ _____ _____    ______ ____
ROOT
ATOM      1  N   LIG    1       26.624 -20.429   7.034  0.00  0.00    -0.312 N 
ATOM      2  H   LIG    1       26.124 -21.181   6.574  0.00  0.00    +0.146 HD
ATOM      3  H   LIG    1       26.725 -20.548   8.035  0.00  0.00    +0.146 HD
ATOM      4  C   LIG    1       27.789 -20.081   6.424  0.00  0.00    +0.320 C 
ATOM      5  N   LIG    1       27.729 -20.076   5.065  0.00  0.00    -0.181 N 
ATOM      6  H   LIG    1       28.516 -19.716   4.537  0.00  0.00    +0.184 HD
ATOM      7  O   LIG    1       28.792 -19.793   7.062  0.00  0.00    -0.251 OA
ENDROOT
BRANCH   5   8
ATOM      8  O   LIG    1       26.469 -20.080   4.430  0.00  0.00    -0.294 OA
ATOM      9  H   LIG    1       26.326 -21.033   4.262  0.00  0.00    +0.241 HD
ENDBRANCH   5   8
TORSDOF 1
ENDMDL
MODEL 9
REMARK VINA RESULT:      -2.9      1.636      1.686
REMARK  Name = *****
REMARK                            x       y       z     vdW  Elec       q    Type
REMARK                         _______ _______ _______ _____ _____    ______ ____
ROOT
ATOM      1  N   LIG    1       27.452 -13.106   5.360  0.00  0.00    -0.312 N 
ATOM      2  H   LIG    1       27.875 -12.197   5.216  0.00  0.00    +0.146 HD
ATOM      3  H   LIG    1       26.734 -13.122   6.075  0.00  0.00    +0.146 HD
ATOM      4  C   LIG    1       27.067 -13.728   4.213  0.00  0.00    +0.320 C 
ATOM      5  N   LIG    1       27.938 -13.581   3.178  0.00  0.00    -0.181 N 
ATOM      6  H   LIG    1       27.786 -14.109   2.326  0.00  0.00    +0.184 HD
ATOM      7  O   LIG    1       26.027 -14.367   4.141  0.00  0.00    -0.251 OA
ENDROOT
BRANCH   5   8
ATOM      8  O   LIG    1       29.251 -13.134   3.439  0.00  0.00    -0.294 OA
ATOM      9  H   LIG    1       29.092 -12.321   3.960  0.00  0.00    +0.241 HD
ENDBRANCH   5   8
TORSDOF 1
ENDMDL
