MODEL 1
REMARK VINA RESULT:      -3.6      0.000      0.000
REMARK  Name = *****
REMARK                            x       y       z     vdW  Elec       q    Type
REMARK                         _______ _______ _______ _____ _____    ______ ____
ROOT
ATOM      1  C   LIG    1       23.269 -18.870   3.443  0.00  0.00    +0.165 C 
ATOM      2  C   LIG    1       23.385 -17.532   4.121  0.00  0.00    +0.249 C 
ATOM      3  O   LIG    1       22.432 -16.823   4.417  0.00  0.00    -0.273 OA
ATOM      4  N   LIG    1       24.759 -17.231   4.179  0.00  0.00    -0.180 N 
ATOM      5  N   LIG    1       25.515 -18.389   3.844  0.00  0.00    -0.180 N 
ATOM      6  C   LIG    1       24.680 -19.369   3.293  0.00  0.00    +0.249 C 
ATOM      7  O   LIG    1       24.961 -20.462   2.819  0.00  0.00    -0.273 OA
ENDROOT
BRANCH   4   8
ATOM      8  C   LIG    1       25.158 -15.935   3.729  0.00  0.00    +0.057 A 
ATOM      9  C   LIG    1       24.362 -14.820   4.025  0.00  0.00    +0.025 A 
ATOM     10  C   LIG    1       24.719 -13.550   3.566  0.00  0.00    +0.002 A 
ATOM     11  C   LIG    1       25.864 -13.387   2.789  0.00  0.00    +0.000 A 
ATOM     12  C   LIG    1       26.664 -14.487   2.491  0.00  0.00    +0.002 A 
ATOM     13  C   LIG    1       26.324 -15.754   2.973  0.00  0.00    +0.025 A 
ENDBRANCH   4   8
BRANCH   5  14
ATOM     14  C   LIG    1       26.753 -18.684   4.506  0.00  0.00    +0.057 A 
ATOM     15  C   LIG    1       27.841 -17.796   4.433  0.00  0.00    +0.025 A 
ATOM     16  C   LIG    1       29.036 -18.044   5.120  0.00  0.00    +0.002 A 
ATOM     17  C   LIG    1       29.167 -19.186   5.903  0.00  0.00    +0.000 A 
ATOM     18  C   LIG    1       28.108 -20.081   5.987  0.00  0.00    +0.002 A 
ATOM     19  C   LIG    1       26.918 -19.835   5.291  0.00  0.00    +0.025 A 
ENDBRANCH   5  14
BRANCH   1  20
ATOM     20  C   LIG    1       22.362 -19.856   4.173  0.00  0.00    +0.022 C 
BRANCH  20  21
ATOM     21  C   LIG    1       22.710 -20.044   5.655  0.00  0.00    +0.001 C 
BRANCH  21  23
ATOM     22  C   LIG    1       24.147 -21.567   7.053  0.00  0.00    +0.004 C 
ATOM     23  C   LIG    1       23.108 -21.491   5.946  0.00  0.00    -0.003 C 
ENDBRANCH  21  23
ENDBRANCH  20  21
ENDBRANCH   1  20
TORSDOF 5
ENDMDL
MODEL 2
REMARK VINA RESULT:      -1.3      1.914      4.932
REMARK  Name = *****
REMARK                            x       y       z     vdW  Elec       q    Type
REMARK                         _______ _______ _______ _____ _____    ______ ____
ROOT
ATOM      1  C   LIG    1       24.789 -21.008   5.022  0.00  0.00    +0.165 C 
ATOM      2  C   LIG    1       23.502 -20.449   5.565  0.00  0.00    +0.249 C 
ATOM      3  O   LIG    1       22.800 -21.013   6.394  0.00  0.00    -0.273 OA
ATOM      4  N   LIG    1       23.228 -19.284   4.824  0.00  0.00    -0.180 N 
ATOM      5  N   LIG    1       24.374 -18.927   4.058  0.00  0.00    -0.180 N 
ATOM      6  C   LIG    1       25.299 -19.977   4.054  0.00  0.00    +0.249 C 
ATOM      7  O   LIG    1       26.362 -20.082   3.455  0.00  0.00    -0.273 OA
ENDROOT
BRANCH   4   8
ATOM      8  C   LIG    1       21.911 -19.153   4.286  0.00  0.00    +0.057 A 
ATOM      9  C   LIG    1       21.067 -20.270   4.231  0.00  0.00    +0.025 A 
ATOM     10  C   LIG    1       19.788 -20.169   3.678  0.00  0.00    +0.002 A 
ATOM     11  C   LIG    1       19.350 -18.954   3.156  0.00  0.00    +0.000 A 
ATOM     12  C   LIG    1       20.180 -17.836   3.207  0.00  0.00    +0.002 A 
ATOM     13  C   LIG    1       21.448 -17.928   3.785  0.00  0.00    +0.025 A 
ENDBRANCH   4   8
BRANCH   5  14
ATOM     14  C   LIG    1       24.733 -17.552   3.858  0.00  0.00    +0.057 A 
ATOM     15  C   LIG    1       23.834 -16.518   4.171  0.00  0.00    +0.025 A 
ATOM     16  C   LIG    1       24.192 -15.170   4.035  0.00  0.00    +0.002 A 
ATOM     17  C   LIG    1       25.462 -14.827   3.586  0.00  0.00    +0.000 A 
ATOM     18  C   LIG    1       26.367 -15.831   3.265  0.00  0.00    +0.002 A 
ATOM     19  C   LIG    1       26.003 -17.178   3.394  0.00  0.00    +0.025 A 
ENDBRANCH   5  14
BRANCH   1  20
ATOM     20  C   LIG    1       25.808 -21.372   6.098  0.00  0.00    +0.022 C 
BRANCH  20  21
ATOM     21  C   LIG    1       26.408 -20.161   6.823  0.00  0.00    +0.001 C 
BRANCH  21  23
ATOM     22  C   LIG    1       28.727 -19.632   5.999  0.00  0.00    +0.004 C 
ATOM     23  C   LIG    1       27.906 -20.349   7.058  0.00  0.00    -0.003 C 
ENDBRANCH  21  23
ENDBRANCH  20  21
ENDBRANCH   1  20
TORSDOF 5
ENDMDL
MODEL 3
REMARK VINA RESULT:      -1.0      1.916      4.887
REMARK  Name = *****
REMARK                            x       y       z     vdW  Elec       q    Type
REMARK                         _______ _______ _______ _____ _____    ______ ____
ROOT
ATOM      1  C   LIG    1       24.773 -21.078   5.047  0.00  0.00    +0.165 C 
ATOM      2  C   LIG    1       23.473 -20.517   5.556  0.00  0.00    +0.249 C 
ATOM      3  O   LIG    1       22.743 -21.086   6.359  0.00  0.00    -0.273 OA
ATOM      4  N   LIG    1       23.226 -19.345   4.817  0.00  0.00    -0.180 N 
ATOM      5  N   LIG    1       24.395 -18.987   4.089  0.00  0.00    -0.180 N 
ATOM      6  C   LIG    1       25.316 -20.040   4.104  0.00  0.00    +0.249 C 
ATOM      7  O   LIG    1       26.396 -20.145   3.537  0.00  0.00    -0.273 OA
ENDROOT
BRANCH   4   8
ATOM      8  C   LIG    1       21.926 -19.204   4.241  0.00  0.00    +0.057 A 
ATOM      9  C   LIG    1       21.526 -17.966   3.721  0.00  0.00    +0.025 A 
ATOM     10  C   LIG    1       20.247 -17.801   3.183  0.00  0.00    +0.002 A 
ATOM     11  C   LIG    1       19.350 -18.866   3.181  0.00  0.00    +0.000 A 
ATOM     12  C   LIG    1       19.737 -20.103   3.693  0.00  0.00    +0.002 A 
ATOM     13  C   LIG    1       21.026 -20.278   4.205  0.00  0.00    +0.025 A 
ENDBRANCH   4   8
BRANCH   5  14
ATOM     14  C   LIG    1       24.766 -17.612   3.912  0.00  0.00    +0.057 A 
ATOM     15  C   LIG    1       26.053 -17.262   3.467  0.00  0.00    +0.025 A 
ATOM     16  C   LIG    1       26.411 -15.928   3.236  0.00  0.00    +0.002 A 
ATOM     17  C   LIG    1       25.485 -14.912   3.440  0.00  0.00    +0.000 A 
ATOM     18  C   LIG    1       24.208 -15.231   3.884  0.00  0.00    +0.002 A 
ATOM     19  C   LIG    1       23.856 -16.565   4.123  0.00  0.00    +0.025 A 
ENDBRANCH   5  14
BRANCH   1  20
ATOM     20  C   LIG    1       25.758 -21.455   6.151  0.00  0.00    +0.022 C 
BRANCH  20  21
ATOM     21  C   LIG    1       26.447 -20.253   6.809  0.00  0.00    +0.001 C 
BRANCH  21  23
ATOM     22  C   LIG    1       28.727 -19.540   6.016  0.00  0.00    +0.004 C 
ATOM     23  C   LIG    1       27.953 -20.480   6.927  0.00  0.00    -0.003 C 
ENDBRANCH  21  23
ENDBRANCH  20  21
ENDBRANCH   1  20
TORSDOF 5
ENDMDL
