MODEL 1
REMARK VINA RESULT:      -7.0      0.000      0.000
REMARK  Name = *****
REMARK                            x       y       z     vdW  Elec       q    Type
REMARK                         _______ _______ _______ _____ _____    ______ ____
ROOT
ATOM      1  CB  TYR A  1       29.054 -20.315   6.508  0.00  0.00    +0.065 C 
ENDROOT
BRANCH   1   2
ATOM      2  CG  TYR A  1       27.586 -20.425   6.864  0.00  0.00    -0.045 A 
ATOM      3  CD2 TYR A  1       26.616 -20.463   5.852  0.00  0.00    +0.007 A 
ATOM      4  CE2 TYR A  1       25.263 -20.604   6.170  0.00  0.00    +0.045 A 
ATOM      5  CZ  TYR A  1       24.875 -20.714   7.499  0.00  0.00    +0.117 A 
ATOM      6  CE1 TYR A  1       25.819 -20.684   8.519  0.00  0.00    +0.045 A 
ATOM      7  CD1 TYR A  1       27.174 -20.541   8.201  0.00  0.00    +0.007 A 
BRANCH   5   8
ATOM      8  OH  TYR A  1       23.546 -20.859   7.762  0.00  0.00    -0.507 OA
ATOM      9  HH  TYR A  1       23.127 -19.983   7.745  0.00  0.00    +0.292 HD
ENDBRANCH   5   8
ENDBRANCH   1   2
BRANCH   1  10
ATOM     10  CA  TYR A  1       29.663 -18.918   6.710  0.00  0.00    +0.165 C 
BRANCH  10  11
ATOM     11  N   TYR A  1       29.833 -18.139   5.443  0.00  0.00    -0.318 NA
ATOM     12  H1  TYR A  1       29.868 -17.143   5.687  0.00  0.00    +0.119 HD
ATOM     13  H2  TYR A  1       30.779 -18.331   5.095  0.00  0.00    +0.119 HD
ENDBRANCH  10  11
BRANCH  10  14
ATOM     14  C   TYR A  1       31.044 -19.026   7.378  0.00  0.00    +0.322 C 
ATOM     15  O   TYR A  1       31.718 -18.091   7.789  0.00  0.00    -0.249 OA
BRANCH  14  16
ATOM     16  OXT TYR A  1       31.453 -20.322   7.433  0.00  0.00    -0.479 OA
ATOM     17  HXT TYR A  1       31.616 -20.599   6.497  0.00  0.00    +0.295 HD
ENDBRANCH  14  16
ENDBRANCH  10  14
ENDBRANCH   1  10
TORSDOF 6
ENDMDL
MODEL 2
REMARK VINA RESULT:      -7.0      0.055      1.341
REMARK  Name = *****
REMARK                            x       y       z     vdW  Elec       q    Type
REMARK                         _______ _______ _______ _____ _____    ______ ____
ROOT
ATOM      1  CB  TYR A  1       29.080 -20.350   6.509  0.00  0.00    +0.065 C 
ENDROOT
BRANCH   1   2
ATOM      2  CG  TYR A  1       27.609 -20.498   6.835  0.00  0.00    -0.045 A 
ATOM      3  CD2 TYR A  1       27.189 -20.610   8.169  0.00  0.00    +0.007 A 
ATOM      4  CE2 TYR A  1       25.832 -20.708   8.481  0.00  0.00    +0.045 A 
ATOM      5  CZ  TYR A  1       24.887 -20.688   7.463  0.00  0.00    +0.117 A 
ATOM      6  CE1 TYR A  1       25.278 -20.574   6.134  0.00  0.00    +0.045 A 
ATOM      7  CD1 TYR A  1       26.638 -20.478   5.821  0.00  0.00    +0.007 A 
BRANCH   5   8
ATOM      8  OH  TYR A  1       23.574 -20.777   7.815  0.00  0.00    -0.507 OA
ATOM      9  HH  TYR A  1       23.423 -21.635   8.247  0.00  0.00    +0.292 HD
ENDBRANCH   5   8
ENDBRANCH   1   2
BRANCH   1  10
ATOM     10  CA  TYR A  1       29.649 -18.939   6.725  0.00  0.00    +0.165 C 
BRANCH  10  11
ATOM     11  N   TYR A  1       29.791 -18.141   5.466  0.00  0.00    -0.318 NA
ATOM     12  H1  TYR A  1       30.431 -18.646   4.843  0.00  0.00    +0.119 HD
ATOM     13  H2  TYR A  1       28.892 -18.191   4.973  0.00  0.00    +0.119 HD
ENDBRANCH  10  11
BRANCH  10  14
ATOM     14  C   TYR A  1       31.035 -19.014   7.385  0.00  0.00    +0.322 C 
ATOM     15  O   TYR A  1       31.689 -18.064   7.794  0.00  0.00    -0.249 OA
BRANCH  14  16
ATOM     16  OXT TYR A  1       31.476 -20.300   7.437  0.00  0.00    -0.479 OA
ATOM     17  HXT TYR A  1       32.319 -20.323   6.920  0.00  0.00    +0.295 HD
ENDBRANCH  14  16
ENDBRANCH  10  14
ENDBRANCH   1  10
TORSDOF 6
ENDMDL
MODEL 3
REMARK VINA RESULT:      -6.8      2.895      3.804
REMARK  Name = *****
REMARK                            x       y       z     vdW  Elec       q    Type
REMARK                         _______ _______ _______ _____ _____    ______ ____
ROOT
ATOM      1  CB  TYR A  1       31.189 -18.846   8.526  0.00  0.00    +0.065 C 
ENDROOT
BRANCH   1   2
ATOM      2  CG  TYR A  1       30.122 -19.236   7.526  0.00  0.00    -0.045 A 
ATOM      3  CD2 TYR A  1       29.324 -20.367   7.749  0.00  0.00    +0.007 A 
ATOM      4  CE2 TYR A  1       28.311 -20.711   6.851  0.00  0.00    +0.045 A 
ATOM      5  CZ  TYR A  1       28.088 -19.923   5.729  0.00  0.00    +0.117 A 
ATOM      6  CE1 TYR A  1       28.862 -18.794   5.488  0.00  0.00    +0.045 A 
ATOM      7  CD1 TYR A  1       29.878 -18.451   6.387  0.00  0.00    +0.007 A 
BRANCH   5   8
ATOM      8  OH  TYR A  1       27.083 -20.292   4.885  0.00  0.00    -0.507 OA
ATOM      9  HH  TYR A  1       26.707 -19.493   4.479  0.00  0.00    +0.292 HD
ENDBRANCH   5   8
ENDBRANCH   1   2
BRANCH   1  10
ATOM     10  CA  TYR A  1       31.104 -17.396   9.027  0.00  0.00    +0.165 C 
BRANCH  10  11
ATOM     11  N   TYR A  1       32.400 -16.651   8.955  0.00  0.00    -0.318 NA
ATOM     12  H1  TYR A  1       32.373 -16.050   8.124  0.00  0.00    +0.119 HD
ATOM     13  H2  TYR A  1       32.407 -15.980   9.732  0.00  0.00    +0.119 HD
ENDBRANCH  10  11
BRANCH  10  14
ATOM     14  C   TYR A  1       30.628 -17.359  10.489  0.00  0.00    +0.322 C 
ATOM     15  O   TYR A  1       30.311 -16.358  11.117  0.00  0.00    -0.249 OA
BRANCH  14  16
ATOM     16  OXT TYR A  1       30.628 -18.608  11.028  0.00  0.00    -0.479 OA
ATOM     17  HXT TYR A  1       29.957 -18.594  11.755  0.00  0.00    +0.295 HD
ENDBRANCH  14  16
ENDBRANCH  10  14
ENDBRANCH   1  10
TORSDOF 6
ENDMDL
MODEL 4
REMARK VINA RESULT:      -6.7      2.546      3.106
REMARK  Name = *****
REMARK                            x       y       z     vdW  Elec       q    Type
REMARK                         _______ _______ _______ _____ _____    ______ ____
ROOT
ATOM      1  CB  TYR A  1       26.876 -20.595   7.942  0.00  0.00    +0.065 C 
ENDROOT
BRANCH   1   2
ATOM      2  CG  TYR A  1       25.722 -21.513   7.601  0.00  0.00    -0.045 A 
ATOM      3  CD2 TYR A  1       24.411 -21.015   7.563  0.00  0.00    +0.007 A 
ATOM      4  CE2 TYR A  1       23.346 -21.846   7.211  0.00  0.00    +0.045 A 
ATOM      5  CZ  TYR A  1       23.585 -23.175   6.889  0.00  0.00    +0.117 A 
ATOM      6  CE1 TYR A  1       24.876 -23.692   6.915  0.00  0.00    +0.045 A 
ATOM      7  CD1 TYR A  1       25.943 -22.860   7.269  0.00  0.00    +0.007 A 
BRANCH   5   8
ATOM      8  OH  TYR A  1       22.516 -23.947   6.543  0.00  0.00    -0.507 OA
ATOM      9  HH  TYR A  1       22.221 -23.691   5.653  0.00  0.00    +0.292 HD
ENDBRANCH   5   8
ENDBRANCH   1   2
BRANCH   1  10
ATOM     10  CA  TYR A  1       28.213 -20.967   7.281  0.00  0.00    +0.165 C 
BRANCH  10  11
ATOM     11  N   TYR A  1       29.362 -21.048   8.237  0.00  0.00    -0.318 NA
ATOM     12  H1  TYR A  1       30.183 -21.379   7.717  0.00  0.00    +0.119 HD
ATOM     13  H2  TYR A  1       29.614 -20.086   8.489  0.00  0.00    +0.119 HD
ENDBRANCH  10  11
BRANCH  10  14
ATOM     14  C   TYR A  1       28.581 -19.940   6.198  0.00  0.00    +0.322 C 
ATOM     15  O   TYR A  1       29.408 -19.044   6.309  0.00  0.00    -0.249 OA
BRANCH  14  16
ATOM     16  OXT TYR A  1       27.835 -20.132   5.078  0.00  0.00    -0.479 OA
ATOM     17  HXT TYR A  1       28.468 -20.107   4.318  0.00  0.00    +0.295 HD
ENDBRANCH  14  16
ENDBRANCH  10  14
ENDBRANCH   1  10
TORSDOF 6
ENDMDL
MODEL 5
REMARK VINA RESULT:      -6.6      2.368      2.846
REMARK  Name = *****
REMARK                            x       y       z     vdW  Elec       q    Type
REMARK                         _______ _______ _______ _____ _____    ______ ____
ROOT
ATOM      1  CB  TYR A  1       27.313 -21.749   7.755  0.00  0.00    +0.065 C 
ENDROOT
BRANCH   1   2
ATOM      2  CG  TYR A  1       25.930 -22.265   7.419  0.00  0.00    -0.045 A 
ATOM      3  CD2 TYR A  1       25.761 -23.574   6.945  0.00  0.00    +0.007 A 
ATOM      4  CE2 TYR A  1       24.486 -24.071   6.670  0.00  0.00    +0.045 A 
ATOM      5  CZ  TYR A  1       23.373 -23.265   6.871  0.00  0.00    +0.117 A 
ATOM      6  CE1 TYR A  1       23.514 -21.965   7.344  0.00  0.00    +0.045 A 
ATOM      7  CD1 TYR A  1       24.792 -21.467   7.618  0.00  0.00    +0.007 A 
BRANCH   5   8
ATOM      8  OH  TYR A  1       22.148 -23.795   6.597  0.00  0.00    -0.507 OA
ATOM      9  HH  TYR A  1       21.985 -23.728   5.642  0.00  0.00    +0.292 HD
ENDBRANCH   5   8
ENDBRANCH   1   2
BRANCH   1  10
ATOM     10  CA  TYR A  1       27.648 -20.370   7.164  0.00  0.00    +0.165 C 
BRANCH  10  11
ATOM     11  N   TYR A  1       27.656 -20.335   5.668  0.00  0.00    -0.318 NA
ATOM     12  H1  TYR A  1       26.771 -19.921   5.356  0.00  0.00    +0.119 HD
ATOM     13  H2  TYR A  1       28.356 -19.639   5.385  0.00  0.00    +0.119 HD
ENDBRANCH  10  11
BRANCH  10  14
ATOM     14  C   TYR A  1       29.030 -19.900   7.648  0.00  0.00    +0.322 C 
ATOM     15  O   TYR A  1       29.250 -19.214   8.638  0.00  0.00    -0.249 OA
BRANCH  14  16
ATOM     16  OXT TYR A  1       30.007 -20.325   6.803  0.00  0.00    -0.479 OA
ATOM     17  HXT TYR A  1       30.089 -21.301   6.947  0.00  0.00    +0.295 HD
ENDBRANCH  14  16
ENDBRANCH  10  14
ENDBRANCH   1  10
TORSDOF 6
ENDMDL
MODEL 6
REMARK VINA RESULT:      -6.6      4.089      6.383
REMARK  Name = *****
REMARK                            x       y       z     vdW  Elec       q    Type
REMARK                         _______ _______ _______ _____ _____    ______ ____
ROOT
ATOM      1  CB  TYR A  1       30.175 -18.368   8.455  0.00  0.00    +0.065 C 
ENDROOT
BRANCH   1   2
ATOM      2  CG  TYR A  1       30.938 -17.577   9.496  0.00  0.00    -0.045 A 
ATOM      3  CD2 TYR A  1       32.144 -16.946   9.159  0.00  0.00    +0.007 A 
ATOM      4  CE2 TYR A  1       32.834 -16.182  10.102  0.00  0.00    +0.045 A 
ATOM      5  CZ  TYR A  1       32.319 -16.041  11.384  0.00  0.00    +0.117 A 
ATOM      6  CE1 TYR A  1       31.123 -16.653  11.742  0.00  0.00    +0.045 A 
ATOM      7  CD1 TYR A  1       30.433 -17.420  10.797  0.00  0.00    +0.007 A 
BRANCH   5   8
ATOM      8  OH  TYR A  1       33.022 -15.279  12.270  0.00  0.00    -0.507 OA
ATOM      9  HH  TYR A  1       32.498 -15.180  13.082  0.00  0.00    +0.292 HD
ENDBRANCH   5   8
ENDBRANCH   1   2
BRANCH   1  10
ATOM     10  CA  TYR A  1       30.966 -19.518   7.811  0.00  0.00    +0.165 C 
BRANCH  10  11
ATOM     11  N   TYR A  1       30.414 -19.976   6.497  0.00  0.00    -0.318 NA
ATOM     12  H1  TYR A  1       31.198 -20.307   5.923  0.00  0.00    +0.119 HD
ATOM     13  H2  TYR A  1       29.874 -20.830   6.677  0.00  0.00    +0.119 HD
ENDBRANCH  10  11
BRANCH  10  14
ATOM     14  C   TYR A  1       31.003 -20.736   8.749  0.00  0.00    +0.322 C 
ATOM     15  O   TYR A  1       30.053 -21.455   9.030  0.00  0.00    -0.249 OA
BRANCH  14  16
ATOM     16  OXT TYR A  1       32.248 -20.908   9.268  0.00  0.00    -0.479 OA
ATOM     17  HXT TYR A  1       32.844 -21.089   8.499  0.00  0.00    +0.295 HD
ENDBRANCH  14  16
ENDBRANCH  10  14
ENDBRANCH   1  10
TORSDOF 6
ENDMDL
MODEL 7
REMARK VINA RESULT:      -6.5      1.658      2.241
REMARK  Name = *****
REMARK                            x       y       z     vdW  Elec       q    Type
REMARK                         _______ _______ _______ _____ _____    ______ ____
ROOT
ATOM      1  CB  TYR A  1       28.066 -19.935   7.777  0.00  0.00    +0.065 C 
ENDROOT
BRANCH   1   2
ATOM      2  CG  TYR A  1       26.760 -20.391   7.162  0.00  0.00    -0.045 A 
ATOM      3  CD2 TYR A  1       25.705 -20.818   7.982  0.00  0.00    +0.007 A 
ATOM      4  CE2 TYR A  1       24.484 -21.203   7.426  0.00  0.00    +0.045 A 
ATOM      5  CZ  TYR A  1       24.308 -21.158   6.049  0.00  0.00    +0.117 A 
ATOM      6  CE1 TYR A  1       25.337 -20.734   5.215  0.00  0.00    +0.045 A 
ATOM      7  CD1 TYR A  1       26.561 -20.350   5.773  0.00  0.00    +0.007 A 
BRANCH   5   8
ATOM      8  OH  TYR A  1       23.097 -21.535   5.551  0.00  0.00    -0.507 OA
ATOM      9  HH  TYR A  1       23.240 -22.076   4.757  0.00  0.00    +0.292 HD
ENDBRANCH   5   8
ENDBRANCH   1   2
BRANCH   1  10
ATOM     10  CA  TYR A  1       29.326 -20.531   7.129  0.00  0.00    +0.165 C 
BRANCH  10  11
ATOM     11  N   TYR A  1       30.083 -21.465   8.020  0.00  0.00    -0.318 NA
ATOM     12  H1  TYR A  1       30.198 -21.009   8.932  0.00  0.00    +0.119 HD
ATOM     13  H2  TYR A  1       29.463 -22.256   8.227  0.00  0.00    +0.119 HD
ENDBRANCH  10  11
BRANCH  10  14
ATOM     14  C   TYR A  1       30.290 -19.412   6.702  0.00  0.00    +0.322 C 
ATOM     15  O   TYR A  1       29.976 -18.360   6.161  0.00  0.00    -0.249 OA
BRANCH  14  16
ATOM     16  OXT TYR A  1       31.577 -19.753   6.979  0.00  0.00    -0.479 OA
ATOM     17  HXT TYR A  1       31.616 -20.741   6.932  0.00  0.00    +0.295 HD
ENDBRANCH  14  16
ENDBRANCH  10  14
ENDBRANCH   1  10
TORSDOF 6
ENDMDL
MODEL 8
REMARK VINA RESULT:      -6.5      2.215      5.405
REMARK  Name = *****
REMARK                            x       y       z     vdW  Elec       q    Type
REMARK                         _______ _______ _______ _____ _____    ______ ____
ROOT
ATOM      1  CB  TYR A  1       27.293 -20.383   6.499  0.00  0.00    +0.065 C 
ENDROOT
BRANCH   1   2
ATOM      2  CG  TYR A  1       28.630 -20.253   7.195  0.00  0.00    -0.045 A 
ATOM      3  CD2 TYR A  1       29.300 -19.021   7.212  0.00  0.00    +0.007 A 
ATOM      4  CE2 TYR A  1       30.516 -18.881   7.885  0.00  0.00    +0.045 A 
ATOM      5  CZ  TYR A  1       31.064 -19.970   8.549  0.00  0.00    +0.117 A 
ATOM      6  CE1 TYR A  1       30.418 -21.201   8.551  0.00  0.00    +0.045 A 
ATOM      7  CD1 TYR A  1       29.201 -21.341   7.875  0.00  0.00    +0.007 A 
BRANCH   5   8
ATOM      8  OH  TYR A  1       32.248 -19.786   9.200  0.00  0.00    -0.507 OA
ATOM      9  HH  TYR A  1       32.202 -18.955   9.702  0.00  0.00    +0.292 HD
ENDBRANCH   5   8
ENDBRANCH   1   2
BRANCH   1  10
ATOM     10  CA  TYR A  1       26.394 -21.509   7.036  0.00  0.00    +0.165 C 
BRANCH  10  11
ATOM     11  N   TYR A  1       25.636 -22.241   5.973  0.00  0.00    -0.318 NA
ATOM     12  H1  TYR A  1       24.692 -22.427   6.330  0.00  0.00    +0.119 HD
ATOM     13  H2  TYR A  1       25.473 -21.578   5.206  0.00  0.00    +0.119 HD
ENDBRANCH  10  11
BRANCH  10  14
ATOM     14  C   TYR A  1       25.369 -20.947   8.034  0.00  0.00    +0.322 C 
ATOM     15  O   TYR A  1       24.200 -20.677   7.789  0.00  0.00    -0.249 OA
BRANCH  14  16
ATOM     16  OXT TYR A  1       25.939 -20.752   9.253  0.00  0.00    -0.479 OA
ATOM     17  HXT TYR A  1       26.814 -21.214   9.224  0.00  0.00    +0.295 HD
ENDBRANCH  14  16
ENDBRANCH  10  14
ENDBRANCH   1  10
TORSDOF 6
ENDMDL
MODEL 9
REMARK VINA RESULT:      -6.4      5.796      7.833
REMARK  Name = *****
REMARK                            x       y       z     vdW  Elec       q    Type
REMARK                         _______ _______ _______ _____ _____    ______ ____
ROOT
ATOM      1  CB  TYR A  1       24.200 -26.081   5.719  0.00  0.00    +0.065 C 
ENDROOT
BRANCH   1   2
ATOM      2  CG  TYR A  1       24.314 -24.732   6.396  0.00  0.00    -0.045 A 
ATOM      3  CD2 TYR A  1       25.565 -24.253   6.809  0.00  0.00    +0.007 A 
ATOM      4  CE2 TYR A  1       25.685 -22.992   7.398  0.00  0.00    +0.045 A 
ATOM      5  CZ  TYR A  1       24.555 -22.203   7.572  0.00  0.00    +0.117 A 
ATOM      6  CE1 TYR A  1       23.304 -22.653   7.166  0.00  0.00    +0.045 A 
ATOM      7  CD1 TYR A  1       23.185 -23.917   6.578  0.00  0.00    +0.007 A 
BRANCH   5   8
ATOM      8  OH  TYR A  1       24.721 -20.976   8.143  0.00  0.00    -0.507 OA
ATOM      9  HH  TYR A  1       23.861 -20.523   8.165  0.00  0.00    +0.292 HD
ENDBRANCH   5   8
ENDBRANCH   1   2
BRANCH   1  10
ATOM     10  CA  TYR A  1       25.088 -27.181   6.322  0.00  0.00    +0.165 C 
BRANCH  10  11
ATOM     11  N   TYR A  1       26.335 -27.452   5.541  0.00  0.00    -0.318 NA
ATOM     12  H1  TYR A  1       27.137 -27.206   6.131  0.00  0.00    +0.119 HD
ATOM     13  H2  TYR A  1       26.417 -28.471   5.445  0.00  0.00    +0.119 HD
ENDBRANCH  10  11
BRANCH  10  14
ATOM     14  C   TYR A  1       24.309 -28.503   6.426  0.00  0.00    +0.322 C 
ATOM     15  O   TYR A  1       24.267 -29.237   7.405  0.00  0.00    -0.249 OA
BRANCH  14  16
ATOM     16  OXT TYR A  1       23.675 -28.783   5.256  0.00  0.00    -0.479 OA
ATOM     17  HXT TYR A  1       22.706 -28.751   5.454  0.00  0.00    +0.295 HD
ENDBRANCH  14  16
ENDBRANCH  10  14
ENDBRANCH   1  10
TORSDOF 6
ENDMDL
