MODEL 1
REMARK VINA RESULT:      32.8      0.000      0.000
REMARK  Name = *****
REMARK                            x       y       z     vdW  Elec       q    Type
REMARK                         _______ _______ _______ _____ _____    ______ ____
ROOT
ATOM      1  O   LIG    1       26.881 -12.287   6.440  0.00  0.00    -0.283 OA
ATOM      2  C   LIG    1       26.673 -12.820   5.349  0.00  0.00    +0.228 C 
ATOM      3  C   LIG    1       25.470 -13.677   5.193  0.00  0.00    +0.171 C 
ATOM      4  C   LIG    1       25.177 -14.340   4.060  0.00  0.00    +0.048 C 
ATOM      5  C   LIG    1       26.168 -14.252   2.926  0.00  0.00    +0.194 C 
ATOM      6  O   LIG    1       26.075 -14.967   1.931  0.00  0.00    -0.287 OA
ATOM      7  C   LIG    1       27.294 -13.299   3.017  0.00  0.00    +0.033 A 
ATOM      8  C   LIG    1       28.134 -13.088   1.914  0.00  0.00    +0.012 A 
ATOM      9  C   LIG    1       29.215 -12.206   2.012  0.00  0.00    +0.001 A 
ATOM     10  C   LIG    1       29.471 -11.541   3.211  0.00  0.00    +0.001 A 
ATOM     11  C   LIG    1       28.638 -11.747   4.308  0.00  0.00    +0.012 A 
ATOM     12  C   LIG    1       27.549 -12.621   4.201  0.00  0.00    +0.036 A 
ENDROOT
BRANCH   4  13
ATOM     13  C   LIG    1       23.993 -15.289   3.811  0.00  0.00    +0.026 C 
ATOM     14  C   LIG    1       24.124 -16.338   2.683  0.00  0.00    +0.009 C 
ATOM     15  C   LIG    1       24.884 -17.624   3.058  0.00  0.00    +0.009 C 
ATOM     16  C   LIG    1       24.457 -18.262   4.394  0.00  0.00    +0.019 C 
ATOM     17  C   LIG    1       24.397 -17.178   5.487  0.00  0.00    +0.009 C 
ATOM     18  C   LIG    1       23.503 -16.007   5.089  0.00  0.00    +0.009 C 
BRANCH  16  19
ATOM     19  C   LIG    1       23.203 -19.135   4.347  0.00  0.00    -0.044 A 
ATOM     20  C   LIG    1       22.001 -18.581   3.869  0.00  0.00    +0.005 A 
ATOM     21  C   LIG    1       20.821 -19.331   3.836  0.00  0.00    +0.020 A 
ATOM     22  C   LIG    1       20.824 -20.643   4.294  0.00  0.00    +0.041 A 
ATOM     23 CL   LIG    1       19.375 -21.569   4.267  0.00  0.00    -0.084 Cl
ATOM     24  C   LIG    1       21.994 -21.209   4.785  0.00  0.00    +0.020 A 
ATOM     25  C   LIG    1       23.171 -20.458   4.814  0.00  0.00    +0.005 A 
ENDBRANCH  16  19
ENDBRANCH   4  13
BRANCH   3  26
ATOM     26  O   LIG    1       24.693 -13.747   6.332  0.00  0.00    -0.503 OA
ATOM     27  H   LIG    1       24.245 -12.875   6.403  0.00  0.00    +0.292 HD
ENDBRANCH   3  26
TORSDOF 3
ENDMDL
MODEL 2
REMARK VINA RESULT:      35.1      1.406      2.892
REMARK  Name = *****
REMARK                            x       y       z     vdW  Elec       q    Type
REMARK                         _______ _______ _______ _____ _____    ______ ____
ROOT
ATOM      1  O   LIG    1       29.318 -13.636   2.716  0.00  0.00    -0.283 OA
ATOM      2  C   LIG    1       28.308 -13.937   3.353  0.00  0.00    +0.228 C 
ATOM      3  C   LIG    1       27.511 -15.110   2.911  0.00  0.00    +0.171 C 
ATOM      4  C   LIG    1       26.368 -15.494   3.508  0.00  0.00    +0.048 C 
ATOM      5  C   LIG    1       25.851 -14.637   4.637  0.00  0.00    +0.194 C 
ATOM      6  O   LIG    1       24.731 -14.806   5.113  0.00  0.00    -0.287 OA
ATOM      7  C   LIG    1       26.699 -13.552   5.174  0.00  0.00    +0.033 A 
ATOM      8  C   LIG    1       26.305 -12.849   6.321  0.00  0.00    +0.012 A 
ATOM      9  C   LIG    1       27.096 -11.805   6.812  0.00  0.00    +0.001 A 
ATOM     10  C   LIG    1       28.275 -11.450   6.155  0.00  0.00    +0.001 A 
ATOM     11  C   LIG    1       28.670 -12.148   5.016  0.00  0.00    +0.012 A 
ATOM     12  C   LIG    1       27.880 -13.201   4.536  0.00  0.00    +0.036 A 
ENDROOT
BRANCH   4  13
ATOM     13  C   LIG    1       25.445 -16.654   3.101  0.00  0.00    +0.026 C 
ATOM     14  C   LIG    1       25.539 -17.975   3.899  0.00  0.00    +0.009 C 
ATOM     15  C   LIG    1       24.752 -18.008   5.222  0.00  0.00    +0.009 C 
ATOM     16  C   LIG    1       23.303 -17.493   5.128  0.00  0.00    +0.019 C 
ATOM     17  C   LIG    1       23.282 -16.151   4.371  0.00  0.00    +0.009 C 
ATOM     18  C   LIG    1       23.956 -16.248   3.005  0.00  0.00    +0.009 C 
BRANCH  16  19
ATOM     19  C   LIG    1       22.271 -18.491   4.603  0.00  0.00    -0.044 A 
ATOM     20  C   LIG    1       22.510 -19.869   4.762  0.00  0.00    +0.005 A 
ATOM     21  C   LIG    1       21.610 -20.821   4.272  0.00  0.00    +0.020 A 
ATOM     22  C   LIG    1       20.464 -20.408   3.603  0.00  0.00    +0.041 A 
ATOM     23 CL   LIG    1       19.357 -21.571   2.988  0.00  0.00    -0.084 Cl
ATOM     24  C   LIG    1       20.212 -19.054   3.420  0.00  0.00    +0.020 A 
ATOM     25  C   LIG    1       21.112 -18.106   3.914  0.00  0.00    +0.005 A 
ENDBRANCH  16  19
ENDBRANCH   4  13
BRANCH   3  26
ATOM     26  O   LIG    1       28.043 -15.754   1.812  0.00  0.00    -0.503 OA
ATOM     27  H   LIG    1       28.405 -16.603   2.151  0.00  0.00    +0.292 HD
ENDBRANCH   3  26
TORSDOF 3
ENDMDL
