MODEL 1
REMARK VINA RESULT:      -3.5      0.000      0.000
REMARK  Name = *****
REMARK                            x       y       z     vdW  Elec       q    Type
REMARK                         _______ _______ _______ _____ _____    ______ ____
ROOT
ATOM      1  C   LIG    1       30.018 -18.071   8.712  0.00  0.00    +0.192 C 
ATOM      2  N   LIG    1       29.872 -19.183   7.673  0.00  0.00    +0.238 N 
ATOM      3  C   LIG    1       29.762 -18.551   6.295  0.00  0.00    +0.192 C 
ATOM      4  C   LIG    1       28.591 -19.955   7.980  0.00  0.00    +0.192 C 
ENDROOT
BRANCH   2   5
ATOM      5  C   LIG    1       31.120 -20.098   7.784  0.00  0.00    +0.160 C 
BRANCH   5   6
ATOM      6  C   LIG    1       30.992 -21.263   8.780  0.00  0.00    +0.206 C 
BRANCH   6   7
ATOM      7  O   LIG    1       32.195 -21.444   9.515  0.00  0.00    -0.390 OA
ATOM      8  H   LIG    1       32.928 -21.109   8.966  0.00  0.00    +0.210 HD
ENDBRANCH   6   7
ENDBRANCH   5   6
ENDBRANCH   2   5
TORSDOF 3
ENDMDL
MODEL 2
REMARK VINA RESULT:      -3.5      5.495      6.641
REMARK  Name = *****
REMARK                            x       y       z     vdW  Elec       q    Type
REMARK                         _______ _______ _______ _____ _____    ______ ____
ROOT
ATOM      1  C   LIG    1       24.682 -22.205   5.278  0.00  0.00    +0.192 C 
ATOM      2  N   LIG    1       23.989 -22.044   6.632  0.00  0.00    +0.238 N 
ATOM      3  C   LIG    1       23.003 -23.186   6.813  0.00  0.00    +0.192 C 
ATOM      4  C   LIG    1       23.232 -20.718   6.624  0.00  0.00    +0.192 C 
ENDROOT
BRANCH   2   5
ATOM      5  C   LIG    1       25.087 -22.059   7.727  0.00  0.00    +0.160 C 
BRANCH   5   6
ATOM      6  C   LIG    1       25.738 -20.695   8.019  0.00  0.00    +0.206 C 
BRANCH   6   7
ATOM      7  O   LIG    1       25.926 -20.506   9.416  0.00  0.00    -0.390 OA
ATOM      8  H   LIG    1       25.968 -19.545   9.580  0.00  0.00    +0.210 HD
ENDBRANCH   6   7
ENDBRANCH   5   6
ENDBRANCH   2   5
TORSDOF 3
ENDMDL
MODEL 3
REMARK VINA RESULT:      -3.4      1.936      2.818
REMARK  Name = *****
REMARK                            x       y       z     vdW  Elec       q    Type
REMARK                         _______ _______ _______ _____ _____    ______ ____
ROOT
ATOM      1  C   LIG    1       30.522 -19.172   6.457  0.00  0.00    +0.192 C 
ATOM      2  N   LIG    1       30.080 -19.455   7.893  0.00  0.00    +0.238 N 
ATOM      3  C   LIG    1       30.932 -20.582   8.452  0.00  0.00    +0.192 C 
ATOM      4  C   LIG    1       28.617 -19.894   7.863  0.00  0.00    +0.192 C 
ENDROOT
BRANCH   2   5
ATOM      5  C   LIG    1       30.258 -18.146   8.707  0.00  0.00    +0.160 C 
BRANCH   5   6
ATOM      6  C   LIG    1       31.671 -17.911   9.267  0.00  0.00    +0.206 C 
BRANCH   6   7
ATOM      7  O   LIG    1       32.370 -16.937   8.502  0.00  0.00    -0.390 OA
ATOM      8  H   LIG    1       33.305 -17.212   8.459  0.00  0.00    +0.210 HD
ENDBRANCH   6   7
ENDBRANCH   5   6
ENDBRANCH   2   5
TORSDOF 3
ENDMDL
MODEL 4
REMARK VINA RESULT:      -3.4      2.166      2.906
REMARK  Name = *****
REMARK                            x       y       z     vdW  Elec       q    Type
REMARK                         _______ _______ _______ _____ _____    ______ ____
ROOT
ATOM      1  C   LIG    1       28.860 -19.658   8.054  0.00  0.00    +0.192 C 
ATOM      2  N   LIG    1       30.349 -19.309   8.031  0.00  0.00    +0.238 N 
ATOM      3  C   LIG    1       30.813 -19.253   6.585  0.00  0.00    +0.192 C 
ATOM      4  C   LIG    1       31.108 -20.413   8.765  0.00  0.00    +0.192 C 
ENDROOT
BRANCH   2   5
ATOM      5  C   LIG    1       30.522 -17.940   8.739  0.00  0.00    +0.160 C 
BRANCH   5   6
ATOM      6  C   LIG    1       31.945 -17.639   9.243  0.00  0.00    +0.206 C 
BRANCH   6   7
ATOM      7  O   LIG    1       32.484 -16.492   8.599  0.00  0.00    -0.390 OA
ATOM      8  H   LIG    1       32.935 -15.958   9.279  0.00  0.00    +0.210 HD
ENDBRANCH   6   7
ENDBRANCH   5   6
ENDBRANCH   2   5
TORSDOF 3
ENDMDL
MODEL 5
REMARK VINA RESULT:      -3.4      5.105      5.989
REMARK  Name = *****
REMARK                            x       y       z     vdW  Elec       q    Type
REMARK                         _______ _______ _______ _____ _____    ______ ____
ROOT
ATOM      1  C   LIG    1       24.861 -22.519   5.759  0.00  0.00    +0.192 C 
ATOM      2  N   LIG    1       24.800 -21.005   5.971  0.00  0.00    +0.238 N 
ATOM      3  C   LIG    1       23.409 -20.638   6.461  0.00  0.00    +0.192 C 
ATOM      4  C   LIG    1       25.058 -20.327   4.627  0.00  0.00    +0.192 C 
ENDROOT
BRANCH   2   5
ATOM      5  C   LIG    1       25.889 -20.631   7.009  0.00  0.00    +0.160 C 
BRANCH   5   6
ATOM      6  C   LIG    1       25.806 -21.388   8.346  0.00  0.00    +0.206 C 
BRANCH   6   7
ATOM      7  O   LIG    1       25.935 -20.497   9.448  0.00  0.00    -0.390 OA
ATOM      8  H   LIG    1       25.921 -19.588   9.094  0.00  0.00    +0.210 HD
ENDBRANCH   6   7
ENDBRANCH   5   6
ENDBRANCH   2   5
TORSDOF 3
ENDMDL
MODEL 6
REMARK VINA RESULT:      -3.4      6.616      7.492
REMARK  Name = *****
REMARK                            x       y       z     vdW  Elec       q    Type
REMARK                         _______ _______ _______ _____ _____    ______ ____
ROOT
ATOM      1  C   LIG    1       23.467 -24.154   6.682  0.00  0.00    +0.192 C 
ATOM      2  N   LIG    1       24.860 -23.838   6.137  0.00  0.00    +0.238 N 
ATOM      3  C   LIG    1       25.782 -23.532   7.305  0.00  0.00    +0.192 C 
ATOM      4  C   LIG    1       24.752 -22.607   5.240  0.00  0.00    +0.192 C 
ENDROOT
BRANCH   2   5
ATOM      5  C   LIG    1       25.344 -25.076   5.337  0.00  0.00    +0.160 C 
BRANCH   5   6
ATOM      6  C   LIG    1       26.000 -26.185   6.179  0.00  0.00    +0.206 C 
BRANCH   6   7
ATOM      7  O   LIG    1       27.160 -26.698   5.537  0.00  0.00    -0.390 OA
ATOM      8  H   LIG    1       26.864 -27.341   4.866  0.00  0.00    +0.210 HD
ENDBRANCH   6   7
ENDBRANCH   5   6
ENDBRANCH   2   5
TORSDOF 3
ENDMDL
MODEL 7
REMARK VINA RESULT:      -3.4      5.074      5.790
REMARK  Name = *****
REMARK                            x       y       z     vdW  Elec       q    Type
REMARK                         _______ _______ _______ _____ _____    ______ ____
ROOT
ATOM      1  C   LIG    1       23.468 -20.695   6.585  0.00  0.00    +0.192 C 
ATOM      2  N   LIG    1       24.829 -21.062   5.992  0.00  0.00    +0.238 N 
ATOM      3  C   LIG    1       24.987 -20.353   4.658  0.00  0.00    +0.192 C 
ATOM      4  C   LIG    1       24.859 -22.573   5.770  0.00  0.00    +0.192 C 
ENDROOT
BRANCH   2   5
ATOM      5  C   LIG    1       25.918 -20.621   7.006  0.00  0.00    +0.160 C 
BRANCH   5   6
ATOM      6  C   LIG    1       25.924 -21.392   8.337  0.00  0.00    +0.206 C 
BRANCH   6   7
ATOM      7  O   LIG    1       25.919 -20.501   9.445  0.00  0.00    -0.390 OA
ATOM      8  H   LIG    1       26.202 -21.006  10.230  0.00  0.00    +0.210 HD
ENDBRANCH   6   7
ENDBRANCH   5   6
ENDBRANCH   2   5
TORSDOF 3
ENDMDL
MODEL 8
REMARK VINA RESULT:      -3.3      8.996      9.727
REMARK  Name = *****
REMARK                            x       y       z     vdW  Elec       q    Type
REMARK                         _______ _______ _______ _____ _____    ______ ____
ROOT
ATOM      1  C   LIG    1       26.599 -27.075   5.073  0.00  0.00    +0.192 C 
ATOM      2  N   LIG    1       25.426 -26.276   5.644  0.00  0.00    +0.238 N 
ATOM      3  C   LIG    1       24.976 -25.263   4.605  0.00  0.00    +0.192 C 
ATOM      4  C   LIG    1       25.913 -25.541   6.891  0.00  0.00    +0.192 C 
ENDROOT
BRANCH   2   5
ATOM      5  C   LIG    1       24.296 -27.281   5.988  0.00  0.00    +0.160 C 
BRANCH   5   6
ATOM      6  C   LIG    1       24.437 -28.671   5.343  0.00  0.00    +0.206 C 
BRANCH   6   7
ATOM      7  O   LIG    1       23.212 -29.391   5.405  0.00  0.00    -0.390 OA
ATOM      8  H   LIG    1       22.723 -29.210   4.581  0.00  0.00    +0.210 HD
ENDBRANCH   6   7
ENDBRANCH   5   6
ENDBRANCH   2   5
TORSDOF 3
ENDMDL
MODEL 9
REMARK VINA RESULT:      -3.3      6.093      7.176
REMARK  Name = *****
REMARK                            x       y       z     vdW  Elec       q    Type
REMARK                         _______ _______ _______ _____ _____    ______ ____
ROOT
ATOM      1  C   LIG    1       25.075 -24.573   5.277  0.00  0.00    +0.192 C 
ATOM      2  N   LIG    1       24.730 -23.321   6.084  0.00  0.00    +0.238 N 
ATOM      3  C   LIG    1       25.812 -23.102   7.128  0.00  0.00    +0.192 C 
ATOM      4  C   LIG    1       23.393 -23.558   6.782  0.00  0.00    +0.192 C 
ENDROOT
BRANCH   2   5
ATOM      5  C   LIG    1       24.644 -22.131   5.092  0.00  0.00    +0.160 C 
BRANCH   5   6
ATOM      6  C   LIG    1       25.431 -20.875   5.507  0.00  0.00    +0.206 C 
BRANCH   6   7
ATOM      7  O   LIG    1       26.239 -20.400   4.437  0.00  0.00    -0.390 OA
ATOM      8  H   LIG    1       26.999 -21.005   4.353  0.00  0.00    +0.210 HD
ENDBRANCH   6   7
ENDBRANCH   5   6
ENDBRANCH   2   5
TORSDOF 3
ENDMDL
