MODEL 1
REMARK VINA RESULT:      -6.1      0.000      0.000
REMARK  Name = *****
REMARK                            x       y       z     vdW  Elec       q    Type
REMARK                         _______ _______ _______ _____ _____    ______ ____
ROOT
ATOM      1  C   LIG    1       30.652 -20.373   8.323  0.00  0.00    +0.175 C 
ENDROOT
BRANCH   1   2
ATOM      2  C   LIG    1       29.268 -20.787   7.769  0.00  0.00    +0.371 C 
ATOM      3  F   LIG    1       29.319 -20.885   6.411  0.00  0.00    -0.207 F 
ATOM      4  F   LIG    1       28.375 -19.785   8.019  0.00  0.00    -0.207 F 
ENDBRANCH   1   2
BRANCH   1   5
ATOM      5  N   LIG    1       31.657 -20.046   7.226  0.00  0.00    -0.311 NA
ATOM      6  H   LIG    1       31.757 -20.895   6.652  0.00  0.00    +0.119 HD
ATOM      7  H   LIG    1       31.220 -19.380   6.583  0.00  0.00    +0.119 HD
ENDBRANCH   1   5
BRANCH   1   8
ATOM      8  C   LIG    1       31.174 -21.601   9.076  0.00  0.00    +0.331 C 
ATOM      9  O   LIG    1       30.765 -22.000  10.161  0.00  0.00    -0.249 OA
BRANCH   8  10
ATOM     10  O   LIG    1       32.195 -22.197   8.402  0.00  0.00    -0.479 OA
ATOM     11  H   LIG    1       32.824 -22.512   9.105  0.00  0.00    +0.295 HD
ENDBRANCH   8  10
ENDBRANCH   1   8
BRANCH   1  12
ATOM     12  C   LIG    1       30.514 -19.166   9.280  0.00  0.00    +0.040 C 
BRANCH  12  13
ATOM     13  C   LIG    1       30.983 -17.810   8.713  0.00  0.00    +0.017 C 
BRANCH  13  14
ATOM     14  C   LIG    1       32.197 -17.259   9.468  0.00  0.00    +0.078 C 
BRANCH  14  15
ATOM     15  N   LIG    1       32.608 -15.958   8.957  0.00  0.00    -0.330 NA
ATOM     16  H   LIG    1       33.621 -15.940   8.840  0.00  0.00    +0.118 HD
ATOM     17  H   LIG    1       32.219 -15.822   8.024  0.00  0.00    +0.118 HD
ENDBRANCH  14  15
ENDBRANCH  13  14
ENDBRANCH  12  13
ENDBRANCH   1  12
TORSDOF 8
ENDMDL
MODEL 2
REMARK VINA RESULT:      -5.9      1.038      1.232
REMARK  Name = *****
REMARK                            x       y       z     vdW  Elec       q    Type
REMARK                         _______ _______ _______ _____ _____    ______ ____
ROOT
ATOM      1  C   LIG    1       30.604 -19.604   8.023  0.00  0.00    +0.175 C 
ENDROOT
BRANCH   1   2
ATOM      2  C   LIG    1       29.441 -20.127   7.145  0.00  0.00    +0.371 C 
ATOM      3  F   LIG    1       29.493 -19.550   5.912  0.00  0.00    -0.207 F 
ATOM      4  F   LIG    1       28.259 -19.707   7.683  0.00  0.00    -0.207 F 
ENDBRANCH   1   2
BRANCH   1   5
ATOM      5  N   LIG    1       31.798 -19.129   7.206  0.00  0.00    -0.311 NA
ATOM      6  H   LIG    1       31.903 -19.789   6.423  0.00  0.00    +0.119 HD
ATOM      7  H   LIG    1       31.537 -18.255   6.740  0.00  0.00    +0.119 HD
ENDBRANCH   1   5
BRANCH   1   8
ATOM      8  C   LIG    1       31.061 -20.809   8.852  0.00  0.00    +0.331 C 
ATOM      9  O   LIG    1       32.200 -21.004   9.259  0.00  0.00    -0.249 OA
BRANCH   8  10
ATOM     10  O   LIG    1       30.037 -21.680   9.063  0.00  0.00    -0.479 OA
ATOM     11  H   LIG    1       29.642 -21.842   8.164  0.00  0.00    +0.295 HD
ENDBRANCH   8  10
ENDBRANCH   1   8
BRANCH   1  12
ATOM     12  C   LIG    1       30.115 -18.463   8.944  0.00  0.00    +0.040 C 
BRANCH  12  13
ATOM     13  C   LIG    1       31.143 -17.953   9.976  0.00  0.00    +0.017 C 
BRANCH  13  14
ATOM     14  C   LIG    1       31.537 -16.494   9.724  0.00  0.00    +0.078 C 
BRANCH  14  15
ATOM     15  N   LIG    1       32.623 -16.386   8.759  0.00  0.00    -0.330 NA
ATOM     16  H   LIG    1       32.910 -15.411   8.673  0.00  0.00    +0.118 HD
ATOM     17  H   LIG    1       33.440 -16.886   9.109  0.00  0.00    +0.118 HD
ENDBRANCH  14  15
ENDBRANCH  13  14
ENDBRANCH  12  13
ENDBRANCH   1  12
TORSDOF 8
ENDMDL
MODEL 3
REMARK VINA RESULT:      -5.9      6.405      7.521
REMARK  Name = *****
REMARK                            x       y       z     vdW  Elec       q    Type
REMARK                         _______ _______ _______ _____ _____    ______ ____
ROOT
ATOM      1  C   LIG    1       23.955 -21.422   5.624  0.00  0.00    +0.175 C 
ENDROOT
BRANCH   1   2
ATOM      2  C   LIG    1       22.796 -20.582   5.036  0.00  0.00    +0.371 C 
ATOM      3  F   LIG    1       22.540 -19.513   5.841  0.00  0.00    -0.207 F 
ATOM      4  F   LIG    1       21.653 -21.328   5.064  0.00  0.00    -0.207 F 
ENDBRANCH   1   2
BRANCH   1   5
ATOM      5  N   LIG    1       24.498 -22.452   4.642  0.00  0.00    -0.311 NA
ATOM      6  H   LIG    1       24.934 -23.197   5.204  0.00  0.00    +0.119 HD
ATOM      7  H   LIG    1       23.702 -22.927   4.207  0.00  0.00    +0.119 HD
ENDBRANCH   1   5
BRANCH   1   8
ATOM      8  C   LIG    1       23.348 -22.184   6.806  0.00  0.00    +0.331 C 
ATOM      9  O   LIG    1       23.128 -21.719   7.918  0.00  0.00    -0.249 OA
BRANCH   8  10
ATOM     10  O   LIG    1       23.106 -23.484   6.483  0.00  0.00    -0.479 OA
ATOM     11  H   LIG    1       23.108 -23.974   7.348  0.00  0.00    +0.295 HD
ENDBRANCH   8  10
ENDBRANCH   1   8
BRANCH   1  12
ATOM     12  C   LIG    1       25.102 -20.502   6.101  0.00  0.00    +0.040 C 
BRANCH  12  13
ATOM     13  C   LIG    1       26.287 -21.214   6.787  0.00  0.00    +0.017 C 
BRANCH  13  14
ATOM     14  C   LIG    1       26.731 -20.494   8.064  0.00  0.00    +0.078 C 
BRANCH  14  15
ATOM     15  N   LIG    1       25.843 -20.781   9.183  0.00  0.00    -0.330 NA
ATOM     16  H   LIG    1       24.942 -20.328   9.032  0.00  0.00    +0.118 HD
ATOM     17  H   LIG    1       25.649 -21.782   9.215  0.00  0.00    +0.118 HD
ENDBRANCH  14  15
ENDBRANCH  13  14
ENDBRANCH  12  13
ENDBRANCH   1  12
TORSDOF 8
ENDMDL
MODEL 4
REMARK VINA RESULT:      -5.9      6.343      7.480
REMARK  Name = *****
REMARK                            x       y       z     vdW  Elec       q    Type
REMARK                         _______ _______ _______ _____ _____    ______ ____
ROOT
ATOM      1  C   LIG    1       24.098 -22.743   6.329  0.00  0.00    +0.175 C 
ENDROOT
BRANCH   1   2
ATOM      2  C   LIG    1       23.095 -21.564   6.351  0.00  0.00    +0.371 C 
ATOM      3  F   LIG    1       23.531 -20.565   5.534  0.00  0.00    -0.207 F 
ATOM      4  F   LIG    1       23.083 -21.019   7.602  0.00  0.00    -0.207 F 
ENDBRANCH   1   2
BRANCH   1   5
ATOM      5  N   LIG    1       24.806 -22.894   4.989  0.00  0.00    -0.311 NA
ATOM      6  H   LIG    1       24.132 -23.332   4.344  0.00  0.00    +0.119 HD
ATOM      7  H   LIG    1       24.935 -21.960   4.590  0.00  0.00    +0.119 HD
ENDBRANCH   1   5
BRANCH   1   8
ATOM      8  C   LIG    1       23.252 -24.002   6.549  0.00  0.00    +0.331 C 
ATOM      9  O   LIG    1       23.675 -25.151   6.577  0.00  0.00    -0.249 OA
BRANCH   8  10
ATOM     10  O   LIG    1       21.932 -23.693   6.679  0.00  0.00    -0.479 OA
ATOM     11  H   LIG    1       21.893 -22.699   6.659  0.00  0.00    +0.295 HD
ENDBRANCH   8  10
ENDBRANCH   1   8
BRANCH   1  12
ATOM     12  C   LIG    1       25.143 -22.586   7.456  0.00  0.00    +0.040 C 
BRANCH  12  13
ATOM     13  C   LIG    1       26.397 -21.762   7.092  0.00  0.00    +0.017 C 
BRANCH  13  14
ATOM     14  C   LIG    1       26.527 -20.500   7.951  0.00  0.00    +0.078 C 
BRANCH  14  15
ATOM     15  N   LIG    1       25.888 -20.662   9.251  0.00  0.00    -0.330 NA
ATOM     16  H   LIG    1       26.315 -20.026   9.925  0.00  0.00    +0.118 HD
ATOM     17  H   LIG    1       24.910 -20.380   9.185  0.00  0.00    +0.118 HD
ENDBRANCH  14  15
ENDBRANCH  13  14
ENDBRANCH  12  13
ENDBRANCH   1  12
TORSDOF 8
ENDMDL
MODEL 5
REMARK VINA RESULT:      -5.7      2.652      3.943
REMARK  Name = *****
REMARK                            x       y       z     vdW  Elec       q    Type
REMARK                         _______ _______ _______ _____ _____    ______ ____
ROOT
ATOM      1  C   LIG    1       29.921 -20.079   7.965  0.00  0.00    +0.175 C 
ENDROOT
BRANCH   1   2
ATOM      2  C   LIG    1       30.371 -19.458   6.620  0.00  0.00    +0.371 C 
ATOM      3  F   LIG    1       31.713 -19.221   6.641  0.00  0.00    -0.207 F 
ATOM      4  F   LIG    1       29.797 -18.227   6.489  0.00  0.00    -0.207 F 
ENDBRANCH   1   2
BRANCH   1   5
ATOM      5  N   LIG    1       29.215 -19.081   8.873  0.00  0.00    -0.311 NA
ATOM      6  H   LIG    1       28.357 -19.540   9.208  0.00  0.00    +0.119 HD
ATOM      7  H   LIG    1       29.772 -18.977   9.725  0.00  0.00    +0.119 HD
ENDBRANCH   1   5
BRANCH   1   8
ATOM      8  C   LIG    1       31.213 -20.510   8.667  0.00  0.00    +0.331 C 
ATOM      9  O   LIG    1       31.894 -19.806   9.403  0.00  0.00    -0.249 OA
BRANCH   8  10
ATOM     10  O   LIG    1       31.547 -21.789   8.344  0.00  0.00    -0.479 OA
ATOM     11  H   LIG    1       32.116 -22.108   9.095  0.00  0.00    +0.295 HD
ENDBRANCH   8  10
ENDBRANCH   1   8
BRANCH   1  12
ATOM     12  C   LIG    1       29.003 -21.298   7.717  0.00  0.00    +0.040 C 
BRANCH  12  13
ATOM     13  C   LIG    1       27.553 -20.968   7.306  0.00  0.00    +0.017 C 
BRANCH  13  14
ATOM     14  C   LIG    1       26.531 -21.523   8.303  0.00  0.00    +0.078 C 
BRANCH  14  15
ATOM     15  N   LIG    1       26.081 -20.502   9.241  0.00  0.00    -0.330 NA
ATOM     16  H   LIG    1       26.019 -20.901  10.178  0.00  0.00    +0.118 HD
ATOM     17  H   LIG    1       26.780 -19.763   9.299  0.00  0.00    +0.118 HD
ENDBRANCH  14  15
ENDBRANCH  13  14
ENDBRANCH  12  13
ENDBRANCH   1  12
TORSDOF 8
ENDMDL
MODEL 6
REMARK VINA RESULT:      -5.6      6.117      7.146
REMARK  Name = *****
REMARK                            x       y       z     vdW  Elec       q    Type
REMARK                         _______ _______ _______ _____ _____    ______ ____
ROOT
ATOM      1  C   LIG    1       24.770 -23.114   5.979  0.00  0.00    +0.175 C 
ENDROOT
BRANCH   1   2
ATOM      2  C   LIG    1       23.344 -23.295   6.554  0.00  0.00    +0.371 C 
ATOM      3  F   LIG    1       23.169 -22.482   7.633  0.00  0.00    -0.207 F 
ATOM      4  F   LIG    1       23.223 -24.564   7.042  0.00  0.00    -0.207 F 
ENDBRANCH   1   2
BRANCH   1   5
ATOM      5  N   LIG    1       24.800 -22.253   4.724  0.00  0.00    -0.311 NA
ATOM      6  H   LIG    1       24.389 -21.344   4.978  0.00  0.00    +0.119 HD
ATOM      7  H   LIG    1       25.776 -22.019   4.521  0.00  0.00    +0.119 HD
ENDBRANCH   1   5
BRANCH   1   8
ATOM      8  C   LIG    1       25.232 -24.521   5.586  0.00  0.00    +0.331 C 
ATOM      9  O   LIG    1       25.983 -25.235   6.240  0.00  0.00    -0.249 OA
BRANCH   8  10
ATOM     10  O   LIG    1       24.727 -24.886   4.376  0.00  0.00    -0.479 OA
ATOM     11  H   LIG    1       25.277 -25.662   4.086  0.00  0.00    +0.295 HD
ENDBRANCH   8  10
ENDBRANCH   1   8
BRANCH   1  12
ATOM     12  C   LIG    1       25.711 -22.511   7.048  0.00  0.00    +0.040 C 
BRANCH  12  13
ATOM     13  C   LIG    1       26.133 -21.046   6.813  0.00  0.00    +0.017 C 
BRANCH  13  14
ATOM     14  C   LIG    1       26.644 -20.381   8.095  0.00  0.00    +0.078 C 
BRANCH  14  15
ATOM     15  N   LIG    1       25.855 -20.766   9.257  0.00  0.00    -0.330 NA
ATOM     16  H   LIG    1       24.928 -21.069   8.956  0.00  0.00    +0.118 HD
ATOM     17  H   LIG    1       26.281 -21.577   9.703  0.00  0.00    +0.118 HD
ENDBRANCH  14  15
ENDBRANCH  13  14
ENDBRANCH  12  13
ENDBRANCH   1  12
TORSDOF 8
ENDMDL
MODEL 7
REMARK VINA RESULT:      -5.6      7.133      8.271
REMARK  Name = *****
REMARK                            x       y       z     vdW  Elec       q    Type
REMARK                         _______ _______ _______ _____ _____    ______ ____
ROOT
ATOM      1  C   LIG    1       23.786 -21.238   6.383  0.00  0.00    +0.175 C 
ENDROOT
BRANCH   1   2
ATOM      2  C   LIG    1       22.853 -20.536   5.368  0.00  0.00    +0.371 C 
ATOM      3  F   LIG    1       22.399 -19.361   5.886  0.00  0.00    -0.207 F 
ATOM      4  F   LIG    1       21.737 -21.300   5.193  0.00  0.00    -0.207 F 
ENDBRANCH   1   2
BRANCH   1   5
ATOM      5  N   LIG    1       23.613 -20.720   7.805  0.00  0.00    -0.311 NA
ATOM      6  H   LIG    1       24.286 -21.232   8.392  0.00  0.00    +0.119 HD
ATOM      7  H   LIG    1       23.962 -19.758   7.837  0.00  0.00    +0.119 HD
ENDBRANCH   1   5
BRANCH   1   8
ATOM      8  C   LIG    1       25.210 -20.892   5.935  0.00  0.00    +0.331 C 
ATOM      9  O   LIG    1       26.080 -20.397   6.642  0.00  0.00    -0.249 OA
BRANCH   8  10
ATOM     10  O   LIG    1       25.394 -21.171   4.616  0.00  0.00    -0.479 OA
ATOM     11  H   LIG    1       24.518 -21.518   4.298  0.00  0.00    +0.295 HD
ENDBRANCH   8  10
ENDBRANCH   1   8
BRANCH   1  12
ATOM     12  C   LIG    1       23.563 -22.767   6.355  0.00  0.00    +0.040 C 
BRANCH  12  13
ATOM     13  C   LIG    1       24.698 -23.618   6.963  0.00  0.00    +0.017 C 
BRANCH  13  14
ATOM     14  C   LIG    1       25.323 -24.566   5.934  0.00  0.00    +0.078 C 
BRANCH  14  15
ATOM     15  N   LIG    1       24.867 -24.273   4.582  0.00  0.00    -0.330 NA
ATOM     16  H   LIG    1       25.631 -23.866   4.042  0.00  0.00    +0.118 HD
ATOM     17  H   LIG    1       24.626 -25.144   4.109  0.00  0.00    +0.118 HD
ENDBRANCH  14  15
ENDBRANCH  13  14
ENDBRANCH  12  13
ENDBRANCH   1  12
TORSDOF 8
ENDMDL
MODEL 8
REMARK VINA RESULT:      -5.6      6.922      8.371
REMARK  Name = *****
REMARK                            x       y       z     vdW  Elec       q    Type
REMARK                         _______ _______ _______ _____ _____    ______ ____
ROOT
ATOM      1  C   LIG    1       24.896 -22.731   6.405  0.00  0.00    +0.175 C 
ENDROOT
BRANCH   1   2
ATOM      2  C   LIG    1       25.672 -21.426   6.707  0.00  0.00    +0.371 C 
ATOM      3  F   LIG    1       25.555 -20.561   5.661  0.00  0.00    -0.207 F 
ATOM      4  F   LIG    1       27.004 -21.713   6.781  0.00  0.00    -0.207 F 
ENDBRANCH   1   2
BRANCH   1   5
ATOM      5  N   LIG    1       24.729 -22.991   4.914  0.00  0.00    -0.311 NA
ATOM      6  H   LIG    1       23.991 -22.354   4.582  0.00  0.00    +0.119 HD
ATOM      7  H   LIG    1       25.566 -22.647   4.435  0.00  0.00    +0.119 HD
ENDBRANCH   1   5
BRANCH   1   8
ATOM      8  C   LIG    1       23.499 -22.520   6.997  0.00  0.00    +0.331 C 
ATOM      9  O   LIG    1       23.190 -21.653   7.807  0.00  0.00    -0.249 OA
BRANCH   8  10
ATOM     10  O   LIG    1       22.621 -23.451   6.535  0.00  0.00    -0.479 OA
ATOM     11  H   LIG    1       21.920 -22.935   6.053  0.00  0.00    +0.295 HD
ENDBRANCH   8  10
ENDBRANCH   1   8
BRANCH   1  12
ATOM     12  C   LIG    1       25.592 -23.941   7.071  0.00  0.00    +0.040 C 
BRANCH  12  13
ATOM     13  C   LIG    1       25.891 -25.133   6.138  0.00  0.00    +0.017 C 
BRANCH  13  14
ATOM     14  C   LIG    1       24.862 -26.258   6.293  0.00  0.00    +0.078 C 
BRANCH  14  15
ATOM     15  N   LIG    1       23.685 -26.033   5.465  0.00  0.00    -0.330 NA
ATOM     16  H   LIG    1       23.331 -25.089   5.620  0.00  0.00    +0.118 HD
ATOM     17  H   LIG    1       23.950 -26.072   4.481  0.00  0.00    +0.118 HD
ENDBRANCH  14  15
ENDBRANCH  13  14
ENDBRANCH  12  13
ENDBRANCH   1  12
TORSDOF 8
ENDMDL
MODEL 9
REMARK VINA RESULT:      -5.5      6.823      7.661
REMARK  Name = *****
REMARK                            x       y       z     vdW  Elec       q    Type
REMARK                         _______ _______ _______ _____ _____    ______ ____
ROOT
ATOM      1  C   LIG    1       24.132 -22.581   6.122  0.00  0.00    +0.175 C 
ENDROOT
BRANCH   1   2
ATOM      2  C   LIG    1       23.155 -23.500   6.895  0.00  0.00    +0.371 C 
ATOM      3  F   LIG    1       23.451 -24.807   6.650  0.00  0.00    -0.207 F 
ATOM      4  F   LIG    1       21.896 -23.323   6.397  0.00  0.00    -0.207 F 
ENDBRANCH   1   2
BRANCH   1   5
ATOM      5  N   LIG    1       24.863 -23.304   4.999  0.00  0.00    -0.311 NA
ATOM      6  H   LIG    1       25.665 -22.713   4.737  0.00  0.00    +0.119 HD
ATOM      7  H   LIG    1       25.309 -24.138   5.393  0.00  0.00    +0.119 HD
ENDBRANCH   1   5
BRANCH   1   8
ATOM      8  C   LIG    1       25.181 -22.146   7.151  0.00  0.00    +0.331 C 
ATOM      9  O   LIG    1       24.948 -21.787   8.299  0.00  0.00    -0.249 OA
BRANCH   8  10
ATOM     10  O   LIG    1       26.434 -22.171   6.620  0.00  0.00    -0.479 OA
ATOM     11  H   LIG    1       26.489 -23.030   6.120  0.00  0.00    +0.295 HD
ENDBRANCH   8  10
ENDBRANCH   1   8
BRANCH   1  12
ATOM     12  C   LIG    1       23.385 -21.354   5.553  0.00  0.00    +0.040 C 
BRANCH  12  13
ATOM     13  C   LIG    1       23.781 -20.938   4.121  0.00  0.00    +0.017 C 
BRANCH  13  14
ATOM     14  C   LIG    1       24.793 -19.788   4.113  0.00  0.00    +0.078 C 
BRANCH  14  15
ATOM     15  N   LIG    1       26.160 -20.268   4.270  0.00  0.00    -0.330 NA
ATOM     16  H   LIG    1       26.390 -20.331   5.262  0.00  0.00    +0.118 HD
ATOM     17  H   LIG    1       26.229 -21.219   3.907  0.00  0.00    +0.118 HD
ENDBRANCH  14  15
ENDBRANCH  13  14
ENDBRANCH  12  13
ENDBRANCH   1  12
TORSDOF 8
ENDMDL
