MODEL 1
REMARK VINA RESULT:      17.7      0.000      0.000
REMARK  Name = *****
REMARK                            x       y       z     vdW  Elec       q    Type
REMARK                         _______ _______ _______ _____ _____    ______ ____
ROOT
ATOM      1  C   LIG    1       25.473 -15.859   3.943  0.00  0.00    +0.173 A 
ATOM      2  C   LIG    1       25.442 -14.851   2.877  0.00  0.00    +0.206 A 
ATOM      3  C   LIG    1       24.318 -13.985   2.774  0.00  0.00    +0.187 A 
ATOM      4  C   LIG    1       23.148 -14.319   3.545  0.00  0.00    +0.085 A 
ATOM      5  C   LIG    1       23.172 -15.426   4.429  0.00  0.00    +0.094 A 
ATOM      6  C   LIG    1       22.013 -15.863   5.263  0.00  0.00    +0.342 C 
ATOM      7  O   LIG    1       22.378 -17.117   5.709  0.00  0.00    -0.451 OA
ATOM      8  C   LIG    1       23.771 -17.489   5.398  0.00  0.00    +0.233 C 
ATOM      9  O   LIG    1       21.036 -15.295   5.476  0.00  0.00    -0.245 OA
ATOM     10  C   LIG    1       24.264 -16.270   4.587  0.00  0.00    +0.056 A 
ENDROOT
BRANCH   8  11
ATOM     11  C   LIG    1       23.690 -18.973   4.692  0.00  0.00    +0.136 C 
ATOM     12  N   LIG    1       23.093 -18.848   3.319  0.00  0.00    -0.295 NA
ATOM     13  C   LIG    1       21.773 -19.487   3.209  0.00  0.00    +0.105 C 
ATOM     14  C   LIG    1       23.940 -19.387   2.246  0.00  0.00    +0.089 C 
ATOM     15  C   LIG    1       25.396 -18.929   2.353  0.00  0.00    +0.051 C 
ATOM     16  C   LIG    1       25.986 -19.425   3.644  0.00  0.00    -0.034 A 
ATOM     17  C   LIG    1       27.368 -19.681   3.750  0.00  0.00    +0.053 A 
ATOM     18  C   LIG    1       27.849 -20.147   4.949  0.00  0.00    +0.170 A 
ATOM     19  O   LIG    1       29.154 -20.379   5.265  0.00  0.00    -0.453 OA
ATOM     20  C   LIG    1       29.041 -20.743   6.652  0.00  0.00    +0.467 C 
ATOM     21  O   LIG    1       27.687 -20.908   7.062  0.00  0.00    -0.449 OA
ATOM     22  C   LIG    1       26.993 -20.491   5.960  0.00  0.00    +0.208 A 
ATOM     23  C   LIG    1       25.605 -20.423   5.821  0.00  0.00    +0.170 A 
ATOM     24  C   LIG    1       25.101 -19.671   4.728  0.00  0.00    +0.022 A 
BRANCH  23  25
ATOM     25  O   LIG    1       24.745 -21.172   6.599  0.00  0.00    -0.491 OA
ATOM     26  C   LIG    1       23.520 -21.553   5.940  0.00  0.00    +0.277 C 
ENDBRANCH  23  25
ENDBRANCH   8  11
BRANCH   4  27
ATOM     27  N   LIG    1       21.956 -13.548   3.451  0.00  0.00    -0.354 N 
ATOM     28  H   LIG    1       22.169 -12.594   3.182  0.00  0.00    +0.142 HD
ATOM     29  H   LIG    1       21.471 -13.506   4.360  0.00  0.00    +0.142 HD
ENDBRANCH   4  27
BRANCH   1  30
ATOM     30  O   LIG    1       26.682 -16.390   4.393  0.00  0.00    -0.488 OA
BRANCH  30  32
ATOM     31  C   LIG    1       27.233 -14.349   5.768  0.00  0.00    +0.048 C 
ATOM     32  C   LIG    1       27.727 -15.476   4.865  0.00  0.00    +0.226 C 
ENDBRANCH  30  32
ENDBRANCH   1  30
BRANCH   2  33
ATOM     33  O   LIG    1       26.556 -14.887   2.045  0.00  0.00    -0.485 OA
BRANCH  33  34
ATOM     34  C   LIG    1       27.685 -13.985   2.020  0.00  0.00    +0.226 C 
ATOM     35  C   LIG    1       27.536 -12.840   2.988  0.00  0.00    +0.048 C 
ENDBRANCH  33  34
ENDBRANCH   2  33
BRANCH   3  36
ATOM     36  O   LIG    1       24.219 -12.970   1.820  0.00  0.00    -0.487 OA
BRANCH  36  37
ATOM     37  C   LIG    1       24.001 -11.573   2.254  0.00  0.00    +0.226 C 
ATOM     38  C   LIG    1       24.057 -11.454   3.736  0.00  0.00    +0.048 C 
ENDBRANCH  36  37
ENDBRANCH   3  36
TORSDOF 9
ENDMDL
MODEL 2
REMARK VINA RESULT:      17.9      1.750      6.562
REMARK  Name = *****
REMARK                            x       y       z     vdW  Elec       q    Type
REMARK                         _______ _______ _______ _____ _____    ______ ____
ROOT
ATOM      1  C   LIG    1       25.128 -17.900   3.945  0.00  0.00    +0.173 A 
ATOM      2  C   LIG    1       25.431 -19.110   4.717  0.00  0.00    +0.206 A 
ATOM      3  C   LIG    1       24.438 -20.123   4.836  0.00  0.00    +0.187 A 
ATOM      4  C   LIG    1       23.098 -19.792   4.427  0.00  0.00    +0.085 A 
ATOM      5  C   LIG    1       22.822 -18.527   3.852  0.00  0.00    +0.094 A 
ATOM      6  C   LIG    1       21.469 -18.081   3.406  0.00  0.00    +0.342 C 
ATOM      7  O   LIG    1       21.613 -16.722   3.212  0.00  0.00    -0.451 OA
ATOM      8  C   LIG    1       23.003 -16.240   3.311  0.00  0.00    +0.233 C 
ATOM      9  O   LIG    1       20.521 -18.717   3.267  0.00  0.00    -0.245 OA
ATOM     10  C   LIG    1       23.773 -17.527   3.683  0.00  0.00    +0.056 A 
ENDROOT
BRANCH   8  11
ATOM     11  C   LIG    1       22.963 -14.971   4.357  0.00  0.00    +0.136 C 
ATOM     12  N   LIG    1       22.669 -15.468   5.744  0.00  0.00    -0.295 NA
ATOM     13  C   LIG    1       21.357 -15.028   6.243  0.00  0.00    +0.105 C 
ATOM     14  C   LIG    1       23.676 -15.086   6.743  0.00  0.00    +0.089 C 
ATOM     15  C   LIG    1       25.108 -15.335   6.267  0.00  0.00    +0.051 C 
ATOM     16  C   LIG    1       25.387 -14.499   5.049  0.00  0.00    -0.034 A 
ATOM     17  C   LIG    1       26.697 -14.066   4.759  0.00  0.00    +0.053 A 
ATOM     18  C   LIG    1       26.889 -13.292   3.642  0.00  0.00    +0.170 A 
ATOM     19  O   LIG    1       28.082 -12.844   3.160  0.00  0.00    -0.453 OA
ATOM     20  C   LIG    1       27.663 -12.196   1.946  0.00  0.00    +0.467 C 
ATOM     21  O   LIG    1       26.246 -12.103   1.840  0.00  0.00    -0.449 OA
ATOM     22  C   LIG    1       25.823 -12.833   2.916  0.00  0.00    +0.208 A 
ATOM     23  C   LIG    1       24.500 -13.092   3.283  0.00  0.00    +0.170 A 
ATOM     24  C   LIG    1       24.284 -14.122   4.236  0.00  0.00    +0.022 A 
BRANCH  23  25
ATOM     25  O   LIG    1       23.449 -12.294   2.879  0.00  0.00    -0.491 OA
ATOM     26  C   LIG    1       22.908 -11.447   3.913  0.00  0.00    +0.277 C 
ENDBRANCH  23  25
ENDBRANCH   8  11
BRANCH   4  27
ATOM     27  N   LIG    1       22.029 -20.720   4.574  0.00  0.00    -0.354 N 
ATOM     28  H   LIG    1       21.172 -20.338   4.189  0.00  0.00    +0.142 HD
ATOM     29  H   LIG    1       21.852 -20.923   5.569  0.00  0.00    +0.142 HD
ENDBRANCH   4  27
BRANCH   1  30
ATOM     30  O   LIG    1       26.151 -17.124   3.399  0.00  0.00    -0.488 OA
BRANCH  30  32
ATOM     31  C   LIG    1       28.328 -16.513   4.515  0.00  0.00    +0.048 C 
ATOM     32  C   LIG    1       27.544 -17.502   3.657  0.00  0.00    +0.226 C 
ENDBRANCH  30  32
ENDBRANCH   1  30
BRANCH   2  33
ATOM     33  O   LIG    1       26.700 -19.105   5.286  0.00  0.00    -0.485 OA
BRANCH  33  34
ATOM     34  C   LIG    1       27.712 -20.135   5.227  0.00  0.00    +0.226 C 
ATOM     35  C   LIG    1       28.492 -20.257   6.510  0.00  0.00    +0.048 C 
ENDBRANCH  33  34
ENDBRANCH   2  33
BRANCH   3  36
ATOM     36  O   LIG    1       24.650 -21.325   5.515  0.00  0.00    -0.487 OA
BRANCH  36  37
ATOM     37  C   LIG    1       24.241 -21.452   6.931  0.00  0.00    +0.226 C 
ATOM     38  C   LIG    1       22.762 -21.572   7.055  0.00  0.00    +0.048 C 
ENDBRANCH  36  37
ENDBRANCH   3  36
TORSDOF 9
ENDMDL
