MODEL 1
REMARK VINA RESULT:      -5.2      0.000      0.000
REMARK  Name = *****
REMARK                            x       y       z     vdW  Elec       q    Type
REMARK                         _______ _______ _______ _____ _____    ______ ____
ROOT
ATOM      1  C   LIG    1       31.868 -17.705   9.880  0.00  0.00    +0.098 C 
ATOM      2  C   LIG    1       31.085 -18.685   9.408  0.00  0.00    +0.098 C 
ENDROOT
BRANCH   1   3
ATOM      3  C   LIG    1       31.323 -16.733  10.844  0.00  0.00    +0.332 C 
ATOM      4  O   LIG    1       30.139 -16.474  10.986  0.00  0.00    -0.246 OA
BRANCH   3   6
ATOM      5  C   LIG    1       32.087 -15.972  12.919  0.00  0.00    +0.280 C 
ATOM      6  O   LIG    1       32.359 -16.196  11.534  0.00  0.00    -0.465 OA
ENDBRANCH   3   6
ENDBRANCH   1   3
BRANCH   2   7
ATOM      7  C   LIG    1       31.650 -19.684   8.483  0.00  0.00    +0.332 C 
ATOM      8  O   LIG    1       31.736 -19.563   7.277  0.00  0.00    -0.246 OA
BRANCH   7   9
ATOM      9  O   LIG    1       32.071 -20.739   9.232  0.00  0.00    -0.465 OA
ATOM     10  C   LIG    1       31.218 -21.882   9.167  0.00  0.00    +0.280 C 
ENDBRANCH   7   9
ENDBRANCH   2   7
TORSDOF 4
ENDMDL
MODEL 2
REMARK VINA RESULT:      -5.2      3.078      5.146
REMARK  Name = *****
REMARK                            x       y       z     vdW  Elec       q    Type
REMARK                         _______ _______ _______ _____ _____    ______ ____
ROOT
ATOM      1  C   LIG    1       29.612 -19.999   7.688  0.00  0.00    +0.098 C 
ATOM      2  C   LIG    1       30.036 -18.951   8.406  0.00  0.00    +0.098 C 
ENDROOT
BRANCH   1   3
ATOM      3  C   LIG    1       28.188 -20.108   7.323  0.00  0.00    +0.332 C 
ATOM      4  O   LIG    1       27.756 -20.122   6.183  0.00  0.00    -0.246 OA
BRANCH   3   6
ATOM      5  C   LIG    1       26.106 -20.592   8.272  0.00  0.00    +0.280 C 
ATOM      6  O   LIG    1       27.465 -20.196   8.467  0.00  0.00    -0.465 OA
ENDBRANCH   3   6
ENDBRANCH   1   3
BRANCH   2   7
ATOM      7  C   LIG    1       31.470 -18.821   8.725  0.00  0.00    +0.332 C 
ATOM      8  O   LIG    1       32.150 -19.662   9.279  0.00  0.00    -0.246 OA
BRANCH   7   9
ATOM      9  O   LIG    1       31.881 -17.609   8.263  0.00  0.00    -0.465 OA
ATOM     10  C   LIG    1       32.312 -16.709   9.285  0.00  0.00    +0.280 C 
ENDBRANCH   7   9
ENDBRANCH   2   7
TORSDOF 4
ENDMDL
MODEL 3
REMARK VINA RESULT:      -5.2      3.106      3.853
REMARK  Name = *****
REMARK                            x       y       z     vdW  Elec       q    Type
REMARK                         _______ _______ _______ _____ _____    ______ ____
ROOT
ATOM      1  C   LIG    1       30.077 -18.861   8.218  0.00  0.00    +0.098 C 
ATOM      2  C   LIG    1       29.572 -20.052   7.870  0.00  0.00    +0.098 C 
ENDROOT
BRANCH   1   3
ATOM      3  C   LIG    1       31.482 -18.759   8.651  0.00  0.00    +0.332 C 
ATOM      4  O   LIG    1       32.091 -19.622   9.262  0.00  0.00    -0.246 OA
BRANCH   3   6
ATOM      5  C   LIG    1       32.286 -16.665   9.312  0.00  0.00    +0.280 C 
ATOM      6  O   LIG    1       31.964 -17.559   8.244  0.00  0.00    -0.465 OA
ENDBRANCH   3   6
ENDBRANCH   1   3
BRANCH   2   7
ATOM      7  C   LIG    1       28.181 -20.139   7.390  0.00  0.00    +0.332 C 
ATOM      8  O   LIG    1       27.837 -20.172   6.225  0.00  0.00    -0.246 OA
BRANCH   7   9
ATOM      9  O   LIG    1       27.376 -20.202   8.484  0.00  0.00    -0.465 OA
ATOM     10  C   LIG    1       26.026 -20.571   8.197  0.00  0.00    +0.280 C 
ENDBRANCH   7   9
ENDBRANCH   2   7
TORSDOF 4
ENDMDL
MODEL 4
REMARK VINA RESULT:      -5.0      1.305      4.884
REMARK  Name = *****
REMARK                            x       y       z     vdW  Elec       q    Type
REMARK                         _______ _______ _______ _____ _____    ______ ____
ROOT
ATOM      1  C   LIG    1       31.556 -18.675   9.094  0.00  0.00    +0.098 C 
ATOM      2  C   LIG    1       30.651 -18.126   9.915  0.00  0.00    +0.098 C 
ENDROOT
BRANCH   1   3
ATOM      3  C   LIG    1       31.120 -19.629   8.059  0.00  0.00    +0.332 C 
ATOM      4  O   LIG    1       31.565 -19.685   6.924  0.00  0.00    -0.246 OA
BRANCH   3   6
ATOM      5  C   LIG    1       29.234 -20.948   7.639  0.00  0.00    +0.280 C 
ATOM      6  O   LIG    1       30.159 -20.423   8.594  0.00  0.00    -0.465 OA
ENDBRANCH   3   6
ENDBRANCH   1   3
BRANCH   2   7
ATOM      7  C   LIG    1       31.086 -17.134  10.916  0.00  0.00    +0.332 C 
ATOM      8  O   LIG    1       30.389 -16.261  11.395  0.00  0.00    -0.246 OA
BRANCH   7   9
ATOM      9  O   LIG    1       32.387 -17.398  11.211  0.00  0.00    -0.465 OA
ATOM     10  C   LIG    1       33.025 -16.391  11.999  0.00  0.00    +0.280 C 
ENDBRANCH   7   9
ENDBRANCH   2   7
TORSDOF 4
ENDMDL
MODEL 5
REMARK VINA RESULT:      -5.0      1.966      2.142
REMARK  Name = *****
REMARK                            x       y       z     vdW  Elec       q    Type
REMARK                         _______ _______ _______ _____ _____    ______ ____
ROOT
ATOM      1  C   LIG    1       30.180 -18.100   9.338  0.00  0.00    +0.098 C 
ATOM      2  C   LIG    1       30.862 -18.178   8.188  0.00  0.00    +0.098 C 
ENDROOT
BRANCH   1   3
ATOM      3  C   LIG    1       30.766 -17.390  10.489  0.00  0.00    +0.332 C 
ATOM      4  O   LIG    1       30.170 -16.599  11.202  0.00  0.00    -0.246 OA
BRANCH   3   6
ATOM      5  C   LIG    1       32.949 -16.733  11.009  0.00  0.00    +0.280 C 
ATOM      6  O   LIG    1       32.059 -17.778  10.610  0.00  0.00    -0.465 OA
ENDBRANCH   3   6
ENDBRANCH   1   3
BRANCH   2   7
ATOM      7  C   LIG    1       30.250 -18.845   7.024  0.00  0.00    +0.332 C 
ATOM      8  O   LIG    1       29.989 -18.315   5.962  0.00  0.00    -0.246 OA
BRANCH   7   9
ATOM      9  O   LIG    1       30.063 -20.151   7.356  0.00  0.00    -0.465 OA
ATOM     10  C   LIG    1       28.916 -20.750   6.753  0.00  0.00    +0.280 C 
ENDBRANCH   7   9
ENDBRANCH   2   7
TORSDOF 4
ENDMDL
MODEL 6
REMARK VINA RESULT:      -5.0      2.755      4.860
REMARK  Name = *****
REMARK                            x       y       z     vdW  Elec       q    Type
REMARK                         _______ _______ _______ _____ _____    ______ ____
ROOT
ATOM      1  C   LIG    1       30.027 -18.925   7.347  0.00  0.00    +0.098 C 
ATOM      2  C   LIG    1       30.914 -19.867   7.692  0.00  0.00    +0.098 C 
ENDROOT
BRANCH   1   3
ATOM      3  C   LIG    1       29.244 -19.075   6.107  0.00  0.00    +0.332 C 
ATOM      4  O   LIG    1       29.118 -18.217   5.249  0.00  0.00    -0.246 OA
BRANCH   3   6
ATOM      5  C   LIG    1       27.309 -20.360   6.375  0.00  0.00    +0.280 C 
ATOM      6  O   LIG    1       28.709 -20.321   6.094  0.00  0.00    -0.465 OA
ENDBRANCH   3   6
ENDBRANCH   1   3
BRANCH   2   7
ATOM      7  C   LIG    1       31.657 -19.737   8.958  0.00  0.00    +0.332 C 
ATOM      8  O   LIG    1       31.789 -18.712   9.598  0.00  0.00    -0.246 OA
BRANCH   7   9
ATOM      9  O   LIG    1       32.135 -20.969   9.278  0.00  0.00    -0.465 OA
ATOM     10  C   LIG    1       31.160 -22.011   9.211  0.00  0.00    +0.280 C 
ENDBRANCH   7   9
ENDBRANCH   2   7
TORSDOF 4
ENDMDL
MODEL 7
REMARK VINA RESULT:      -5.0      6.863      9.163
REMARK  Name = *****
REMARK                            x       y       z     vdW  Elec       q    Type
REMARK                         _______ _______ _______ _____ _____    ______ ____
ROOT
ATOM      1  C   LIG    1       24.640 -22.710   7.317  0.00  0.00    +0.098 C 
ATOM      2  C   LIG    1       25.942 -22.680   7.633  0.00  0.00    +0.098 C 
ENDROOT
BRANCH   1   3
ATOM      3  C   LIG    1       24.115 -23.804   6.481  0.00  0.00    +0.332 C 
ATOM      4  O   LIG    1       23.121 -24.464   6.733  0.00  0.00    -0.246 OA
BRANCH   3   6
ATOM      5  C   LIG    1       25.110 -25.280   4.963  0.00  0.00    +0.280 C 
ATOM      6  O   LIG    1       24.922 -23.932   5.398  0.00  0.00    -0.465 OA
ENDBRANCH   3   6
ENDBRANCH   1   3
BRANCH   2   7
ATOM      7  C   LIG    1       26.451 -21.611   8.512  0.00  0.00    +0.332 C 
ATOM      8  O   LIG    1       25.784 -20.955   9.288  0.00  0.00    -0.246 OA
BRANCH   7   9
ATOM      9  O   LIG    1       27.793 -21.522   8.308  0.00  0.00    -0.465 OA
ATOM     10  C   LIG    1       28.158 -21.005   7.028  0.00  0.00    +0.280 C 
ENDBRANCH   7   9
ENDBRANCH   2   7
TORSDOF 4
ENDMDL
MODEL 8
REMARK VINA RESULT:      -4.9      2.216      2.678
REMARK  Name = *****
REMARK                            x       y       z     vdW  Elec       q    Type
REMARK                         _______ _______ _______ _____ _____    ______ ____
ROOT
ATOM      1  C   LIG    1       31.963 -17.486   8.838  0.00  0.00    +0.098 C 
ATOM      2  C   LIG    1       30.633 -17.631   8.897  0.00  0.00    +0.098 C 
ENDROOT
BRANCH   1   3
ATOM      3  C   LIG    1       32.631 -16.507   9.714  0.00  0.00    +0.332 C 
ATOM      4  O   LIG    1       32.810 -15.331   9.443  0.00  0.00    -0.246 OA
BRANCH   3   6
ATOM      5  C   LIG    1       33.025 -16.298  12.010  0.00  0.00    +0.280 C 
ATOM      6  O   LIG    1       32.995 -17.141  10.856  0.00  0.00    -0.465 OA
ENDBRANCH   3   6
ENDBRANCH   1   3
BRANCH   2   7
ATOM      7  C   LIG    1       29.975 -18.647   8.055  0.00  0.00    +0.332 C 
ATOM      8  O   LIG    1       29.150 -19.455   8.436  0.00  0.00    -0.246 OA
BRANCH   7   9
ATOM      9  O   LIG    1       30.444 -18.491   6.788  0.00  0.00    -0.465 OA
ATOM     10  C   LIG    1       29.434 -18.549   5.779  0.00  0.00    +0.280 C 
ENDBRANCH   7   9
ENDBRANCH   2   7
TORSDOF 4
ENDMDL
MODEL 9
REMARK VINA RESULT:      -4.9      7.063      8.102
REMARK  Name = *****
REMARK                            x       y       z     vdW  Elec       q    Type
REMARK                         _______ _______ _______ _____ _____    ______ ____
ROOT
ATOM      1  C   LIG    1       25.766 -20.626   7.041  0.00  0.00    +0.098 C 
ATOM      2  C   LIG    1       24.446 -20.830   6.944  0.00  0.00    +0.098 C 
ENDROOT
BRANCH   1   3
ATOM      3  C   LIG    1       26.399 -20.545   8.370  0.00  0.00    +0.332 C 
ATOM      4  O   LIG    1       25.819 -20.698   9.432  0.00  0.00    -0.246 OA
BRANCH   3   6
ATOM      5  C   LIG    1       28.327 -21.025   7.137  0.00  0.00    +0.280 C 
ATOM      6  O   LIG    1       27.717 -20.283   8.194  0.00  0.00    -0.465 OA
ENDBRANCH   3   6
ENDBRANCH   1   3
BRANCH   2   7
ATOM      7  C   LIG    1       23.827 -20.960   5.612  0.00  0.00    +0.332 C 
ATOM      8  O   LIG    1       24.323 -21.518   4.653  0.00  0.00    -0.246 OA
BRANCH   7   9
ATOM      9  O   LIG    1       22.603 -20.369   5.673  0.00  0.00    -0.465 OA
ATOM     10  C   LIG    1       22.467 -19.218   4.839  0.00  0.00    +0.280 C 
ENDBRANCH   7   9
ENDBRANCH   2   7
TORSDOF 4
ENDMDL
