MODEL 1
REMARK VINA RESULT:      23.9      0.000      0.000
REMARK  Name = *****
REMARK                            x       y       z     vdW  Elec       q    Type
REMARK                         _______ _______ _______ _____ _____    ______ ____
ROOT
ATOM      1  C   LIG    1       22.061 -15.739   4.837  0.00  0.00    -0.008 A 
ATOM      2  C   LIG    1       23.105 -16.328   4.097  0.00  0.00    -0.004 A 
ATOM      3  C   LIG    1       23.412 -17.708   3.632  0.00  0.00    -0.009 A 
ATOM      4  C   LIG    1       24.721 -17.763   3.098  0.00  0.00    -0.008 A 
ATOM      5  C   LIG    1       25.315 -16.394   3.305  0.00  0.00    -0.009 C 
ATOM      6  C   LIG    1       26.598 -16.126   3.534  0.00  0.00    +0.017 C 
ATOM      7  C   LIG    1       25.201 -18.914   2.469  0.00  0.00    +0.029 A 
ATOM      8  C   LIG    1       24.392 -20.072   2.498  0.00  0.00    +0.042 A 
ATOM      9 CL   LIG    1       24.993 -21.572   1.895  0.00  0.00    -0.084 Cl
ATOM     10  C   LIG    1       23.096 -20.007   2.996  0.00  0.00    +0.020 A 
ATOM     11  C   LIG    1       22.588 -18.823   3.457  0.00  0.00    +0.010 A 
ATOM     12  C   LIG    1       24.176 -15.498   3.635  0.00  0.00    -0.008 A 
ATOM     13  C   LIG    1       24.072 -14.130   3.508  0.00  0.00    +0.029 A 
ATOM     14  C   LIG    1       22.910 -13.547   4.002  0.00  0.00    +0.042 A 
ATOM     15 CL   LIG    1       22.656 -11.865   3.785  0.00  0.00    -0.084 Cl
ATOM     16  C   LIG    1       21.962 -14.325   4.697  0.00  0.00    +0.027 A 
ENDROOT
BRANCH   6  17
ATOM     17  C   LIG    1       27.262 -14.894   4.115  0.00  0.00    -0.024 A 
ATOM     18  C   LIG    1       28.401 -14.333   3.525  0.00  0.00    +0.009 A 
ATOM     19  C   LIG    1       29.088 -13.260   4.152  0.00  0.00    +0.020 A 
ATOM     20  C   LIG    1       28.624 -12.739   5.354  0.00  0.00    +0.041 A 
ATOM     21 CL   LIG    1       29.475 -11.447   6.121  0.00  0.00    -0.084 Cl
ATOM     22  C   LIG    1       27.480 -13.262   5.939  0.00  0.00    +0.020 A 
ATOM     23  C   LIG    1       26.796 -14.344   5.317  0.00  0.00    +0.009 A 
ENDBRANCH   6  17
BRANCH   1  24
ATOM     24  C   LIG    1       21.260 -16.473   5.956  0.00  0.00    +0.159 C 
BRANCH  24  25
ATOM     25  O   LIG    1       19.861 -16.621   5.693  0.00  0.00    -0.386 OA
ATOM     26  H   LIG    1       19.339 -16.329   6.452  0.00  0.00    +0.210 HD
ENDBRANCH  24  25
BRANCH  24  27
ATOM     27  C   LIG    1       21.786 -17.862   6.416  0.00  0.00    +0.120 C 
BRANCH  27  28
ATOM     28  N   LIG    1       22.360 -18.928   5.521  0.00  0.00    -0.300 NA
BRANCH  28  29
ATOM     29  C   LIG    1       21.497 -19.144   4.331  0.00  0.00    +0.084 C 
BRANCH  29  30
ATOM     30  C   LIG    1       19.976 -18.728   4.336  0.00  0.00    +0.015 C 
BRANCH  30  32
ATOM     31  C   LIG    1       19.985 -17.441   1.972  0.00  0.00    +0.004 C 
ATOM     32  C   LIG    1       19.411 -18.397   2.975  0.00  0.00    -0.002 C 
ENDBRANCH  30  32
ENDBRANCH  29  30
ENDBRANCH  28  29
BRANCH  28  33
ATOM     33  C   LIG    1       22.693 -20.086   6.408  0.00  0.00    +0.084 C 
BRANCH  33  34
ATOM     34  C   LIG    1       24.082 -20.136   6.996  0.00  0.00    +0.015 C 
BRANCH  34  35
ATOM     35  C   LIG    1       25.240 -20.900   6.408  0.00  0.00    -0.002 C 
ATOM     36  C   LIG    1       25.852 -20.226   5.223  0.00  0.00    +0.004 C 
ENDBRANCH  34  35
ENDBRANCH  33  34
ENDBRANCH  28  33
ENDBRANCH  27  28
ENDBRANCH  24  27
ENDBRANCH   1  24
TORSDOF 11
ENDMDL
MODEL 2
REMARK VINA RESULT:      24.0      2.745      6.304
REMARK  Name = *****
REMARK                            x       y       z     vdW  Elec       q    Type
REMARK                         _______ _______ _______ _____ _____    ______ ____
ROOT
ATOM      1  C   LIG    1       26.859 -18.101   3.690  0.00  0.00    -0.008 A 
ATOM      2  C   LIG    1       26.632 -16.716   3.560  0.00  0.00    -0.004 A 
ATOM      3  C   LIG    1       27.504 -15.512   3.505  0.00  0.00    -0.009 A 
ATOM      4  C   LIG    1       26.719 -14.337   3.580  0.00  0.00    -0.008 A 
ATOM      5  C   LIG    1       25.298 -14.797   3.781  0.00  0.00    -0.009 C 
ATOM      6  C   LIG    1       24.361 -14.154   4.474  0.00  0.00    +0.017 C 
ATOM      7  C   LIG    1       27.286 -13.072   3.411  0.00  0.00    +0.029 A 
ATOM      8  C   LIG    1       28.692 -12.985   3.296  0.00  0.00    +0.042 A 
ATOM      9 CL   LIG    1       29.471 -11.448   3.258  0.00  0.00    -0.084 Cl
ATOM     10  C   LIG    1       29.457 -14.141   3.191  0.00  0.00    +0.020 A 
ATOM     11  C   LIG    1       28.859 -15.372   3.193  0.00  0.00    +0.010 A 
ATOM     12  C   LIG    1       25.284 -16.246   3.452  0.00  0.00    -0.008 A 
ATOM     13  C   LIG    1       24.232 -17.047   3.066  0.00  0.00    +0.029 A 
ATOM     14  C   LIG    1       24.503 -18.404   2.927  0.00  0.00    +0.042 A 
ATOM     15 CL   LIG    1       23.276 -19.450   2.345  0.00  0.00    -0.084 Cl
ATOM     16  C   LIG    1       25.765 -18.920   3.285  0.00  0.00    +0.027 A 
ENDROOT
BRANCH   6  17
ATOM     17  C   LIG    1       23.054 -14.647   5.061  0.00  0.00    -0.024 A 
ATOM     18  C   LIG    1       22.460 -14.011   6.157  0.00  0.00    +0.009 A 
ATOM     19  C   LIG    1       21.307 -14.560   6.778  0.00  0.00    +0.020 A 
ATOM     20  C   LIG    1       20.741 -15.731   6.290  0.00  0.00    +0.041 A 
ATOM     21 CL   LIG    1       19.350 -16.406   7.060  0.00  0.00    -0.084 Cl
ATOM     22  C   LIG    1       21.297 -16.361   5.186  0.00  0.00    +0.020 A 
ATOM     23  C   LIG    1       22.459 -15.818   4.569  0.00  0.00    +0.009 A 
ENDBRANCH   6  17
BRANCH   1  24
ATOM     24  C   LIG    1       28.052 -18.722   4.480  0.00  0.00    +0.159 C 
BRANCH  24  25
ATOM     25  O   LIG    1       29.276 -17.987   4.394  0.00  0.00    -0.386 OA
ATOM     26  H   LIG    1       30.008 -18.502   4.757  0.00  0.00    +0.210 HD
ENDBRANCH  24  25
BRANCH  24  27
ATOM     27  C   LIG    1       27.820 -19.047   5.983  0.00  0.00    +0.120 C 
BRANCH  27  28
ATOM     28  N   LIG    1       26.927 -20.133   6.522  0.00  0.00    -0.300 NA
BRANCH  28  29
ATOM     29  C   LIG    1       27.062 -21.378   5.722  0.00  0.00    +0.084 C 
BRANCH  29  30
ATOM     30  C   LIG    1       26.656 -21.420   4.200  0.00  0.00    +0.015 C 
BRANCH  30  32
ATOM     31  C   LIG    1       24.309 -21.570   2.892  0.00  0.00    +0.004 C 
ATOM     32  C   LIG    1       25.238 -20.987   3.915  0.00  0.00    -0.002 C 
ENDBRANCH  30  32
ENDBRANCH  29  30
ENDBRANCH  28  29
BRANCH  28  33
ATOM     33  C   LIG    1       25.577 -19.516   6.702  0.00  0.00    +0.084 C 
BRANCH  33  34
ATOM     34  C   LIG    1       24.436 -20.086   5.895  0.00  0.00    +0.015 C 
BRANCH  34  35
ATOM     35  C   LIG    1       23.137 -20.586   6.471  0.00  0.00    -0.002 C 
ATOM     36  C   LIG    1       22.366 -21.451   5.528  0.00  0.00    +0.004 C 
ENDBRANCH  34  35
ENDBRANCH  33  34
ENDBRANCH  28  33
ENDBRANCH  27  28
ENDBRANCH  24  27
ENDBRANCH   1  24
TORSDOF 11
ENDMDL
MODEL 3
REMARK VINA RESULT:      24.3      2.723      7.718
REMARK  Name = *****
REMARK                            x       y       z     vdW  Elec       q    Type
REMARK                         _______ _______ _______ _____ _____    ______ ____
ROOT
ATOM      1  C   LIG    1       27.213 -17.625   4.508  0.00  0.00    -0.008 A 
ATOM      2  C   LIG    1       26.232 -16.924   3.779  0.00  0.00    -0.004 A 
ATOM      3  C   LIG    1       26.037 -15.504   3.380  0.00  0.00    -0.009 A 
ATOM      4  C   LIG    1       24.747 -15.326   2.825  0.00  0.00    -0.008 A 
ATOM      5  C   LIG    1       24.050 -16.656   2.953  0.00  0.00    -0.009 C 
ATOM      6  C   LIG    1       22.746 -16.838   3.145  0.00  0.00    +0.017 C 
ATOM      7  C   LIG    1       24.366 -14.113   2.247  0.00  0.00    +0.029 A 
ATOM      8  C   LIG    1       25.257 -13.020   2.349  0.00  0.00    +0.042 A 
ATOM      9 CL   LIG    1       24.780 -11.453   1.812  0.00  0.00    -0.084 Cl
ATOM     10  C   LIG    1       26.533 -13.206   2.866  0.00  0.00    +0.020 A 
ATOM     11  C   LIG    1       26.943 -14.446   3.275  0.00  0.00    +0.010 A 
ATOM     12  C   LIG    1       25.113 -17.648   3.257  0.00  0.00    -0.008 A 
ATOM     13  C   LIG    1       25.119 -19.013   3.063  0.00  0.00    +0.029 A 
ATOM     14  C   LIG    1       26.225 -19.704   3.548  0.00  0.00    +0.042 A 
ATOM     15 CL   LIG    1       26.360 -21.387   3.251  0.00  0.00    -0.084 Cl
ATOM     16  C   LIG    1       27.212 -19.034   4.298  0.00  0.00    +0.027 A 
ENDROOT
BRANCH   6  17
ATOM     17  C   LIG    1       21.981 -18.045   3.650  0.00  0.00    -0.024 A 
ATOM     18  C   LIG    1       20.583 -18.090   3.613  0.00  0.00    +0.009 A 
ATOM     19  C   LIG    1       19.876 -19.169   4.209  0.00  0.00    +0.020 A 
ATOM     20  C   LIG    1       20.569 -20.206   4.821  0.00  0.00    +0.041 A 
ATOM     21 CL   LIG    1       19.704 -21.505   5.561  0.00  0.00    -0.084 Cl
ATOM     22  C   LIG    1       21.956 -20.194   4.842  0.00  0.00    +0.020 A 
ATOM     23  C   LIG    1       22.666 -19.109   4.256  0.00  0.00    +0.009 A 
ENDBRANCH   6  17
BRANCH   1  24
ATOM     24  C   LIG    1       28.042 -17.007   5.676  0.00  0.00    +0.159 C 
BRANCH  24  25
ATOM     25  O   LIG    1       29.259 -17.696   5.978  0.00  0.00    -0.386 OA
ATOM     26  H   LIG    1       29.850 -17.133   6.494  0.00  0.00    +0.210 HD
ENDBRANCH  24  25
BRANCH  24  27
ATOM     27  C   LIG    1       28.386 -15.494   5.585  0.00  0.00    +0.120 C 
BRANCH  27  28
ATOM     28  N   LIG    1       27.390 -14.366   5.513  0.00  0.00    -0.300 NA
BRANCH  28  29
ATOM     29  C   LIG    1       27.976 -13.105   6.037  0.00  0.00    +0.084 C 
BRANCH  29  30
ATOM     30  C   LIG    1       28.682 -12.071   5.080  0.00  0.00    +0.015 C 
BRANCH  30  32
ATOM     31  C   LIG    1       28.741 -12.413   2.411  0.00  0.00    +0.004 C 
ATOM     32  C   LIG    1       29.231 -12.668   3.806  0.00  0.00    -0.002 C 
ENDBRANCH  30  32
ENDBRANCH  29  30
ENDBRANCH  28  29
BRANCH  28  33
ATOM     33  C   LIG    1       26.120 -14.890   6.105  0.00  0.00    +0.084 C 
BRANCH  33  34
ATOM     34  C   LIG    1       24.902 -14.003   6.040  0.00  0.00    +0.015 C 
BRANCH  34  35
ATOM     35  C   LIG    1       23.653 -14.308   5.255  0.00  0.00    -0.002 C 
ATOM     36  C   LIG    1       22.589 -14.968   6.069  0.00  0.00    +0.004 C 
ENDBRANCH  34  35
ENDBRANCH  33  34
ENDBRANCH  28  33
ENDBRANCH  27  28
ENDBRANCH  24  27
ENDBRANCH   1  24
TORSDOF 11
ENDMDL
