MODEL 1
REMARK VINA RESULT:      -5.5      0.000      0.000
REMARK  Name = *****
REMARK                            x       y       z     vdW  Elec       q    Type
REMARK                         _______ _______ _______ _____ _____    ______ ____
ROOT
ATOM      1  C   LIG    1       26.087 -19.693   4.477  0.00  0.00    +0.090 A 
ATOM      2  C   LIG    1       25.377 -18.745   3.720  0.00  0.00    +0.157 A 
ATOM      3  C   LIG    1       23.977 -18.771   3.735  0.00  0.00    +0.132 A 
ATOM      4  C   LIG    1       23.305 -19.787   4.426  0.00  0.00    +0.277 A 
ATOM      5  C   LIG    1       24.014 -20.758   5.141  0.00  0.00    +0.086 A 
ATOM      6  C   LIG    1       25.409 -20.704   5.167  0.00  0.00    +0.035 A 
ENDROOT
BRANCH   4   7
ATOM      7  N   LIG    1       21.838 -19.825   4.398  0.00  0.00    +0.080 N 
ATOM      8  O   LIG    1       21.282 -20.879   4.734  0.00  0.00    -0.576 OA
ATOM      9  O   LIG    1       21.243 -18.800   4.037  0.00  0.00    +0.041 OA
ENDBRANCH   4   7
BRANCH   1  10
ATOM     10  N   LIG    1       27.520 -19.692   4.502  0.00  0.00    -0.217 N 
ATOM     11  H   LIG    1       27.932 -20.384   3.868  0.00  0.00    +0.173 HD
BRANCH  10  13
ATOM     12  C   LIG    1       29.413 -18.565   6.051  0.00  0.00    +0.218 C 
ATOM     13  S   LIG    1       28.244 -19.907   6.022  0.00  0.00    +0.040 S 
ATOM     14  O   LIG    1       27.262 -19.679   7.062  0.00  0.00    -0.155 OA
ATOM     15  O   LIG    1       28.983 -21.143   5.938  0.00  0.00    -0.155 OA
ENDBRANCH  10  13
ENDBRANCH   1  10
BRANCH   2  16
ATOM     16  O   LIG    1       26.114 -17.784   3.051  0.00  0.00    -0.454 OA
BRANCH  16  17
ATOM     17  C   LIG    1       26.039 -16.466   3.449  0.00  0.00    +0.129 A 
ATOM     18  C   LIG    1       24.838 -15.761   3.582  0.00  0.00    +0.046 A 
ATOM     19  C   LIG    1       24.845 -14.445   4.047  0.00  0.00    +0.004 A 
ATOM     20  C   LIG    1       26.054 -13.803   4.307  0.00  0.00    +0.000 A 
ATOM     21  C   LIG    1       27.257 -14.476   4.103  0.00  0.00    +0.004 A 
ATOM     22  C   LIG    1       27.251 -15.808   3.679  0.00  0.00    +0.046 A 
ENDBRANCH  16  17
ENDBRANCH   2  16
TORSDOF 5
ENDMDL
MODEL 2
REMARK VINA RESULT:      -5.3      1.871      4.728
REMARK  Name = *****
REMARK                            x       y       z     vdW  Elec       q    Type
REMARK                         _______ _______ _______ _____ _____    ______ ____
ROOT
ATOM      1  C   LIG    1       25.043 -19.641   4.259  0.00  0.00    +0.090 A 
ATOM      2  C   LIG    1       26.035 -18.684   3.980  0.00  0.00    +0.157 A 
ATOM      3  C   LIG    1       27.282 -18.793   4.606  0.00  0.00    +0.132 A 
ATOM      4  C   LIG    1       27.498 -19.793   5.564  0.00  0.00    +0.277 A 
ATOM      5  C   LIG    1       26.495 -20.716   5.875  0.00  0.00    +0.086 A 
ATOM      6  C   LIG    1       25.267 -20.638   5.215  0.00  0.00    +0.035 A 
ENDROOT
BRANCH   4   7
ATOM      7  N   LIG    1       28.798 -19.869   6.242  0.00  0.00    +0.080 N 
ATOM      8  O   LIG    1       29.475 -18.834   6.309  0.00  0.00    -0.576 OA
ATOM      9  O   LIG    1       29.140 -20.965   6.707  0.00  0.00    +0.041 OA
ENDBRANCH   4   7
BRANCH   1  10
ATOM     10  N   LIG    1       23.759 -19.575   3.628  0.00  0.00    -0.217 N 
ATOM     11  H   LIG    1       23.694 -18.829   2.927  0.00  0.00    +0.173 HD
BRANCH  10  13
ATOM     12  C   LIG    1       21.592 -20.967   4.415  0.00  0.00    +0.218 C 
ATOM     13  S   LIG    1       22.423 -19.412   4.661  0.00  0.00    +0.040 S 
ATOM     14  O   LIG    1       22.879 -19.352   6.035  0.00  0.00    -0.155 OA
ATOM     15  O   LIG    1       21.603 -18.371   4.090  0.00  0.00    -0.155 OA
ENDBRANCH  10  13
ENDBRANCH   1  10
BRANCH   2  16
ATOM     16  O   LIG    1       25.738 -17.717   3.036  0.00  0.00    -0.454 OA
BRANCH  16  17
ATOM     17  C   LIG    1       25.723 -16.387   3.401  0.00  0.00    +0.129 A 
ATOM     18  C   LIG    1       26.861 -15.573   3.419  0.00  0.00    +0.046 A 
ATOM     19  C   LIG    1       26.751 -14.221   3.744  0.00  0.00    +0.004 A 
ATOM     20  C   LIG    1       25.519 -13.693   4.129  0.00  0.00    +0.000 A 
ATOM     21  C   LIG    1       24.397 -14.518   4.187  0.00  0.00    +0.004 A 
ATOM     22  C   LIG    1       24.497 -15.864   3.819  0.00  0.00    +0.046 A 
ENDBRANCH  16  17
ENDBRANCH   2  16
TORSDOF 5
ENDMDL
MODEL 3
REMARK VINA RESULT:      -4.7      2.415      4.959
REMARK  Name = *****
REMARK                            x       y       z     vdW  Elec       q    Type
REMARK                         _______ _______ _______ _____ _____    ______ ____
ROOT
ATOM      1  C   LIG    1       27.621 -18.416   4.400  0.00  0.00    +0.090 A 
ATOM      2  C   LIG    1       26.452 -18.258   3.636  0.00  0.00    +0.157 A 
ATOM      3  C   LIG    1       26.101 -16.982   3.182  0.00  0.00    +0.132 A 
ATOM      4  C   LIG    1       26.863 -15.870   3.566  0.00  0.00    +0.277 A 
ATOM      5  C   LIG    1       28.000 -16.022   4.365  0.00  0.00    +0.086 A 
ATOM      6  C   LIG    1       28.379 -17.301   4.778  0.00  0.00    +0.035 A 
ENDROOT
BRANCH   4   7
ATOM      7  N   LIG    1       26.458 -14.533   3.116  0.00  0.00    +0.080 N 
ATOM      8  O   LIG    1       26.177 -13.693   3.982  0.00  0.00    -0.576 OA
ATOM      9  O   LIG    1       26.421 -14.324   1.895  0.00  0.00    +0.041 OA
ENDBRANCH   4   7
BRANCH   1  10
ATOM     10  N   LIG    1       28.025 -19.707   4.872  0.00  0.00    -0.217 N 
ATOM     11  H   LIG    1       27.415 -20.463   4.541  0.00  0.00    +0.173 HD
BRANCH  10  13
ATOM     12  C   LIG    1       28.952 -21.476   6.678  0.00  0.00    +0.218 C 
ATOM     13  S   LIG    1       28.173 -19.880   6.553  0.00  0.00    +0.040 S 
ATOM     14  O   LIG    1       29.093 -18.883   7.062  0.00  0.00    -0.155 OA
ATOM     15  O   LIG    1       26.828 -19.997   7.061  0.00  0.00    -0.155 OA
ENDBRANCH  10  13
ENDBRANCH   1  10
BRANCH   2  16
ATOM     16  O   LIG    1       25.744 -19.403   3.314  0.00  0.00    -0.454 OA
BRANCH  16  17
ATOM     17  C   LIG    1       24.605 -19.724   4.023  0.00  0.00    +0.129 A 
ATOM     18  C   LIG    1       23.436 -18.956   4.005  0.00  0.00    +0.046 A 
ATOM     19  C   LIG    1       22.306 -19.383   4.704  0.00  0.00    +0.004 A 
ATOM     20  C   LIG    1       22.363 -20.535   5.487  0.00  0.00    +0.000 A 
ATOM     21  C   LIG    1       23.550 -21.262   5.569  0.00  0.00    +0.004 A 
ATOM     22  C   LIG    1       24.669 -20.860   4.835  0.00  0.00    +0.046 A 
ENDBRANCH  16  17
ENDBRANCH   2  16
TORSDOF 5
ENDMDL
MODEL 4
REMARK VINA RESULT:      -3.9      2.772      5.532
REMARK  Name = *****
REMARK                            x       y       z     vdW  Elec       q    Type
REMARK                         _______ _______ _______ _____ _____    ______ ____
ROOT
ATOM      1  C   LIG    1       27.313 -17.498   4.018  0.00  0.00    +0.090 A 
ATOM      2  C   LIG    1       26.496 -18.642   4.055  0.00  0.00    +0.157 A 
ATOM      3  C   LIG    1       26.811 -19.675   4.945  0.00  0.00    +0.132 A 
ATOM      4  C   LIG    1       27.976 -19.600   5.719  0.00  0.00    +0.277 A 
ATOM      5  C   LIG    1       28.813 -18.482   5.647  0.00  0.00    +0.086 A 
ATOM      6  C   LIG    1       28.475 -17.429   4.795  0.00  0.00    +0.035 A 
ENDROOT
BRANCH   4   7
ATOM      7  N   LIG    1       28.314 -20.711   6.617  0.00  0.00    +0.080 N 
ATOM      8  O   LIG    1       27.426 -21.532   6.879  0.00  0.00    -0.576 OA
ATOM      9  O   LIG    1       29.470 -20.758   7.062  0.00  0.00    +0.041 OA
ENDBRANCH   4   7
BRANCH   1  10
ATOM     10  N   LIG    1       27.017 -16.411   3.132  0.00  0.00    -0.217 N 
ATOM     11  H   LIG    1       27.806 -16.164   2.524  0.00  0.00    +0.173 HD
BRANCH  10  13
ATOM     12  C   LIG    1       26.483 -13.854   2.478  0.00  0.00    +0.218 C 
ATOM     13  S   LIG    1       26.474 -14.977   3.860  0.00  0.00    +0.040 S 
ATOM     14  O   LIG    1       25.105 -15.148   4.300  0.00  0.00    -0.155 OA
ATOM     15  O   LIG    1       27.517 -14.574   4.771  0.00  0.00    -0.155 OA
ENDBRANCH  10  13
ENDBRANCH   1  10
BRANCH   2  16
ATOM     16  O   LIG    1       25.373 -18.648   3.247  0.00  0.00    -0.454 OA
BRANCH  16  17
ATOM     17  C   LIG    1       24.197 -19.194   3.716  0.00  0.00    +0.129 A 
ATOM     18  C   LIG    1       24.012 -20.562   3.944  0.00  0.00    +0.046 A 
ATOM     19  C   LIG    1       22.809 -21.028   4.476  0.00  0.00    +0.004 A 
ATOM     20  C   LIG    1       21.759 -20.141   4.710  0.00  0.00    +0.000 A 
ATOM     21  C   LIG    1       21.912 -18.788   4.413  0.00  0.00    +0.004 A 
ATOM     22  C   LIG    1       23.132 -18.313   3.920  0.00  0.00    +0.046 A 
ENDBRANCH  16  17
ENDBRANCH   2  16
TORSDOF 5
ENDMDL
MODEL 5
REMARK VINA RESULT:      -3.4      2.802      5.930
REMARK  Name = *****
REMARK                            x       y       z     vdW  Elec       q    Type
REMARK                         _______ _______ _______ _____ _____    ______ ____
ROOT
ATOM      1  C   LIG    1       26.877 -16.632   3.686  0.00  0.00    +0.090 A 
ATOM      2  C   LIG    1       26.303 -17.909   3.810  0.00  0.00    +0.157 A 
ATOM      3  C   LIG    1       26.934 -18.864   4.617  0.00  0.00    +0.132 A 
ATOM      4  C   LIG    1       28.166 -18.569   5.214  0.00  0.00    +0.277 A 
ATOM      5  C   LIG    1       28.759 -17.313   5.051  0.00  0.00    +0.086 A 
ATOM      6  C   LIG    1       28.107 -16.343   4.287  0.00  0.00    +0.035 A 
ENDROOT
BRANCH   4   7
ATOM      7  N   LIG    1       28.836 -19.595   6.023  0.00  0.00    +0.080 N 
ATOM      8  O   LIG    1       28.721 -20.775   5.667  0.00  0.00    -0.576 OA
ATOM      9  O   LIG    1       29.475 -19.217   7.015  0.00  0.00    +0.041 OA
ENDBRANCH   4   7
BRANCH   1  10
ATOM     10  N   LIG    1       26.255 -15.621   2.882  0.00  0.00    -0.217 N 
ATOM     11  H   LIG    1       26.919 -15.127   2.276  0.00  0.00    +0.173 HD
BRANCH  10  13
ATOM     12  C   LIG    1       25.187 -13.184   2.470  0.00  0.00    +0.218 C 
ATOM     13  S   LIG    1       25.364 -14.443   3.717  0.00  0.00    +0.040 S 
ATOM     14  O   LIG    1       24.048 -14.963   4.029  0.00  0.00    -0.155 OA
ATOM     15  O   LIG    1       26.240 -13.935   4.745  0.00  0.00    -0.155 OA
ENDBRANCH  10  13
ENDBRANCH   1  10
BRANCH   2  16
ATOM     16  O   LIG    1       25.094 -18.128   3.175  0.00  0.00    -0.454 OA
BRANCH  16  17
ATOM     17  C   LIG    1       24.180 -19.001   3.727  0.00  0.00    +0.129 A 
ATOM     18  C   LIG    1       24.369 -20.386   3.793  0.00  0.00    +0.046 A 
ATOM     19  C   LIG    1       23.421 -21.194   4.421  0.00  0.00    +0.004 A 
ATOM     20  C   LIG    1       22.245 -20.634   4.918  0.00  0.00    +0.000 A 
ATOM     21  C   LIG    1       22.017 -19.265   4.787  0.00  0.00    +0.004 A 
ATOM     22  C   LIG    1       22.986 -18.448   4.196  0.00  0.00    +0.046 A 
ENDBRANCH  16  17
ENDBRANCH   2  16
TORSDOF 5
ENDMDL
MODEL 6
REMARK VINA RESULT:      -3.0      2.485      4.824
REMARK  Name = *****
REMARK                            x       y       z     vdW  Elec       q    Type
REMARK                         _______ _______ _______ _____ _____    ______ ____
ROOT
ATOM      1  C   LIG    1       25.630 -16.472   3.684  0.00  0.00    +0.090 A 
ATOM      2  C   LIG    1       25.705 -17.872   3.781  0.00  0.00    +0.157 A 
ATOM      3  C   LIG    1       24.525 -18.609   3.934  0.00  0.00    +0.132 A 
ATOM      4  C   LIG    1       23.300 -17.945   4.077  0.00  0.00    +0.277 A 
ATOM      5  C   LIG    1       23.232 -16.548   4.027  0.00  0.00    +0.086 A 
ATOM      6  C   LIG    1       24.402 -15.814   3.826  0.00  0.00    +0.035 A 
ENDROOT
BRANCH   4   7
ATOM      7  N   LIG    1       22.076 -18.730   4.278  0.00  0.00    +0.080 N 
ATOM      8  O   LIG    1       21.051 -18.360   3.690  0.00  0.00    -0.576 OA
ATOM      9  O   LIG    1       22.142 -19.716   5.026  0.00  0.00    +0.041 OA
ENDBRANCH   4   7
BRANCH   1  10
ATOM     10  N   LIG    1       26.812 -15.681   3.512  0.00  0.00    -0.217 N 
ATOM     11  H   LIG    1       27.459 -15.750   4.305  0.00  0.00    +0.173 HD
BRANCH  10  13
ATOM     12  C   LIG    1       28.227 -13.395   3.361  0.00  0.00    +0.218 C 
ATOM     13  S   LIG    1       26.572 -14.031   3.199  0.00  0.00    +0.040 S 
ATOM     14  O   LIG    1       26.149 -13.856   1.825  0.00  0.00    -0.155 OA
ATOM     15  O   LIG    1       25.789 -13.527   4.301  0.00  0.00    -0.155 OA
ENDBRANCH  10  13
ENDBRANCH   1  10
BRANCH   2  16
ATOM     16  O   LIG    1       26.954 -18.453   3.648  0.00  0.00    -0.454 OA
BRANCH  16  17
ATOM     17  C   LIG    1       27.595 -18.957   4.760  0.00  0.00    +0.129 A 
ATOM     18  C   LIG    1       27.120 -20.040   5.507  0.00  0.00    +0.046 A 
ATOM     19  C   LIG    1       27.861 -20.527   6.585  0.00  0.00    +0.004 A 
ATOM     20  C   LIG    1       29.037 -19.887   6.970  0.00  0.00    +0.000 A 
ATOM     21  C   LIG    1       29.475 -18.760   6.276  0.00  0.00    +0.004 A 
ATOM     22  C   LIG    1       28.757 -18.297   5.168  0.00  0.00    +0.046 A 
ENDBRANCH  16  17
ENDBRANCH   2  16
TORSDOF 5
ENDMDL
MODEL 7
REMARK VINA RESULT:      -3.0      2.657      5.107
REMARK  Name = *****
REMARK                            x       y       z     vdW  Elec       q    Type
REMARK                         _______ _______ _______ _____ _____    ______ ____
ROOT
ATOM      1  C   LIG    1       23.822 -18.357   3.893  0.00  0.00    +0.090 A 
ATOM      2  C   LIG    1       25.133 -17.890   3.692  0.00  0.00    +0.157 A 
ATOM      3  C   LIG    1       25.383 -16.514   3.753  0.00  0.00    +0.132 A 
ATOM      4  C   LIG    1       24.319 -15.618   3.922  0.00  0.00    +0.277 A 
ATOM      5  C   LIG    1       23.009 -16.081   4.075  0.00  0.00    +0.086 A 
ATOM      6  C   LIG    1       22.764 -17.456   4.063  0.00  0.00    +0.035 A 
ENDROOT
BRANCH   4   7
ATOM      7  N   LIG    1       24.592 -14.176   3.942  0.00  0.00    +0.080 N 
ATOM      8  O   LIG    1       23.835 -13.437   3.298  0.00  0.00    -0.576 OA
ATOM      9  O   LIG    1       25.566 -13.784   4.600  0.00  0.00    +0.041 OA
ENDBRANCH   4   7
BRANCH   1  10
ATOM     10  N   LIG    1       23.525 -19.759   3.854  0.00  0.00    -0.217 N 
ATOM     11  H   LIG    1       22.936 -20.022   3.057  0.00  0.00    +0.173 HD
BRANCH  10  13
ATOM     12  C   LIG    1       24.052 -21.572   5.775  0.00  0.00    +0.218 C 
ATOM     13  S   LIG    1       22.808 -20.412   5.247  0.00  0.00    +0.040 S 
ATOM     14  O   LIG    1       22.688 -19.381   6.257  0.00  0.00    -0.155 OA
ATOM     15  O   LIG    1       21.662 -21.161   4.790  0.00  0.00    -0.155 OA
ENDBRANCH  10  13
ENDBRANCH   1  10
BRANCH   2  16
ATOM     16  O   LIG    1       26.125 -18.838   3.514  0.00  0.00    -0.454 OA
BRANCH  16  17
ATOM     17  C   LIG    1       27.006 -19.106   4.540  0.00  0.00    +0.129 A 
ATOM     18  C   LIG    1       26.786 -20.081   5.519  0.00  0.00    +0.046 A 
ATOM     19  C   LIG    1       27.756 -20.330   6.491  0.00  0.00    +0.004 A 
ATOM     20  C   LIG    1       28.914 -19.557   6.536  0.00  0.00    +0.000 A 
ATOM     21  C   LIG    1       29.103 -18.533   5.609  0.00  0.00    +0.004 A 
ATOM     22  C   LIG    1       28.153 -18.310   4.608  0.00  0.00    +0.046 A 
ENDBRANCH  16  17
ENDBRANCH   2  16
TORSDOF 5
ENDMDL
MODEL 8
REMARK VINA RESULT:      -2.9      2.717      6.027
REMARK  Name = *****
REMARK                            x       y       z     vdW  Elec       q    Type
REMARK                         _______ _______ _______ _____ _____    ______ ____
ROOT
ATOM      1  C   LIG    1       24.606 -17.413   3.616  0.00  0.00    +0.090 A 
ATOM      2  C   LIG    1       25.994 -17.634   3.583  0.00  0.00    +0.157 A 
ATOM      3  C   LIG    1       26.861 -16.538   3.667  0.00  0.00    +0.132 A 
ATOM      4  C   LIG    1       26.342 -15.237   3.692  0.00  0.00    +0.277 A 
ATOM      5  C   LIG    1       24.960 -15.016   3.678  0.00  0.00    +0.086 A 
ATOM      6  C   LIG    1       24.094 -16.111   3.644  0.00  0.00    +0.035 A 
ENDROOT
BRANCH   4   7
ATOM      7  N   LIG    1       27.264 -14.096   3.738  0.00  0.00    +0.080 N 
ATOM      8  O   LIG    1       27.783 -13.731   2.674  0.00  0.00    -0.576 OA
ATOM      9  O   LIG    1       27.470 -13.568   4.839  0.00  0.00    +0.041 OA
ENDBRANCH   4   7
BRANCH   1  10
ATOM     10  N   LIG    1       23.684 -18.508   3.549  0.00  0.00    -0.217 N 
ATOM     11  H   LIG    1       23.405 -18.738   2.589  0.00  0.00    +0.173 HD
BRANCH  10  13
ATOM     12  C   LIG    1       22.416 -19.718   5.593  0.00  0.00    +0.218 C 
ATOM     13  S   LIG    1       22.264 -18.350   4.463  0.00  0.00    +0.040 S 
ATOM     14  O   LIG    1       22.315 -17.120   5.227  0.00  0.00    -0.155 OA
ATOM     15  O   LIG    1       21.176 -18.635   3.559  0.00  0.00    -0.155 OA
ENDBRANCH  10  13
ENDBRANCH   1  10
BRANCH   2  16
ATOM     16  O   LIG    1       26.428 -18.947   3.540  0.00  0.00    -0.454 OA
BRANCH  16  17
ATOM     17  C   LIG    1       26.734 -19.605   4.713  0.00  0.00    +0.129 A 
ATOM     18  C   LIG    1       25.829 -20.414   5.408  0.00  0.00    +0.046 A 
ATOM     19  C   LIG    1       26.236 -21.093   6.558  0.00  0.00    +0.004 A 
ATOM     20  C   LIG    1       27.522 -20.905   7.062  0.00  0.00    +0.000 A 
ATOM     21  C   LIG    1       28.402 -20.040   6.415  0.00  0.00    +0.004 A 
ATOM     22  C   LIG    1       28.011 -19.393   5.238  0.00  0.00    +0.046 A 
ENDBRANCH  16  17
ENDBRANCH   2  16
TORSDOF 5
ENDMDL
