MODEL 1
REMARK VINA RESULT:      -5.9      0.000      0.000
REMARK  Name = *****
REMARK                            x       y       z     vdW  Elec       q    Type
REMARK                         _______ _______ _______ _____ _____    ______ ____
ROOT
ATOM      1  C   LIG    1       25.224 -31.728   7.547  0.00  0.00    -0.002 C 
ATOM      2  C   LIG    1       25.386 -30.477   8.508  0.00  0.00    -0.026 C 
ATOM      3  C   LIG    1       25.522 -29.154   7.715  0.00  0.00    +0.012 C 
ATOM      4  C   LIG    1       26.746 -30.717   9.261  0.00  0.00    +0.001 C 
ATOM      5  C   LIG    1       26.834 -30.665  10.825  0.00  0.00    +0.025 C 
ATOM      6  C   LIG    1       25.491 -30.572  11.606  0.00  0.00    +0.001 C 
ATOM      7  C   LIG    1       24.350 -31.125  10.741  0.00  0.00    +0.005 C 
ATOM      8  C   LIG    1       25.220 -29.219  12.407  0.00  0.00    -0.026 C 
ATOM      9  C   LIG    1       23.699 -28.874  12.479  0.00  0.00    +0.012 C 
ATOM     10  C   LIG    1       25.959 -27.980  11.790  0.00  0.00    +0.000 C 
ATOM     11  C   LIG    1       26.028 -26.773  12.757  0.00  0.00    +0.035 C 
ATOM     12  C   LIG    1       26.536 -27.120  14.155  0.00  0.00    +0.115 C 
ATOM     13  C   LIG    1       25.708 -28.228  14.785  0.00  0.00    +0.032 C 
ATOM     14  C   LIG    1       27.344 -28.214  11.148  0.00  0.00    +0.035 C 
ATOM     15  C   LIG    1       25.625 -29.472  13.904  0.00  0.00    +0.009 C 
ATOM     16  C   LIG    1       27.879 -29.625  11.256  0.00  0.00    +0.118 C 
ATOM     17  C   LIG    1       27.264 -32.069   8.740  0.00  0.00    +0.005 C 
ATOM     18  C   LIG    1       24.179 -30.351   9.450  0.00  0.00    +0.007 C 
ATOM     19  C   LIG    1       26.671 -32.198   7.352  0.00  0.00    +0.004 C 
ENDROOT
BRANCH   1  21
ATOM     20  C   LIG    1       23.296 -32.504   6.004  0.00  0.00    +0.008 C 
ATOM     21  C   LIG    1       24.478 -31.544   6.188  0.00  0.00    -0.010 C 
BRANCH  21  22
ATOM     22  C   LIG    1       25.411 -31.644   4.946  0.00  0.00    +0.015 C 
BRANCH  22  23
ATOM     23  C   LIG    1       25.175 -32.858   4.048  0.00  0.00    +0.121 C 
BRANCH  23  24
ATOM     24  C   LIG    1       26.308 -33.041   3.069  0.00  0.00    +0.305 C 
ATOM     25  O   LIG    1       27.444 -33.362   3.391  0.00  0.00    -0.251 OA
BRANCH  24  26
ATOM     26  O   LIG    1       25.964 -32.792   1.786  0.00  0.00    -0.481 OA
ATOM     27  H   LIG    1       25.014 -32.611   1.652  0.00  0.00    +0.295 HD
ENDBRANCH  24  26
ENDBRANCH  23  24
ENDBRANCH  22  23
ENDBRANCH  21  22
ENDBRANCH   1  21
BRANCH  12  28
ATOM     28  O   LIG    1       27.915 -27.476  14.137  0.00  0.00    -0.392 OA
ATOM     29  H   LIG    1       28.198 -27.611  13.208  0.00  0.00    +0.210 HD
ENDBRANCH  12  28
BRANCH  16  30
ATOM     30  O   LIG    1       28.322 -29.837  12.592  0.00  0.00    -0.392 OA
ATOM     31  H   LIG    1       29.234 -29.498  12.653  0.00  0.00    +0.210 HD
ENDBRANCH  16  30
TORSDOF 7
ENDMDL
MODEL 2
REMARK VINA RESULT:      -5.7      2.060      2.398
REMARK  Name = *****
REMARK                            x       y       z     vdW  Elec       q    Type
REMARK                         _______ _______ _______ _____ _____    ______ ____
ROOT
ATOM      1  C   LIG    1       24.993 -31.052   7.837  0.00  0.00    -0.002 C 
ATOM      2  C   LIG    1       25.239 -29.906   8.903  0.00  0.00    -0.026 C 
ATOM      3  C   LIG    1       25.519 -28.540   8.228  0.00  0.00    +0.012 C 
ATOM      4  C   LIG    1       26.548 -30.332   9.663  0.00  0.00    +0.001 C 
ATOM      5  C   LIG    1       26.594 -30.418  11.227  0.00  0.00    +0.025 C 
ATOM      6  C   LIG    1       25.243 -30.264  11.984  0.00  0.00    +0.001 C 
ATOM      7  C   LIG    1       24.083 -30.634  11.050  0.00  0.00    +0.005 C 
ATOM      8  C   LIG    1       25.074 -28.962  12.890  0.00  0.00    -0.026 C 
ATOM      9  C   LIG    1       23.589 -28.483  12.957  0.00  0.00    +0.012 C 
ATOM     10  C   LIG    1       25.941 -27.751  12.396  0.00  0.00    +0.000 C 
ATOM     11  C   LIG    1       26.091 -26.639  13.463  0.00  0.00    +0.035 C 
ATOM     12  C   LIG    1       26.524 -27.146  14.838  0.00  0.00    +0.115 C 
ATOM     13  C   LIG    1       25.579 -28.219  15.353  0.00  0.00    +0.032 C 
ATOM     14  C   LIG    1       27.317 -28.060  11.767  0.00  0.00    +0.035 C 
ATOM     15  C   LIG    1       25.409 -29.373  14.368  0.00  0.00    +0.009 C 
ATOM     16  C   LIG    1       27.717 -29.519  11.767  0.00  0.00    +0.118 C 
ATOM     17  C   LIG    1       26.956 -31.680   9.041  0.00  0.00    +0.005 C 
ATOM     18  C   LIG    1       24.022 -29.744   9.825  0.00  0.00    +0.007 C 
ATOM     19  C   LIG    1       26.395 -31.639   7.635  0.00  0.00    +0.004 C 
ENDROOT
BRANCH   1  21
ATOM     20  C   LIG    1       23.751 -31.906   5.731  0.00  0.00    +0.008 C 
ATOM     21  C   LIG    1       24.307 -30.688   6.481  0.00  0.00    -0.010 C 
BRANCH  21  22
ATOM     22  C   LIG    1       25.220 -29.873   5.520  0.00  0.00    +0.015 C 
BRANCH  22  23
ATOM     23  C   LIG    1       24.594 -28.600   4.949  0.00  0.00    +0.121 C 
BRANCH  23  24
ATOM     24  C   LIG    1       25.580 -27.458   4.955  0.00  0.00    +0.305 C 
ATOM     25  O   LIG    1       25.259 -26.278   4.896  0.00  0.00    -0.251 OA
BRANCH  24  26
ATOM     26  O   LIG    1       26.871 -27.855   5.009  0.00  0.00    -0.481 OA
ATOM     27  H   LIG    1       27.261 -27.833   5.903  0.00  0.00    +0.295 HD
ENDBRANCH  24  26
ENDBRANCH  23  24
ENDBRANCH  22  23
ENDBRANCH  21  22
ENDBRANCH   1  21
BRANCH  12  28
ATOM     28  O   LIG    1       27.863 -27.627  14.820  0.00  0.00    -0.392 OA
ATOM     29  H   LIG    1       28.301 -27.324  13.997  0.00  0.00    +0.210 HD
ENDBRANCH  12  28
BRANCH  16  30
ATOM     30  O   LIG    1       28.098 -29.881  13.091  0.00  0.00    -0.392 OA
ATOM     31  H   LIG    1       27.405 -29.552  13.692  0.00  0.00    +0.210 HD
ENDBRANCH  16  30
TORSDOF 7
ENDMDL
MODEL 3
REMARK VINA RESULT:      -5.6      5.148      8.289
REMARK  Name = *****
REMARK                            x       y       z     vdW  Elec       q    Type
REMARK                         _______ _______ _______ _____ _____    ______ ____
ROOT
ATOM      1  C   LIG    1       21.194 -28.177  13.629  0.00  0.00    -0.002 C 
ATOM      2  C   LIG    1       22.633 -28.718  14.016  0.00  0.00    -0.026 C 
ATOM      3  C   LIG    1       22.659 -29.319  15.443  0.00  0.00    +0.012 C 
ATOM      4  C   LIG    1       23.557 -27.445  14.024  0.00  0.00    +0.001 C 
ATOM      5  C   LIG    1       24.892 -27.399  13.207  0.00  0.00    +0.025 C 
ATOM      6  C   LIG    1       25.164 -28.579  12.229  0.00  0.00    +0.001 C 
ATOM      7  C   LIG    1       23.836 -29.240  11.835  0.00  0.00    +0.005 C 
ATOM      8  C   LIG    1       26.388 -29.539  12.587  0.00  0.00    -0.026 C 
ATOM      9  C   LIG    1       26.142 -31.005  12.109  0.00  0.00    +0.012 C 
ATOM     10  C   LIG    1       26.704 -29.587  14.123  0.00  0.00    +0.000 C 
ATOM     11  C   LIG    1       28.098 -30.182  14.436  0.00  0.00    +0.035 C 
ATOM     12  C   LIG    1       29.237 -29.567  13.624  0.00  0.00    +0.115 C 
ATOM     13  C   LIG    1       28.966 -29.666  12.131  0.00  0.00    +0.032 C 
ATOM     14  C   LIG    1       26.492 -28.295  14.942  0.00  0.00    +0.035 C 
ATOM     15  C   LIG    1       27.620 -29.063  11.738  0.00  0.00    +0.009 C 
ATOM     16  C   LIG    1       26.068 -27.082  14.144  0.00  0.00    +0.118 C 
ATOM     17  C   LIG    1       22.639 -26.277  13.618  0.00  0.00    +0.005 C 
ATOM     18  C   LIG    1       23.094 -29.802  13.031  0.00  0.00    +0.007 C 
ATOM     19  C   LIG    1       21.255 -26.706  14.057  0.00  0.00    +0.004 C 
ENDROOT
BRANCH   1  21
ATOM     20  C   LIG    1       19.161 -29.706  13.147  0.00  0.00    +0.008 C 
ATOM     21  C   LIG    1       19.935 -28.904  14.201  0.00  0.00    -0.010 C 
BRANCH  21  22
ATOM     22  C   LIG    1       18.950 -27.955  14.942  0.00  0.00    +0.015 C 
BRANCH  22  23
ATOM     23  C   LIG    1       17.515 -27.960  14.414  0.00  0.00    +0.121 C 
BRANCH  23  24
ATOM     24  C   LIG    1       16.951 -26.562  14.356  0.00  0.00    +0.305 C 
ATOM     25  O   LIG    1       15.775 -26.291  14.560  0.00  0.00    -0.251 OA
BRANCH  24  26
ATOM     26  O   LIG    1       17.864 -25.620  14.033  0.00  0.00    -0.481 OA
ATOM     27  H   LIG    1       18.376 -25.278  14.791  0.00  0.00    +0.295 HD
ENDBRANCH  24  26
ENDBRANCH  23  24
ENDBRANCH  22  23
ENDBRANCH  21  22
ENDBRANCH   1  21
BRANCH  12  28
ATOM     28  O   LIG    1       29.477 -28.215  13.999  0.00  0.00    -0.392 OA
ATOM     29  H   LIG    1       30.439 -28.035  13.951  0.00  0.00    +0.210 HD
ENDBRANCH  12  28
BRANCH  16  30
ATOM     30  O   LIG    1       27.200 -26.595  13.430  0.00  0.00    -0.392 OA
ATOM     31  H   LIG    1       27.869 -26.335  14.091  0.00  0.00    +0.210 HD
ENDBRANCH  16  30
TORSDOF 7
ENDMDL
MODEL 4
REMARK VINA RESULT:      -5.6      1.791      2.178
REMARK  Name = *****
REMARK                            x       y       z     vdW  Elec       q    Type
REMARK                         _______ _______ _______ _____ _____    ______ ____
ROOT
ATOM      1  C   LIG    1       24.696 -32.223   9.272  0.00  0.00    -0.002 C 
ATOM      2  C   LIG    1       24.790 -30.813   9.989  0.00  0.00    -0.026 C 
ATOM      3  C   LIG    1       24.229 -29.675   9.101  0.00  0.00    +0.012 C 
ATOM      4  C   LIG    1       26.330 -30.551  10.172  0.00  0.00    +0.001 C 
ATOM      5  C   LIG    1       26.936 -30.182  11.569  0.00  0.00    +0.025 C 
ATOM      6  C   LIG    1       25.990 -30.284  12.800  0.00  0.00    +0.001 C 
ATOM      7  C   LIG    1       24.848 -31.262  12.493  0.00  0.00    +0.005 C 
ATOM      8  C   LIG    1       25.614 -28.916  13.530  0.00  0.00    -0.026 C 
ATOM      9  C   LIG    1       24.185 -28.961  14.159  0.00  0.00    +0.012 C 
ATOM     10  C   LIG    1       25.674 -27.672  12.576  0.00  0.00    +0.000 C 
ATOM     11  C   LIG    1       25.701 -26.325  13.339  0.00  0.00    +0.035 C 
ATOM     12  C   LIG    1       26.744 -26.258  14.453  0.00  0.00    +0.115 C 
ATOM     13  C   LIG    1       26.568 -27.398  15.443  0.00  0.00    +0.032 C 
ATOM     14  C   LIG    1       26.749 -27.666  11.468  0.00  0.00    +0.035 C 
ATOM     15  C   LIG    1       26.570 -28.767  14.768  0.00  0.00    +0.009 C 
ATOM     16  C   LIG    1       27.693 -28.848  11.474  0.00  0.00    +0.118 C 
ATOM     17  C   LIG    1       27.023 -31.802   9.602  0.00  0.00    +0.005 C 
ATOM     18  C   LIG    1       24.010 -30.818  11.312  0.00  0.00    +0.007 C 
ATOM     19  C   LIG    1       26.054 -32.340   8.569  0.00  0.00    +0.004 C 
ENDROOT
BRANCH   1  21
ATOM     20  C   LIG    1       22.404 -33.370   8.912  0.00  0.00    +0.008 C 
ATOM     21  C   LIG    1       23.506 -32.497   8.299  0.00  0.00    -0.010 C 
BRANCH  21  22
ATOM     22  C   LIG    1       23.942 -33.112   6.937  0.00  0.00    +0.015 C 
BRANCH  22  23
ATOM     23  C   LIG    1       23.507 -32.330   5.698  0.00  0.00    +0.121 C 
BRANCH  23  24
ATOM     24  C   LIG    1       24.112 -30.948   5.685  0.00  0.00    +0.305 C 
ATOM     25  O   LIG    1       25.315 -30.729   5.709  0.00  0.00    -0.251 OA
BRANCH  24  26
ATOM     26  O   LIG    1       23.196 -29.954   5.668  0.00  0.00    -0.481 OA
ATOM     27  H   LIG    1       23.059 -29.517   6.530  0.00  0.00    +0.295 HD
ENDBRANCH  24  26
ENDBRANCH  23  24
ENDBRANCH  22  23
ENDBRANCH  21  22
ENDBRANCH   1  21
BRANCH  12  28
ATOM     28  O   LIG    1       28.068 -26.251  13.931  0.00  0.00    -0.392 OA
ATOM     29  H   LIG    1       28.678 -26.629  14.599  0.00  0.00    +0.210 HD
ENDBRANCH  12  28
BRANCH  16  30
ATOM     30  O   LIG    1       28.616 -28.682  12.546  0.00  0.00    -0.392 OA
ATOM     31  H   LIG    1       28.898 -27.749  12.544  0.00  0.00    +0.210 HD
ENDBRANCH  16  30
TORSDOF 7
ENDMDL
MODEL 5
REMARK VINA RESULT:      -5.5      5.294      8.232
REMARK  Name = *****
REMARK                            x       y       z     vdW  Elec       q    Type
REMARK                         _______ _______ _______ _____ _____    ______ ____
ROOT
ATOM      1  C   LIG    1       26.501 -27.854  13.669  0.00  0.00    -0.002 C 
ATOM      2  C   LIG    1       25.066 -28.204  14.243  0.00  0.00    -0.026 C 
ATOM      3  C   LIG    1       25.130 -29.313  15.323  0.00  0.00    +0.012 C 
ATOM      4  C   LIG    1       24.269 -28.786  13.019  0.00  0.00    +0.001 C 
ATOM      5  C   LIG    1       22.866 -28.218  12.612  0.00  0.00    +0.025 C 
ATOM      6  C   LIG    1       22.388 -26.927  13.338  0.00  0.00    +0.001 C 
ATOM      7  C   LIG    1       23.602 -26.155  13.871  0.00  0.00    +0.005 C 
ATOM      8  C   LIG    1       21.124 -27.072  14.301  0.00  0.00    -0.026 C 
ATOM      9  C   LIG    1       21.184 -26.075  15.500  0.00  0.00    +0.012 C 
ATOM     10  C   LIG    1       20.964 -28.517  14.892  0.00  0.00    +0.000 C 
ATOM     11  C   LIG    1       19.561 -28.773  15.492  0.00  0.00    +0.035 C 
ATOM     12  C   LIG    1       18.406 -28.388  14.568  0.00  0.00    +0.115 C 
ATOM     13  C   LIG    1       18.512 -26.938  14.127  0.00  0.00    +0.032 C 
ATOM     14  C   LIG    1       21.377 -29.709  14.002  0.00  0.00    +0.035 C 
ATOM     15  C   LIG    1       19.861 -26.616  13.487  0.00  0.00    +0.009 C 
ATOM     16  C   LIG    1       21.827 -29.350  12.604  0.00  0.00    +0.118 C 
ATOM     17  C   LIG    1       25.243 -28.710  11.829  0.00  0.00    +0.005 C 
ATOM     18  C   LIG    1       24.408 -26.965  14.867  0.00  0.00    +0.007 C 
ATOM     19  C   LIG    1       26.620 -28.784  12.456  0.00  0.00    +0.004 C 
ENDROOT
BRANCH   1  21
ATOM     20  C   LIG    1       28.278 -26.599  15.072  0.00  0.00    +0.008 C 
ATOM     21  C   LIG    1       27.739 -27.961  14.615  0.00  0.00    -0.010 C 
BRANCH  21  22
ATOM     22  C   LIG    1       28.909 -28.796  14.019  0.00  0.00    +0.015 C 
BRANCH  22  23
ATOM     23  C   LIG    1       30.020 -29.160  15.004  0.00  0.00    +0.121 C 
BRANCH  23  24
ATOM     24  C   LIG    1       31.063 -30.033  14.352  0.00  0.00    +0.305 C 
ATOM     25  O   LIG    1       31.149 -30.207  13.143  0.00  0.00    -0.251 OA
BRANCH  24  26
ATOM     26  O   LIG    1       31.895 -30.635  15.230  0.00  0.00    -0.481 OA
ATOM     27  H   LIG    1       31.617 -31.530  15.500  0.00  0.00    +0.295 HD
ENDBRANCH  24  26
ENDBRANCH  23  24
ENDBRANCH  22  23
ENDBRANCH  21  22
ENDBRANCH   1  21
BRANCH  12  28
ATOM     28  O   LIG    1       18.331 -29.250  13.438  0.00  0.00    -0.392 OA
ATOM     29  H   LIG    1       19.147 -29.148  12.903  0.00  0.00    +0.210 HD
ENDBRANCH  12  28
BRANCH  16  30
ATOM     30  O   LIG    1       20.677 -29.010  11.835  0.00  0.00    -0.392 OA
ATOM     31  H   LIG    1       20.225 -28.279  12.297  0.00  0.00    +0.210 HD
ENDBRANCH  16  30
TORSDOF 7
ENDMDL
MODEL 6
REMARK VINA RESULT:      -5.4      1.636      2.932
REMARK  Name = *****
REMARK                            x       y       z     vdW  Elec       q    Type
REMARK                         _______ _______ _______ _____ _____    ______ ____
ROOT
ATOM      1  C   LIG    1       25.551 -31.461   7.668  0.00  0.00    -0.002 C 
ATOM      2  C   LIG    1       25.777 -31.434   9.237  0.00  0.00    -0.026 C 
ATOM      3  C   LIG    1       25.689 -32.849   9.858  0.00  0.00    +0.012 C 
ATOM      4  C   LIG    1       24.575 -30.594   9.806  0.00  0.00    +0.001 C 
ATOM      5  C   LIG    1       24.810 -29.372  10.759  0.00  0.00    +0.025 C 
ATOM      6  C   LIG    1       26.280 -28.899  10.952  0.00  0.00    +0.001 C 
ATOM      7  C   LIG    1       27.126 -29.338   9.750  0.00  0.00    +0.005 C 
ATOM      8  C   LIG    1       26.908 -29.091  12.407  0.00  0.00    -0.026 C 
ATOM      9  C   LIG    1       28.447 -29.347  12.351  0.00  0.00    +0.012 C 
ATOM     10  C   LIG    1       26.259 -30.274  13.207  0.00  0.00    +0.000 C 
ATOM     11  C   LIG    1       26.570 -30.222  14.723  0.00  0.00    +0.035 C 
ATOM     12  C   LIG    1       26.304 -28.863  15.369  0.00  0.00    +0.115 C 
ATOM     13  C   LIG    1       27.063 -27.756  14.658  0.00  0.00    +0.032 C 
ATOM     14  C   LIG    1       24.755 -30.549  12.992  0.00  0.00    +0.035 C 
ATOM     15  C   LIG    1       26.777 -27.718  13.158  0.00  0.00    +0.009 C 
ATOM     16  C   LIG    1       24.043 -29.580  12.074  0.00  0.00    +0.118 C 
ATOM     17  C   LIG    1       23.763 -30.163   8.572  0.00  0.00    +0.005 C 
ATOM     18  C   LIG    1       27.152 -30.843   9.581  0.00  0.00    +0.007 C 
ATOM     19  C   LIG    1       24.040 -31.233   7.537  0.00  0.00    +0.004 C 
ENDROOT
BRANCH   1  21
ATOM     20  C   LIG    1       27.545 -32.738   6.621  0.00  0.00    +0.008 C 
ATOM     21  C   LIG    1       26.029 -32.708   6.858  0.00  0.00    -0.010 C 
BRANCH  21  22
ATOM     22  C   LIG    1       25.298 -32.885   5.496  0.00  0.00    +0.015 C 
BRANCH  22  23
ATOM     23  C   LIG    1       25.973 -32.213   4.300  0.00  0.00    +0.121 C 
BRANCH  23  24
ATOM     24  C   LIG    1       25.512 -32.823   3.000  0.00  0.00    +0.305 C 
ATOM     25  O   LIG    1       26.114 -32.711   1.940  0.00  0.00    -0.251 OA
BRANCH  24  26
ATOM     26  O   LIG    1       24.345 -33.498   3.100  0.00  0.00    -0.481 OA
ATOM     27  H   LIG    1       23.753 -33.395   2.331  0.00  0.00    +0.295 HD
ENDBRANCH  24  26
ENDBRANCH  23  24
ENDBRANCH  22  23
ENDBRANCH  21  22
ENDBRANCH   1  21
BRANCH  12  28
ATOM     28  O   LIG    1       24.912 -28.568  15.412  0.00  0.00    -0.392 OA
ATOM     29  H   LIG    1       24.423 -29.256  14.913  0.00  0.00    +0.210 HD
ENDBRANCH  12  28
BRANCH  16  30
ATOM     30  O   LIG    1       23.849 -28.355  12.775  0.00  0.00    -0.392 OA
ATOM     31  H   LIG    1       23.845 -27.640  12.112  0.00  0.00    +0.210 HD
ENDBRANCH  16  30
TORSDOF 7
ENDMDL
MODEL 7
REMARK VINA RESULT:      -5.4      2.579      3.374
REMARK  Name = *****
REMARK                            x       y       z     vdW  Elec       q    Type
REMARK                         _______ _______ _______ _____ _____    ______ ____
ROOT
ATOM      1  C   LIG    1       23.724 -32.437   9.548  0.00  0.00    -0.002 C 
ATOM      2  C   LIG    1       23.564 -30.998  10.191  0.00  0.00    -0.026 C 
ATOM      3  C   LIG    1       23.995 -29.877   9.214  0.00  0.00    +0.012 C 
ATOM      4  C   LIG    1       24.568 -30.978  11.402  0.00  0.00    +0.001 C 
ATOM      5  C   LIG    1       24.103 -30.577  12.843  0.00  0.00    +0.025 C 
ATOM      6  C   LIG    1       22.574 -30.397  13.069  0.00  0.00    +0.001 C 
ATOM      7  C   LIG    1       21.799 -31.197  12.014  0.00  0.00    +0.005 C 
ATOM      8  C   LIG    1       22.067 -28.919  13.394  0.00  0.00    -0.026 C 
ATOM      9  C   LIG    1       20.624 -28.663  12.855  0.00  0.00    +0.012 C 
ATOM     10  C   LIG    1       23.000 -27.804  12.804  0.00  0.00    +0.000 C 
ATOM     11  C   LIG    1       22.749 -26.411  13.430  0.00  0.00    +0.035 C 
ATOM     12  C   LIG    1       22.728 -26.407  14.958  0.00  0.00    +0.115 C 
ATOM     13  C   LIG    1       21.709 -27.397  15.499  0.00  0.00    +0.032 C 
ATOM     14  C   LIG    1       24.517 -28.088  12.752  0.00  0.00    +0.035 C 
ATOM     15  C   LIG    1       21.916 -28.808  14.954  0.00  0.00    +0.009 C 
ATOM     16  C   LIG    1       24.952 -29.403  13.358  0.00  0.00    +0.118 C 
ATOM     17  C   LIG    1       25.209 -32.378  11.416  0.00  0.00    +0.005 C 
ATOM     18  C   LIG    1       22.106 -30.741  10.603  0.00  0.00    +0.007 C 
ATOM     19  C   LIG    1       25.138 -32.848   9.978  0.00  0.00    +0.004 C 
ENDROOT
BRANCH   1  21
ATOM     20  C   LIG    1       22.526 -33.731   7.653  0.00  0.00    +0.008 C 
ATOM     21  C   LIG    1       23.506 -32.606   8.011  0.00  0.00    -0.010 C 
BRANCH  21  22
ATOM     22  C   LIG    1       24.826 -32.808   7.212  0.00  0.00    +0.015 C 
BRANCH  22  23
ATOM     23  C   LIG    1       24.819 -32.250   5.789  0.00  0.00    +0.121 C 
BRANCH  23  24
ATOM     24  C   LIG    1       24.593 -30.758   5.790  0.00  0.00    +0.305 C 
ATOM     25  O   LIG    1       25.481 -29.932   5.958  0.00  0.00    -0.251 OA
BRANCH  24  26
ATOM     26  O   LIG    1       23.302 -30.404   5.608  0.00  0.00    -0.481 OA
ATOM     27  H   LIG    1       22.760 -31.076   5.154  0.00  0.00    +0.295 HD
ENDBRANCH  24  26
ENDBRANCH  23  24
ENDBRANCH  22  23
ENDBRANCH  21  22
ENDBRANCH   1  21
BRANCH  12  28
ATOM     28  O   LIG    1       24.018 -26.672  15.500  0.00  0.00    -0.392 OA
ATOM     29  H   LIG    1       24.639 -26.867  14.766  0.00  0.00    +0.210 HD
ENDBRANCH  12  28
BRANCH  16  30
ATOM     30  O   LIG    1       24.894 -29.287  14.776  0.00  0.00    -0.392 OA
ATOM     31  H   LIG    1       24.527 -30.123  15.120  0.00  0.00    +0.210 HD
ENDBRANCH  16  30
TORSDOF 7
ENDMDL
MODEL 8
REMARK VINA RESULT:      -5.3      2.752      4.055
REMARK  Name = *****
REMARK                            x       y       z     vdW  Elec       q    Type
REMARK                         _______ _______ _______ _____ _____    ______ ____
ROOT
ATOM      1  C   LIG    1       25.699 -31.534   6.763  0.00  0.00    -0.002 C 
ATOM      2  C   LIG    1       24.800 -32.062   7.957  0.00  0.00    -0.026 C 
ATOM      3  C   LIG    1       23.831 -33.179   7.500  0.00  0.00    +0.012 C 
ATOM      4  C   LIG    1       23.926 -30.826   8.385  0.00  0.00    +0.001 C 
ATOM      5  C   LIG    1       23.864 -30.345   9.875  0.00  0.00    +0.025 C 
ATOM      6  C   LIG    1       24.857 -31.007  10.873  0.00  0.00    +0.001 C 
ATOM      7  C   LIG    1       26.066 -31.563  10.108  0.00  0.00    +0.005 C 
ATOM      8  C   LIG    1       24.221 -31.923  12.015  0.00  0.00    -0.026 C 
ATOM      9  C   LIG    1       25.173 -33.090  12.428  0.00  0.00    +0.012 C 
ATOM     10  C   LIG    1       22.846 -32.556  11.601  0.00  0.00    +0.000 C 
ATOM     11  C   LIG    1       22.047 -33.108  12.806  0.00  0.00    +0.035 C 
ATOM     12  C   LIG    1       21.912 -32.126  13.969  0.00  0.00    +0.115 C 
ATOM     13  C   LIG    1       23.273 -31.641  14.442  0.00  0.00    +0.032 C 
ATOM     14  C   LIG    1       21.915 -31.724  10.693  0.00  0.00    +0.035 C 
ATOM     15  C   LIG    1       24.109 -31.046  13.312  0.00  0.00    +0.009 C 
ATOM     16  C   LIG    1       22.407 -30.333  10.360  0.00  0.00    +0.118 C 
ATOM     17  C   LIG    1       24.378 -29.675   7.468  0.00  0.00    +0.005 C 
ATOM     18  C   LIG    1       25.671 -32.617   9.094  0.00  0.00    +0.007 C 
ATOM     19  C   LIG    1       24.882 -30.358   6.214  0.00  0.00    +0.004 C 
ENDROOT
BRANCH   1  21
ATOM     20  C   LIG    1       27.517 -33.134   5.848  0.00  0.00    +0.008 C 
ATOM     21  C   LIG    1       26.122 -32.531   5.638  0.00  0.00    -0.010 C 
BRANCH  21  22
ATOM     22  C   LIG    1       26.039 -31.928   4.206  0.00  0.00    +0.015 C 
BRANCH  22  23
ATOM     23  C   LIG    1       25.552 -32.888   3.120  0.00  0.00    +0.121 C 
BRANCH  23  24
ATOM     24  C   LIG    1       26.640 -33.171   2.115  0.00  0.00    +0.305 C 
ATOM     25  O   LIG    1       27.770 -33.534   2.415  0.00  0.00    -0.251 OA
BRANCH  24  26
ATOM     26  O   LIG    1       26.265 -32.963   0.833  0.00  0.00    -0.481 OA
ATOM     27  H   LIG    1       25.405 -33.361   0.596  0.00  0.00    +0.295 HD
ENDBRANCH  24  26
ENDBRANCH  23  24
ENDBRANCH  22  23
ENDBRANCH  21  22
ENDBRANCH   1  21
BRANCH  12  28
ATOM     28  O   LIG    1       21.079 -31.023  13.629  0.00  0.00    -0.392 OA
ATOM     29  H   LIG    1       20.175 -31.187  13.971  0.00  0.00    +0.210 HD
ENDBRANCH  12  28
BRANCH  16  30
ATOM     30  O   LIG    1       22.235 -29.508  11.508  0.00  0.00    -0.392 OA
ATOM     31  H   LIG    1       22.856 -29.828  12.190  0.00  0.00    +0.210 HD
ENDBRANCH  16  30
TORSDOF 7
ENDMDL
MODEL 9
REMARK VINA RESULT:      -5.2      4.501      6.599
REMARK  Name = *****
REMARK                            x       y       z     vdW  Elec       q    Type
REMARK                         _______ _______ _______ _____ _____    ______ ____
ROOT
ATOM      1  C   LIG    1       21.181 -28.409  12.886  0.00  0.00    -0.002 C 
ATOM      2  C   LIG    1       22.582 -28.946  13.395  0.00  0.00    -0.026 C 
ATOM      3  C   LIG    1       22.460 -29.684  14.751  0.00  0.00    +0.012 C 
ATOM      4  C   LIG    1       23.449 -27.656  13.638  0.00  0.00    +0.001 C 
ATOM      5  C   LIG    1       24.870 -27.494  13.000  0.00  0.00    +0.025 C 
ATOM      6  C   LIG    1       25.303 -28.564  11.956  0.00  0.00    +0.001 C 
ATOM      7  C   LIG    1       24.059 -29.218  11.340  0.00  0.00    +0.005 C 
ATOM      8  C   LIG    1       26.511 -29.521  12.370  0.00  0.00    -0.026 C 
ATOM      9  C   LIG    1       26.382 -30.939  11.729  0.00  0.00    +0.012 C 
ATOM     10  C   LIG    1       26.641 -29.712  13.922  0.00  0.00    +0.000 C 
ATOM     11  C   LIG    1       28.010 -30.297  14.347  0.00  0.00    +0.035 C 
ATOM     12  C   LIG    1       29.214 -29.575  13.743  0.00  0.00    +0.115 C 
ATOM     13  C   LIG    1       29.129 -29.533  12.226  0.00  0.00    +0.032 C 
ATOM     14  C   LIG    1       26.283 -28.514  14.827  0.00  0.00    +0.035 C 
ATOM     15  C   LIG    1       27.818 -28.930  11.729  0.00  0.00    +0.009 C 
ATOM     16  C   LIG    1       25.912 -27.240  14.101  0.00  0.00    +0.118 C 
ATOM     17  C   LIG    1       22.543 -26.479  13.233  0.00  0.00    +0.005 C 
ATOM     18  C   LIG    1       23.201 -29.915  12.376  0.00  0.00    +0.007 C 
ATOM     19  C   LIG    1       21.133 -26.986  13.456  0.00  0.00    +0.004 C 
ENDROOT
BRANCH   1  21
ATOM     20  C   LIG    1       19.401 -29.016  14.665  0.00  0.00    +0.008 C 
ATOM     21  C   LIG    1       19.892 -29.222  13.226  0.00  0.00    -0.010 C 
BRANCH  21  22
ATOM     22  C   LIG    1       20.025 -30.748  12.949  0.00  0.00    +0.015 C 
BRANCH  22  23
ATOM     23  C   LIG    1       19.115 -31.293  11.848  0.00  0.00    +0.121 C 
BRANCH  23  24
ATOM     24  C   LIG    1       19.608 -30.884  10.482  0.00  0.00    +0.305 C 
ATOM     25  O   LIG    1       20.784 -30.911  10.144  0.00  0.00    -0.251 OA
BRANCH  24  26
ATOM     26  O   LIG    1       18.628 -30.457   9.655  0.00  0.00    -0.481 OA
ATOM     27  H   LIG    1       18.661 -29.504   9.450  0.00  0.00    +0.295 HD
ENDBRANCH  24  26
ENDBRANCH  23  24
ENDBRANCH  22  23
ENDBRANCH  21  22
ENDBRANCH   1  21
BRANCH  12  28
ATOM     28  O   LIG    1       29.354 -28.261  14.272  0.00  0.00    -0.392 OA
ATOM     29  H   LIG    1       29.875 -27.717  13.644  0.00  0.00    +0.210 HD
ENDBRANCH  12  28
BRANCH  16  30
ATOM     30  O   LIG    1       27.102 -26.655  13.582  0.00  0.00    -0.392 OA
ATOM     31  H   LIG    1       27.264 -25.835  14.085  0.00  0.00    +0.210 HD
ENDBRANCH  16  30
TORSDOF 7
ENDMDL
