MODEL 1
REMARK VINA RESULT:      -6.6      0.000      0.000
REMARK  Name = *****
REMARK                            x       y       z     vdW  Elec       q    Type
REMARK                         _______ _______ _______ _____ _____    ______ ____
ROOT
ATOM      1  C   LIG    1       22.735 -31.722  10.757  0.00  0.00    +0.175 C 
ATOM      2  C   LIG    1       24.082 -31.922  11.458  0.00  0.00    +0.058 C 
ATOM      3  C   LIG    1       25.122 -31.596  10.366  0.00  0.00    +0.090 C 
ATOM      4  C   LIG    1       24.504 -30.320   9.761  0.00  0.00    +0.090 C 
ATOM      5  C   LIG    1       25.129 -29.821   8.454  0.00  0.00    +0.218 C 
ATOM      6  O   LIG    1       26.343 -29.781   8.273  0.00  0.00    -0.276 OA
ATOM      7  N   LIG    1       24.235 -29.289   7.551  0.00  0.00    -0.301 N 
ATOM      8  H   LIG    1       23.297 -29.072   7.869  0.00  0.00    +0.150 HD
ATOM      9  C   LIG    1       24.622 -28.625   6.319  0.00  0.00    +0.119 C 
ATOM     10  C   LIG    1       25.167 -29.334   5.080  0.00  0.00    +0.046 C 
ATOM     11  C   LIG    1       25.538 -30.755   5.054  0.00  0.00    -0.025 C 
ATOM     12  C   LIG    1       25.989 -31.378   3.950  0.00  0.00    -0.031 C 
ATOM     13  C   LIG    1       26.544 -32.768   3.761  0.00  0.00    +0.027 C 
ATOM     14  C   LIG    1       26.402 -33.823   4.863  0.00  0.00    +0.006 C 
ATOM     15  C   LIG    1       27.094 -33.472   6.189  0.00  0.00    +0.019 C 
ATOM     16  C   LIG    1       26.165 -33.751   7.373  0.00  0.00    +0.107 C 
ATOM     17  N   LIG    1       26.326 -32.855   8.521  0.00  0.00    -0.304 N 
ATOM     18  C   LIG    1       27.677 -32.656   9.024  0.00  0.00    +0.132 C 
ATOM     19  C   LIG    1       23.722 -28.957   5.127  0.00  0.00    +0.046 C 
ATOM     20  C   LIG    1       25.214 -32.746   9.344  0.00  0.00    +0.219 C 
ATOM     21  O   LIG    1       24.249 -33.498   9.171  0.00  0.00    -0.275 OA
ATOM     22  C   LIG    1       22.986 -30.602   9.742  0.00  0.00    +0.058 C 
ENDROOT
BRANCH   9  23
ATOM     23  C   LIG    1       25.039 -27.175   6.468  0.00  0.00    +0.256 C 
ATOM     24  N   LIG    1       24.108 -26.246   6.005  0.00  0.00    -0.188 N 
ATOM     25  H   LIG    1       23.297 -26.568   5.464  0.00  0.00    +0.176 HD
ATOM     26  O   LIG    1       26.109 -26.897   6.992  0.00  0.00    -0.272 OA
BRANCH  24  27
ATOM     27  S   LIG    1       24.324 -24.604   6.046  0.00  0.00    +0.048 S 
ATOM     28  O   LIG    1       23.104 -24.076   6.622  0.00  0.00    -0.155 OA
ATOM     29  O   LIG    1       24.811 -24.138   4.781  0.00  0.00    -0.155 OA
BRANCH  27  30
ATOM     30  C   LIG    1       25.597 -24.281   7.328  0.00  0.00    +0.151 C 
ATOM     31  C   LIG    1       26.736 -23.385   6.928  0.00  0.00    +0.030 C 
ATOM     32  C   LIG    1       25.617 -22.839   7.773  0.00  0.00    +0.030 C 
ENDBRANCH  27  30
ENDBRANCH  24  27
ENDBRANCH   9  23
BRANCH   1  33
ATOM     33  O   LIG    1       21.701 -31.391  11.681  0.00  0.00    -0.488 OA
BRANCH  33  39
ATOM     34  C   LIG    1       18.562 -28.581  14.436  0.00  0.00    +0.125 A 
ATOM     35  C   LIG    1       19.841 -28.006  14.559  0.00  0.00    +0.017 A 
ATOM     36  C   LIG    1       20.011 -26.763  15.403  0.00  0.00    +0.050 C 
ATOM     37  C   LIG    1       20.943 -28.566  13.897  0.00  0.00    +0.082 A 
ATOM     38  C   LIG    1       20.768 -29.723  13.108  0.00  0.00    +0.043 A 
ATOM     39  C   LIG    1       21.901 -30.263  12.455  0.00  0.00    +0.132 A 
ATOM     40  C   LIG    1       23.130 -29.615  12.571  0.00  0.00    +0.076 A 
ATOM     41  C   LIG    1       23.217 -28.499  13.383  0.00  0.00    +0.100 A 
ATOM     42  C   LIG    1       19.483 -30.295  13.012  0.00  0.00    +0.017 A 
ATOM     43  N   LIG    1       22.148 -27.991  14.033  0.00  0.00    -0.244 NA
ATOM     44  C   LIG    1       18.392 -29.730  13.670  0.00  0.00    +0.046 A 
BRANCH  41  45
ATOM     45  C   LIG    1       24.495 -27.794  13.581  0.00  0.00    +0.127 A 
ATOM     46  S   LIG    1       25.976 -28.682  13.571  0.00  0.00    -0.074 S 
ATOM     47  C   LIG    1       26.843 -27.236  13.827  0.00  0.00    +0.070 A 
ATOM     48  C   LIG    1       25.981 -26.158  13.898  0.00  0.00    +0.052 A 
ATOM     49  N   LIG    1       24.640 -26.487  13.731  0.00  0.00    -0.242 NA
BRANCH  48  50
ATOM     50  C   LIG    1       26.347 -24.714  14.131  0.00  0.00    +0.032 C 
ATOM     51  C   LIG    1       27.719 -24.560  14.792  0.00  0.00    +0.014 C 
ATOM     52  C   LIG    1       25.280 -23.994  14.959  0.00  0.00    +0.014 C 
ENDBRANCH  48  50
ENDBRANCH  41  45
BRANCH  34  54
ATOM     53  C   LIG    1       16.258 -28.006  14.573  0.00  0.00    +0.277 C 
ATOM     54  O   LIG    1       17.557 -27.985  15.154  0.00  0.00    -0.495 OA
ENDBRANCH  34  54
ENDBRANCH  33  39
ENDBRANCH   1  33
TORSDOF 8
ENDMDL
MODEL 2
REMARK VINA RESULT:      -6.2      2.733      9.709
REMARK  Name = *****
REMARK                            x       y       z     vdW  Elec       q    Type
REMARK                         _______ _______ _______ _____ _____    ______ ____
ROOT
ATOM      1  C   LIG    1       24.540 -30.518   9.906  0.00  0.00    +0.175 C 
ATOM      2  C   LIG    1       25.247 -31.452  10.893  0.00  0.00    +0.058 C 
ATOM      3  C   LIG    1       24.975 -30.814  12.270  0.00  0.00    +0.090 C 
ATOM      4  C   LIG    1       23.478 -30.476  12.132  0.00  0.00    +0.090 C 
ATOM      5  C   LIG    1       22.883 -29.585  13.227  0.00  0.00    +0.218 C 
ATOM      6  O   LIG    1       23.131 -29.744  14.420  0.00  0.00    -0.276 OA
ATOM      7  N   LIG    1       21.941 -28.680  12.790  0.00  0.00    -0.301 N 
ATOM      8  H   LIG    1       21.557 -28.794  11.858  0.00  0.00    +0.150 HD
ATOM      9  C   LIG    1       21.145 -27.845  13.671  0.00  0.00    +0.119 C 
ATOM     10  C   LIG    1       21.675 -26.637  14.442  0.00  0.00    +0.046 C 
ATOM     11  C   LIG    1       23.100 -26.288  14.528  0.00  0.00    -0.025 C 
ATOM     12  C   LIG    1       23.555 -25.206  15.184  0.00  0.00    -0.031 C 
ATOM     13  C   LIG    1       24.962 -24.765  15.497  0.00  0.00    +0.027 C 
ATOM     14  C   LIG    1       26.161 -25.428  14.812  0.00  0.00    +0.006 C 
ATOM     15  C   LIG    1       26.318 -26.930  15.093  0.00  0.00    +0.019 C 
ATOM     16  C   LIG    1       26.597 -27.696  13.797  0.00  0.00    +0.107 C 
ATOM     17  N   LIG    1       26.060 -29.058  13.745  0.00  0.00    -0.304 N 
ATOM     18  C   LIG    1       26.351 -29.929  14.874  0.00  0.00    +0.132 C 
ATOM     19  C   LIG    1       20.945 -26.417  13.158  0.00  0.00    +0.046 C 
ATOM     20  C   LIG    1       25.846 -29.558  12.469  0.00  0.00    +0.219 C 
ATOM     21  O   LIG    1       26.252 -28.927  11.488  0.00  0.00    -0.275 OA
ATOM     22  C   LIG    1       23.329 -29.981  10.678  0.00  0.00    +0.058 C 
ENDROOT
BRANCH   9  23
ATOM     23  C   LIG    1       19.933 -28.518  14.283  0.00  0.00    +0.256 C 
ATOM     24  N   LIG    1       19.330 -29.486  13.480  0.00  0.00    -0.188 N 
ATOM     25  H   LIG    1       19.618 -29.580  12.499  0.00  0.00    +0.176 HD
ATOM     26  O   LIG    1       19.573 -28.220  15.414  0.00  0.00    -0.272 OA
BRANCH  24  27
ATOM     27  S   LIG    1       17.990 -30.360  13.912  0.00  0.00    +0.048 S 
ATOM     28  O   LIG    1       16.895 -29.413  13.882  0.00  0.00    -0.155 OA
ATOM     29  O   LIG    1       18.266 -31.142  15.081  0.00  0.00    -0.155 OA
BRANCH  27  30
ATOM     30  C   LIG    1       17.638 -31.492  12.510  0.00  0.00    +0.151 C 
ATOM     31  C   LIG    1       18.827 -32.158  11.874  0.00  0.00    +0.030 C 
ATOM     32  C   LIG    1       17.963 -32.930  12.833  0.00  0.00    +0.030 C 
ENDBRANCH  27  30
ENDBRANCH  24  27
ENDBRANCH   9  23
BRANCH   1  33
ATOM     33  O   LIG    1       24.161 -31.197   8.712  0.00  0.00    -0.488 OA
BRANCH  33  39
ATOM     34  C   LIG    1       25.898 -33.103   4.389  0.00  0.00    +0.125 A 
ATOM     35  C   LIG    1       25.827 -31.707   4.221  0.00  0.00    +0.017 A 
ATOM     36  C   LIG    1       26.259 -31.101   2.905  0.00  0.00    +0.050 C 
ATOM     37  C   LIG    1       25.377 -30.884   5.264  0.00  0.00    +0.082 A 
ATOM     38  C   LIG    1       24.982 -31.464   6.489  0.00  0.00    +0.043 A 
ATOM     39  C   LIG    1       24.532 -30.605   7.519  0.00  0.00    +0.132 A 
ATOM     40  C   LIG    1       24.538 -29.226   7.311  0.00  0.00    +0.076 A 
ATOM     41  C   LIG    1       24.920 -28.744   6.072  0.00  0.00    +0.100 A 
ATOM     42  C   LIG    1       25.043 -32.865   6.631  0.00  0.00    +0.017 A 
ATOM     43  N   LIG    1       25.325 -29.557   5.072  0.00  0.00    -0.244 NA
ATOM     44  C   LIG    1       25.495 -33.676   5.591  0.00  0.00    +0.046 A 
BRANCH  41  45
ATOM     45  C   LIG    1       24.908 -27.302   5.774  0.00  0.00    +0.127 A 
ATOM     46  S   LIG    1       25.519 -26.733   4.263  0.00  0.00    -0.074 S 
ATOM     47  C   LIG    1       25.143 -25.132   4.717  0.00  0.00    +0.070 A 
ATOM     48  C   LIG    1       24.570 -25.104   5.974  0.00  0.00    +0.052 A 
ATOM     49  N   LIG    1       24.418 -26.356   6.560  0.00  0.00    -0.242 NA
BRANCH  48  50
ATOM     50  C   LIG    1       24.112 -23.889   6.739  0.00  0.00    +0.032 C 
ATOM     51  C   LIG    1       22.588 -23.740   6.741  0.00  0.00    +0.014 C 
ATOM     52  C   LIG    1       24.764 -22.612   6.201  0.00  0.00    +0.014 C 
ENDBRANCH  48  50
ENDBRANCH  41  45
BRANCH  34  54
ATOM     53  C   LIG    1       27.689 -33.733   2.957  0.00  0.00    +0.277 C 
ATOM     54  O   LIG    1       26.311 -33.825   3.299  0.00  0.00    -0.495 OA
ENDBRANCH  34  54
ENDBRANCH  33  39
ENDBRANCH   1  33
TORSDOF 8
ENDMDL
MODEL 3
REMARK VINA RESULT:      -4.7      2.769      9.541
REMARK  Name = *****
REMARK                            x       y       z     vdW  Elec       q    Type
REMARK                         _______ _______ _______ _____ _____    ______ ____
ROOT
ATOM      1  C   LIG    1       26.630 -29.866  10.462  0.00  0.00    +0.175 C 
ATOM      2  C   LIG    1       27.478 -30.482  11.579  0.00  0.00    +0.058 C 
ATOM      3  C   LIG    1       26.962 -29.796  12.860  0.00  0.00    +0.090 C 
ATOM      4  C   LIG    1       25.440 -29.867  12.623  0.00  0.00    +0.090 C 
ATOM      5  C   LIG    1       24.570 -29.048  13.581  0.00  0.00    +0.218 C 
ATOM      6  O   LIG    1       24.767 -29.015  14.794  0.00  0.00    -0.276 OA
ATOM      7  N   LIG    1       23.464 -28.464  13.003  0.00  0.00    -0.301 N 
ATOM      8  H   LIG    1       23.186 -28.767  12.076  0.00  0.00    +0.150 HD
ATOM      9  C   LIG    1       22.427 -27.773  13.748  0.00  0.00    +0.119 C 
ATOM     10  C   LIG    1       22.586 -26.397  14.393  0.00  0.00    +0.046 C 
ATOM     11  C   LIG    1       23.870 -25.690  14.494  0.00  0.00    -0.025 C 
ATOM     12  C   LIG    1       23.995 -24.466  15.037  0.00  0.00    -0.031 C 
ATOM     13  C   LIG    1       25.224 -23.650  15.353  0.00  0.00    +0.027 C 
ATOM     14  C   LIG    1       26.594 -24.053  14.799  0.00  0.00    +0.006 C 
ATOM     15  C   LIG    1       27.100 -25.429  15.260  0.00  0.00    +0.019 C 
ATOM     16  C   LIG    1       27.649 -26.227  14.075  0.00  0.00    +0.107 C 
ATOM     17  N   LIG    1       27.473 -27.679  14.161  0.00  0.00    -0.304 N 
ATOM     18  C   LIG    1       27.893 -28.326  15.395  0.00  0.00    +0.132 C 
ATOM     19  C   LIG    1       21.914 -26.503  13.063  0.00  0.00    +0.046 C 
ATOM     20  C   LIG    1       27.478 -28.346  12.945  0.00  0.00    +0.219 C 
ATOM     21  O   LIG    1       27.780 -27.737  11.913  0.00  0.00    -0.275 OA
ATOM     22  C   LIG    1       25.274 -29.579  11.116  0.00  0.00    +0.058 C 
ENDROOT
BRANCH   9  23
ATOM     23  C   LIG    1       21.381 -28.666  14.385  0.00  0.00    +0.256 C 
ATOM     24  N   LIG    1       20.261 -28.917  13.594  0.00  0.00    -0.188 N 
ATOM     25  H   LIG    1       20.124 -28.384  12.727  0.00  0.00    +0.176 HD
ATOM     26  O   LIG    1       21.572 -29.132  15.500  0.00  0.00    -0.272 OA
BRANCH  24  27
ATOM     27  S   LIG    1       18.976 -29.854  14.058  0.00  0.00    +0.048 S 
ATOM     28  O   LIG    1       19.520 -30.796  15.014  0.00  0.00    -0.155 OA
ATOM     29  O   LIG    1       18.247 -30.299  12.907  0.00  0.00    -0.155 OA
BRANCH  27  30
ATOM     30  C   LIG    1       17.888 -28.774  15.068  0.00  0.00    +0.151 C 
ATOM     31  C   LIG    1       18.292 -27.330  15.174  0.00  0.00    +0.030 C 
ATOM     32  C   LIG    1       17.182 -27.728  14.240  0.00  0.00    +0.030 C 
ENDBRANCH  27  30
ENDBRANCH  24  27
ENDBRANCH   9  23
BRANCH   1  33
ATOM     33  O   LIG    1       26.514 -30.739   9.341  0.00  0.00    -0.488 OA
BRANCH  33  39
ATOM     34  C   LIG    1       25.689 -32.665   4.763  0.00  0.00    +0.125 A 
ATOM     35  C   LIG    1       25.543 -31.268   4.653  0.00  0.00    +0.017 A 
ATOM     36  C   LIG    1       25.212 -30.668   3.305  0.00  0.00    +0.050 C 
ATOM     37  C   LIG    1       25.716 -30.441   5.771  0.00  0.00    +0.082 A 
ATOM     38  C   LIG    1       26.031 -31.015   7.022  0.00  0.00    +0.043 A 
ATOM     39  C   LIG    1       26.198 -30.152   8.130  0.00  0.00    +0.132 A 
ATOM     40  C   LIG    1       26.095 -28.773   7.943  0.00  0.00    +0.076 A 
ATOM     41  C   LIG    1       25.762 -28.297   6.689  0.00  0.00    +0.100 A 
ATOM     42  C   LIG    1       26.154 -32.416   7.116  0.00  0.00    +0.017 A 
ATOM     43  N   LIG    1       25.573 -29.114   5.630  0.00  0.00    -0.244 NA
ATOM     44  C   LIG    1       25.984 -33.232   5.999  0.00  0.00    +0.046 A 
BRANCH  41  45
ATOM     45  C   LIG    1       25.597 -26.855   6.436  0.00  0.00    +0.127 A 
ATOM     46  S   LIG    1       25.122 -26.308   4.869  0.00  0.00    -0.074 S 
ATOM     47  C   LIG    1       25.157 -24.695   5.424  0.00  0.00    +0.070 A 
ATOM     48  C   LIG    1       25.513 -24.648   6.759  0.00  0.00    +0.052 A 
ATOM     49  N   LIG    1       25.739 -25.893   7.334  0.00  0.00    -0.242 NA
BRANCH  48  50
ATOM     50  C   LIG    1       25.673 -23.417   7.614  0.00  0.00    +0.032 C 
ATOM     51  C   LIG    1       24.417 -22.540   7.615  0.00  0.00    +0.014 C 
ATOM     52  C   LIG    1       26.889 -22.593   7.185  0.00  0.00    +0.014 C 
ENDBRANCH  48  50
ENDBRANCH  41  45
BRANCH  34  54
ATOM     53  C   LIG    1       26.593 -33.689   2.817  0.00  0.00    +0.277 C 
ATOM     54  O   LIG    1       25.459 -33.391   3.624  0.00  0.00    -0.495 OA
ENDBRANCH  34  54
ENDBRANCH  33  39
ENDBRANCH   1  33
TORSDOF 8
ENDMDL
