MODEL 1
REMARK VINA RESULT:      -4.4      0.000      0.000
REMARK  Name = *****
REMARK                            x       y       z     vdW  Elec       q    Type
REMARK                         _______ _______ _______ _____ _____    ______ ____
ROOT
ATOM      1  O   LIG    1       26.102 -17.464   3.134  0.00  0.00    -0.241 OA
ATOM      2  C   LIG    1       25.551 -18.480   3.518  0.00  0.00    +0.378 C 
ATOM      3  C   LIG    1       26.146 -19.556   4.331  0.00  0.00    +0.244 C 
ATOM      4  C   LIG    1       25.187 -20.449   4.540  0.00  0.00    +0.186 C 
ATOM      5  C   LIG    1       23.922 -20.060   3.868  0.00  0.00    +0.276 C 
ATOM      6  O   LIG    1       24.238 -18.790   3.279  0.00  0.00    -0.445 OA
ENDROOT
BRANCH   3   7
ATOM      7  O   LIG    1       27.420 -19.592   4.819  0.00  0.00    -0.499 OA
ATOM      8  H   LIG    1       27.428 -18.971   5.573  0.00  0.00    +0.292 HD
ENDBRANCH   3   7
BRANCH   4   9
ATOM      9  O   LIG    1       25.305 -21.572   5.319  0.00  0.00    -0.504 OA
ATOM     10  H   LIG    1       24.403 -21.956   5.414  0.00  0.00    +0.292 HD
ENDBRANCH   4   9
BRANCH   5  11
ATOM     11  C   LIG    1       22.752 -19.942   4.855  0.00  0.00    +0.188 C 
BRANCH  11  12
ATOM     12  O   LIG    1       22.118 -21.235   4.971  0.00  0.00    -0.385 OA
ATOM     13  H   LIG    1       22.082 -21.580   4.053  0.00  0.00    +0.210 HD
ENDBRANCH  11  12
BRANCH  11  14
ATOM     14  C   LIG    1       21.706 -18.923   4.390  0.00  0.00    +0.191 C 
BRANCH  14  15
ATOM     15  O   LIG    1       22.173 -17.613   4.724  0.00  0.00    -0.392 OA
ATOM     16  H   LIG    1       21.470 -17.193   5.255  0.00  0.00    +0.209 HD
ENDBRANCH  14  15
ENDBRANCH  11  14
ENDBRANCH   5  11
TORSDOF 6
ENDMDL
MODEL 2
REMARK VINA RESULT:      -4.4      4.760      6.058
REMARK  Name = *****
REMARK                            x       y       z     vdW  Elec       q    Type
REMARK                         _______ _______ _______ _____ _____    ______ ____
ROOT
ATOM      1  O   LIG    1       28.947 -13.246   3.722  0.00  0.00    -0.241 OA
ATOM      2  C   LIG    1       27.827 -13.676   3.515  0.00  0.00    +0.378 C 
ATOM      3  C   LIG    1       27.359 -15.060   3.716  0.00  0.00    +0.244 C 
ATOM      4  C   LIG    1       26.072 -15.077   3.395  0.00  0.00    +0.186 C 
ATOM      5  C   LIG    1       25.607 -13.745   2.932  0.00  0.00    +0.276 C 
ATOM      6  O   LIG    1       26.772 -12.920   3.075  0.00  0.00    -0.445 OA
ENDROOT
BRANCH   3   7
ATOM      7  O   LIG    1       28.097 -16.102   4.197  0.00  0.00    -0.499 OA
ATOM      8  H   LIG    1       27.488 -16.865   4.223  0.00  0.00    +0.292 HD
ENDBRANCH   3   7
BRANCH   4   9
ATOM      9  O   LIG    1       25.238 -16.159   3.516  0.00  0.00    -0.504 OA
ATOM     10  H   LIG    1       25.183 -16.379   4.474  0.00  0.00    +0.292 HD
ENDBRANCH   4   9
BRANCH   5  11
ATOM     11  C   LIG    1       24.439 -13.212   3.775  0.00  0.00    +0.188 C 
BRANCH  11  12
ATOM     12  O   LIG    1       23.391 -14.207   3.787  0.00  0.00    -0.385 OA
ATOM     13  H   LIG    1       23.316 -14.480   4.727  0.00  0.00    +0.210 HD
ENDBRANCH  11  12
BRANCH  11  14
ATOM     14  C   LIG    1       23.869 -11.906   3.210  0.00  0.00    +0.191 C 
BRANCH  14  15
ATOM     15  O   LIG    1       24.172 -11.849   1.813  0.00  0.00    -0.392 OA
ATOM     16  H   LIG    1       23.318 -11.862   1.341  0.00  0.00    +0.209 HD
ENDBRANCH  14  15
ENDBRANCH  11  14
ENDBRANCH   5  11
TORSDOF 6
ENDMDL
MODEL 3
REMARK VINA RESULT:      -4.3      1.686      4.769
REMARK  Name = *****
REMARK                            x       y       z     vdW  Elec       q    Type
REMARK                         _______ _______ _______ _____ _____    ______ ____
ROOT
ATOM      1  O   LIG    1       22.688 -21.137   5.949  0.00  0.00    -0.241 OA
ATOM      2  C   LIG    1       23.756 -20.808   5.466  0.00  0.00    +0.378 C 
ATOM      3  C   LIG    1       23.982 -19.776   4.439  0.00  0.00    +0.244 C 
ATOM      4  C   LIG    1       25.292 -19.728   4.230  0.00  0.00    +0.186 C 
ATOM      5  C   LIG    1       26.014 -20.727   5.058  0.00  0.00    +0.276 C 
ATOM      6  O   LIG    1       24.968 -21.336   5.828  0.00  0.00    -0.445 OA
ENDROOT
BRANCH   3   7
ATOM      7  O   LIG    1       23.031 -18.985   3.863  0.00  0.00    -0.499 OA
ATOM      8  H   LIG    1       22.810 -18.310   4.533  0.00  0.00    +0.292 HD
ENDBRANCH   3   7
BRANCH   4   9
ATOM      9  O   LIG    1       25.931 -18.842   3.401  0.00  0.00    -0.504 OA
ATOM     10  H   LIG    1       25.325 -18.077   3.268  0.00  0.00    +0.292 HD
ENDBRANCH   4   9
BRANCH   5  11
ATOM     11  C   LIG    1       27.069 -20.076   5.964  0.00  0.00    +0.188 C 
BRANCH  11  12
ATOM     12  O   LIG    1       28.095 -19.494   5.130  0.00  0.00    -0.385 OA
ATOM     13  H   LIG    1       27.617 -18.866   4.546  0.00  0.00    +0.210 HD
ENDBRANCH  11  12
BRANCH  11  14
ATOM     14  C   LIG    1       27.722 -21.092   6.909  0.00  0.00    +0.191 C 
BRANCH  14  15
ATOM     15  O   LIG    1       29.121 -21.144   6.618  0.00  0.00    -0.392 OA
ATOM     16  H   LIG    1       29.553 -20.498   7.207  0.00  0.00    +0.209 HD
ENDBRANCH  14  15
ENDBRANCH  11  14
ENDBRANCH   5  11
TORSDOF 6
ENDMDL
MODEL 4
REMARK VINA RESULT:      -4.2      4.629      7.003
REMARK  Name = *****
REMARK                            x       y       z     vdW  Elec       q    Type
REMARK                         _______ _______ _______ _____ _____    ______ ____
ROOT
ATOM      1  O   LIG    1       25.537 -17.112   3.121  0.00  0.00    -0.241 OA
ATOM      2  C   LIG    1       25.761 -15.938   3.355  0.00  0.00    +0.378 C 
ATOM      3  C   LIG    1       24.802 -14.938   3.859  0.00  0.00    +0.244 C 
ATOM      4  C   LIG    1       25.475 -13.803   3.995  0.00  0.00    +0.186 C 
ATOM      5  C   LIG    1       26.889 -13.951   3.568  0.00  0.00    +0.276 C 
ATOM      6  O   LIG    1       26.984 -15.337   3.214  0.00  0.00    -0.445 OA
ENDROOT
BRANCH   3   7
ATOM      7  O   LIG    1       23.494 -15.159   4.178  0.00  0.00    -0.499 OA
ATOM      8  H   LIG    1       23.491 -15.966   4.727  0.00  0.00    +0.292 HD
ENDBRANCH   3   7
BRANCH   4   9
ATOM      9  O   LIG    1       24.969 -12.638   4.513  0.00  0.00    -0.504 OA
ATOM     10  H   LIG    1       25.261 -12.585   5.452  0.00  0.00    +0.292 HD
ENDBRANCH   4   9
BRANCH   5  11
ATOM     11  C   LIG    1       27.875 -13.592   4.689  0.00  0.00    +0.188 C 
BRANCH  11  12
ATOM     12  O   LIG    1       27.121 -13.283   5.882  0.00  0.00    -0.385 OA
ATOM     13  H   LIG    1       27.387 -12.367   6.116  0.00  0.00    +0.210 HD
ENDBRANCH  11  12
BRANCH  11  14
ATOM     14  C   LIG    1       28.741 -12.379   4.328  0.00  0.00    +0.191 C 
BRANCH  14  15
ATOM     15  O   LIG    1       29.146 -11.737   5.540  0.00  0.00    -0.392 OA
ATOM     16  H   LIG    1       28.684 -12.196   6.267  0.00  0.00    +0.209 HD
ENDBRANCH  14  15
ENDBRANCH  11  14
ENDBRANCH   5  11
TORSDOF 6
ENDMDL
MODEL 5
REMARK VINA RESULT:      -4.2      6.294      7.672
REMARK  Name = *****
REMARK                            x       y       z     vdW  Elec       q    Type
REMARK                         _______ _______ _______ _____ _____    ______ ____
ROOT
ATOM      1  O   LIG    1       23.437 -11.447   4.692  0.00  0.00    -0.241 OA
ATOM      2  C   LIG    1       24.237 -12.285   4.319  0.00  0.00    +0.378 C 
ATOM      3  C   LIG    1       24.643 -12.564   2.929  0.00  0.00    +0.244 C 
ATOM      4  C   LIG    1       25.551 -13.529   2.985  0.00  0.00    +0.186 C 
ATOM      5  C   LIG    1       25.786 -13.978   4.380  0.00  0.00    +0.276 C 
ATOM      6  O   LIG    1       24.941 -13.115   5.152  0.00  0.00    -0.445 OA
ENDROOT
BRANCH   3   7
ATOM      7  O   LIG    1       24.208 -11.911   1.812  0.00  0.00    -0.499 OA
ATOM      8  H   LIG    1       24.988 -11.439   1.464  0.00  0.00    +0.292 HD
ENDBRANCH   3   7
BRANCH   4   9
ATOM      9  O   LIG    1       26.242 -14.031   1.912  0.00  0.00    -0.504 OA
ATOM     10  H   LIG    1       25.608 -14.097   1.161  0.00  0.00    +0.292 HD
ENDBRANCH   4   9
BRANCH   5  11
ATOM     11  C   LIG    1       27.258 -13.837   4.796  0.00  0.00    +0.188 C 
BRANCH  11  12
ATOM     12  O   LIG    1       27.307 -13.322   6.145  0.00  0.00    -0.385 OA
ATOM     13  H   LIG    1       27.687 -12.421   6.055  0.00  0.00    +0.210 HD
ENDBRANCH  11  12
BRANCH  11  14
ATOM     14  C   LIG    1       28.027 -12.880   3.877  0.00  0.00    +0.191 C 
BRANCH  14  15
ATOM     15  O   LIG    1       29.113 -13.597   3.287  0.00  0.00    -0.392 OA
ATOM     16  H   LIG    1       28.831 -14.529   3.220  0.00  0.00    +0.209 HD
ENDBRANCH  14  15
ENDBRANCH  11  14
ENDBRANCH   5  11
TORSDOF 6
ENDMDL
MODEL 6
REMARK VINA RESULT:      -4.1      5.113      7.105
REMARK  Name = *****
REMARK                            x       y       z     vdW  Elec       q    Type
REMARK                         _______ _______ _______ _____ _____    ______ ____
ROOT
ATOM      1  O   LIG    1       23.315 -14.761   4.512  0.00  0.00    -0.241 OA
ATOM      2  C   LIG    1       24.285 -14.399   3.871  0.00  0.00    +0.378 C 
ATOM      3  C   LIG    1       24.454 -13.111   3.174  0.00  0.00    +0.244 C 
ATOM      4  C   LIG    1       25.665 -13.128   2.633  0.00  0.00    +0.186 C 
ATOM      5  C   LIG    1       26.362 -14.413   2.893  0.00  0.00    +0.276 C 
ATOM      6  O   LIG    1       25.429 -15.136   3.708  0.00  0.00    -0.445 OA
ENDROOT
BRANCH   3   7
ATOM      7  O   LIG    1       23.559 -12.081   3.146  0.00  0.00    -0.499 OA
ATOM      8  H   LIG    1       24.032 -11.312   3.518  0.00  0.00    +0.292 HD
ENDBRANCH   3   7
BRANCH   4   9
ATOM      9  O   LIG    1       26.248 -12.085   1.959  0.00  0.00    -0.504 OA
ATOM     10  H   LIG    1       26.700 -11.522   2.628  0.00  0.00    +0.292 HD
ENDBRANCH   4   9
BRANCH   5  11
ATOM     11  C   LIG    1       27.700 -14.212   3.620  0.00  0.00    +0.188 C 
BRANCH  11  12
ATOM     12  O   LIG    1       28.058 -15.450   4.273  0.00  0.00    -0.385 OA
ATOM     13  H   LIG    1       27.291 -15.661   4.849  0.00  0.00    +0.210 HD
ENDBRANCH  11  12
BRANCH  11  14
ATOM     14  C   LIG    1       27.621 -13.105   4.676  0.00  0.00    +0.191 C 
BRANCH  14  15
ATOM     15  O   LIG    1       26.977 -13.635   5.838  0.00  0.00    -0.392 OA
ATOM     16  H   LIG    1       26.023 -13.462   5.732  0.00  0.00    +0.209 HD
ENDBRANCH  14  15
ENDBRANCH  11  14
ENDBRANCH   5  11
TORSDOF 6
ENDMDL
MODEL 7
REMARK VINA RESULT:      -3.8      1.181      1.524
REMARK  Name = *****
REMARK                            x       y       z     vdW  Elec       q    Type
REMARK                         _______ _______ _______ _____ _____    ______ ____
ROOT
ATOM      1  O   LIG    1       25.954 -17.823   3.069  0.00  0.00    -0.241 OA
ATOM      2  C   LIG    1       25.640 -18.818   3.696  0.00  0.00    +0.378 C 
ATOM      3  C   LIG    1       26.511 -19.627   4.567  0.00  0.00    +0.244 C 
ATOM      4  C   LIG    1       25.754 -20.594   5.069  0.00  0.00    +0.186 C 
ATOM      5  C   LIG    1       24.363 -20.522   4.554  0.00  0.00    +0.276 C 
ATOM      6  O   LIG    1       24.378 -19.353   3.724  0.00  0.00    -0.445 OA
ENDROOT
BRANCH   3   7
ATOM      7  O   LIG    1       27.825 -19.388   4.845  0.00  0.00    -0.499 OA
ATOM      8  H   LIG    1       28.030 -18.530   4.425  0.00  0.00    +0.292 HD
ENDBRANCH   3   7
BRANCH   4   9
ATOM      9  O   LIG    1       26.162 -21.524   5.991  0.00  0.00    -0.504 OA
ATOM     10  H   LIG    1       26.985 -21.937   5.643  0.00  0.00    +0.292 HD
ENDBRANCH   4   9
BRANCH   5  11
ATOM     11  C   LIG    1       23.331 -20.393   5.684  0.00  0.00    +0.188 C 
BRANCH  11  12
ATOM     12  O   LIG    1       23.410 -21.572   6.515  0.00  0.00    -0.385 OA
ATOM     13  H   LIG    1       23.716 -22.283   5.911  0.00  0.00    +0.210 HD
ENDBRANCH  11  12
BRANCH  11  14
ATOM     14  C   LIG    1       21.901 -20.266   5.145  0.00  0.00    +0.191 C 
BRANCH  14  15
ATOM     15  O   LIG    1       21.455 -21.563   4.742  0.00  0.00    -0.392 OA
ATOM     16  H   LIG    1       22.117 -22.201   5.068  0.00  0.00    +0.209 HD
ENDBRANCH  14  15
ENDBRANCH  11  14
ENDBRANCH   5  11
TORSDOF 6
ENDMDL
MODEL 8
REMARK VINA RESULT:      -3.8      1.551      3.292
REMARK  Name = *****
REMARK                            x       y       z     vdW  Elec       q    Type
REMARK                         _______ _______ _______ _____ _____    ______ ____
ROOT
ATOM      1  O   LIG    1       21.975 -18.010   4.450  0.00  0.00    -0.241 OA
ATOM      2  C   LIG    1       22.777 -18.927   4.431  0.00  0.00    +0.378 C 
ATOM      3  C   LIG    1       24.152 -18.888   3.901  0.00  0.00    +0.244 C 
ATOM      4  C   LIG    1       24.673 -20.091   4.110  0.00  0.00    +0.186 C 
ATOM      5  C   LIG    1       23.694 -21.007   4.747  0.00  0.00    +0.276 C 
ATOM      6  O   LIG    1       22.541 -20.176   4.942  0.00  0.00    -0.445 OA
ENDROOT
BRANCH   3   7
ATOM      7  O   LIG    1       24.780 -17.806   3.357  0.00  0.00    -0.499 OA
ATOM      8  H   LIG    1       25.007 -17.228   4.111  0.00  0.00    +0.292 HD
ENDBRANCH   3   7
BRANCH   4   9
ATOM      9  O   LIG    1       25.965 -20.454   3.832  0.00  0.00    -0.504 OA
ATOM     10  H   LIG    1       25.968 -20.860   2.935  0.00  0.00    +0.292 HD
ENDBRANCH   4   9
BRANCH   5  11
ATOM     11  C   LIG    1       24.208 -21.571   6.080  0.00  0.00    +0.188 C 
BRANCH  11  12
ATOM     12  O   LIG    1       23.138 -21.507   7.049  0.00  0.00    -0.385 OA
ATOM     13  H   LIG    1       22.333 -21.315   6.520  0.00  0.00    +0.210 HD
ENDBRANCH  11  12
BRANCH  11  14
ATOM     14  C   LIG    1       25.405 -20.778   6.617  0.00  0.00    +0.191 C 
BRANCH  14  15
ATOM     15  O   LIG    1       26.590 -21.549   6.403  0.00  0.00    -0.392 OA
ATOM     16  H   LIG    1       26.974 -21.722   7.283  0.00  0.00    +0.209 HD
ENDBRANCH  14  15
ENDBRANCH  11  14
ENDBRANCH   5  11
TORSDOF 6
ENDMDL
MODEL 9
REMARK VINA RESULT:      -3.8      4.943      6.509
REMARK  Name = *****
REMARK                            x       y       z     vdW  Elec       q    Type
REMARK                         _______ _______ _______ _____ _____    ______ ____
ROOT
ATOM      1  O   LIG    1       28.702 -12.315   5.761  0.00  0.00    -0.241 OA
ATOM      2  C   LIG    1       27.915 -12.745   4.938  0.00  0.00    +0.378 C 
ATOM      3  C   LIG    1       28.232 -13.253   3.591  0.00  0.00    +0.244 C 
ATOM      4  C   LIG    1       27.085 -13.645   3.053  0.00  0.00    +0.186 C 
ATOM      5  C   LIG    1       25.941 -13.400   3.967  0.00  0.00    +0.276 C 
ATOM      6  O   LIG    1       26.565 -12.863   5.141  0.00  0.00    -0.445 OA
ENDROOT
BRANCH   3   7
ATOM      7  O   LIG    1       29.475 -13.354   3.036  0.00  0.00    -0.499 OA
ATOM      8  H   LIG    1       29.462 -12.763   2.258  0.00  0.00    +0.292 HD
ENDBRANCH   3   7
BRANCH   4   9
ATOM      9  O   LIG    1       26.948 -14.253   1.831  0.00  0.00    -0.504 OA
ATOM     10  H   LIG    1       26.507 -13.608   1.232  0.00  0.00    +0.292 HD
ENDBRANCH   4   9
BRANCH   5  11
ATOM     11  C   LIG    1       25.164 -14.686   4.284  0.00  0.00    +0.188 C 
BRANCH  11  12
ATOM     12  O   LIG    1       25.671 -15.748   3.444  0.00  0.00    -0.385 OA
ATOM     13  H   LIG    1       25.097 -15.732   2.648  0.00  0.00    +0.210 HD
ENDBRANCH  11  12
BRANCH  11  14
ATOM     14  C   LIG    1       23.662 -14.531   4.025  0.00  0.00    +0.191 C 
BRANCH  14  15
ATOM     15  O   LIG    1       23.469 -13.427   3.138  0.00  0.00    -0.392 OA
ATOM     16  H   LIG    1       22.505 -13.317   3.033  0.00  0.00    +0.209 HD
ENDBRANCH  14  15
ENDBRANCH  11  14
ENDBRANCH   5  11
TORSDOF 6
ENDMDL
