MODEL 1
REMARK VINA RESULT:      -2.0      0.000      0.000
REMARK  Name = *****
REMARK                            x       y       z     vdW  Elec       q    Type
REMARK                         _______ _______ _______ _____ _____    ______ ____
ROOT
ATOM      1  C   LIG    1       26.887 -13.695   3.716  0.00  0.00    +0.119 A 
ATOM      2  C   LIG    1       27.081 -15.079   3.588  0.00  0.00    +0.059 A 
ATOM      3  C   LIG    1       25.957 -15.907   3.718  0.00  0.00    +0.091 A 
ATOM      4  C   LIG    1       24.717 -15.335   3.968  0.00  0.00    +0.067 A 
ATOM      5  N   LIG    1       23.863 -16.403   4.034  0.00  0.00    -0.338 N 
ATOM      6  H   LIG    1       22.873 -16.344   4.206  0.00  0.00    +0.167 HD
ATOM      7  C   LIG    1       24.576 -17.566   3.841  0.00  0.00    +0.139 A 
ATOM      8  C   LIG    1       24.503 -13.962   4.104  0.00  0.00    +0.029 A 
ATOM      9  N   LIG    1       25.853 -17.275   3.641  0.00  0.00    -0.228 NA
ATOM     10  C   LIG    1       25.626 -13.143   3.977  0.00  0.00    +0.031 A 
ENDROOT
BRANCH   7  11
ATOM     11  C   LIG    1       23.976 -18.908   3.865  0.00  0.00    +0.017 A 
ATOM     12  C   LIG    1       24.627 -20.031   3.325  0.00  0.00    +0.011 A 
ATOM     13  C   LIG    1       24.030 -21.294   3.361  0.00  0.00    +0.001 A 
ATOM     14  C   LIG    1       22.773 -21.457   3.936  0.00  0.00    +0.000 A 
ATOM     15  C   LIG    1       22.113 -20.356   4.476  0.00  0.00    +0.001 A 
ATOM     16  C   LIG    1       22.710 -19.092   4.440  0.00  0.00    +0.011 A 
ENDBRANCH   7  11
BRANCH   1  18
ATOM     17  O   LIG    1       28.700 -12.236   4.910  0.00  0.00    -0.142 OA
ATOM     18  S   LIG    1       28.278 -12.612   3.576  0.00  0.00    +0.110 S 
ATOM     19  O   LIG    1       27.967 -11.617   2.577  0.00  0.00    -0.142 OA
BRANCH  18  20
ATOM     20  O   LIG    1       29.475 -13.521   2.988  0.00  0.00    -0.250 OA
ATOM     21  H   LIG    1       30.005 -13.843   3.746  0.00  0.00    +0.245 HD
ENDBRANCH  18  20
ENDBRANCH   1  18
TORSDOF 3
ENDMDL
MODEL 2
REMARK VINA RESULT:      -1.8      0.138      1.497
REMARK  Name = *****
REMARK                            x       y       z     vdW  Elec       q    Type
REMARK                         _______ _______ _______ _____ _____    ______ ____
ROOT
ATOM      1  C   LIG    1       26.915 -13.738   3.753  0.00  0.00    +0.119 A 
ATOM      2  C   LIG    1       27.097 -15.127   3.668  0.00  0.00    +0.059 A 
ATOM      3  C   LIG    1       25.959 -15.939   3.775  0.00  0.00    +0.091 A 
ATOM      4  C   LIG    1       24.717 -15.347   3.961  0.00  0.00    +0.067 A 
ATOM      5  N   LIG    1       23.849 -16.405   4.021  0.00  0.00    -0.338 N 
ATOM      6  H   LIG    1       22.854 -16.330   4.152  0.00  0.00    +0.167 HD
ATOM      7  C   LIG    1       24.555 -17.579   3.886  0.00  0.00    +0.139 A 
ATOM      8  C   LIG    1       24.514 -13.969   4.054  0.00  0.00    +0.029 A 
ATOM      9  N   LIG    1       25.842 -17.307   3.729  0.00  0.00    -0.228 NA
ATOM     10  C   LIG    1       25.651 -13.166   3.950  0.00  0.00    +0.031 A 
ENDROOT
BRANCH   7  11
ATOM     11  C   LIG    1       23.939 -18.914   3.921  0.00  0.00    +0.017 A 
ATOM     12  C   LIG    1       22.673 -19.140   4.490  0.00  0.00    +0.011 A 
ATOM     13  C   LIG    1       22.114 -20.421   4.511  0.00  0.00    +0.001 A 
ATOM     14  C   LIG    1       22.808 -21.496   3.964  0.00  0.00    +0.000 A 
ATOM     15  C   LIG    1       24.064 -21.291   3.397  0.00  0.00    +0.001 A 
ATOM     16  C   LIG    1       24.623 -20.009   3.376  0.00  0.00    +0.011 A 
ENDBRANCH   7  11
BRANCH   1  18
ATOM     17  O   LIG    1       27.971 -11.538   2.812  0.00  0.00    -0.142 OA
ATOM     18  S   LIG    1       28.322 -12.674   3.640  0.00  0.00    +0.110 S 
ATOM     19  O   LIG    1       29.475 -13.492   3.345  0.00  0.00    -0.142 OA
BRANCH  18  20
ATOM     20  O   LIG    1       28.530 -12.074   5.124  0.00  0.00    -0.250 OA
ATOM     21  H   LIG    1       29.102 -12.695   5.619  0.00  0.00    +0.245 HD
ENDBRANCH  18  20
ENDBRANCH   1  18
TORSDOF 3
ENDMDL
MODEL 3
REMARK VINA RESULT:      -1.7      4.950      7.347
REMARK  Name = *****
REMARK                            x       y       z     vdW  Elec       q    Type
REMARK                         _______ _______ _______ _____ _____    ______ ____
ROOT
ATOM      1  C   LIG    1       23.065 -19.257   4.301  0.00  0.00    +0.119 A 
ATOM      2  C   LIG    1       24.347 -18.807   3.952  0.00  0.00    +0.059 A 
ATOM      3  C   LIG    1       24.556 -17.422   3.896  0.00  0.00    +0.091 A 
ATOM      4  C   LIG    1       23.503 -16.564   4.180  0.00  0.00    +0.067 A 
ATOM      5  N   LIG    1       24.043 -15.313   4.036  0.00  0.00    -0.338 N 
ATOM      6  H   LIG    1       23.545 -14.449   4.169  0.00  0.00    +0.167 HD
ATOM      7  C   LIG    1       25.365 -15.430   3.668  0.00  0.00    +0.139 A 
ATOM      8  C   LIG    1       22.219 -16.990   4.524  0.00  0.00    +0.029 A 
ATOM      9  N   LIG    1       25.691 -16.711   3.586  0.00  0.00    -0.228 NA
ATOM     10  C   LIG    1       22.016 -18.370   4.575  0.00  0.00    +0.031 A 
ENDROOT
BRANCH   7  11
ATOM     11  C   LIG    1       26.247 -14.282   3.411  0.00  0.00    +0.017 A 
ATOM     12  C   LIG    1       25.820 -13.155   2.687  0.00  0.00    +0.011 A 
ATOM     13  C   LIG    1       26.682 -12.080   2.456  0.00  0.00    +0.001 A 
ATOM     14  C   LIG    1       27.985 -12.112   2.944  0.00  0.00    +0.000 A 
ATOM     15  C   LIG    1       28.427 -13.221   3.662  0.00  0.00    +0.001 A 
ATOM     16  C   LIG    1       27.564 -14.297   3.893  0.00  0.00    +0.011 A 
ENDBRANCH   7  11
BRANCH   1  18
ATOM     17  O   LIG    1       21.315 -21.197   4.447  0.00  0.00    -0.142 OA
ATOM     18  S   LIG    1       22.748 -20.996   4.370  0.00  0.00    +0.110 S 
ATOM     19  O   LIG    1       23.643 -21.572   5.346  0.00  0.00    -0.142 OA
BRANCH  18  20
ATOM     20  O   LIG    1       23.184 -21.570   2.926  0.00  0.00    -0.250 OA
ATOM     21  H   LIG    1       23.797 -20.923   2.520  0.00  0.00    +0.245 HD
ENDBRANCH  18  20
ENDBRANCH   1  18
TORSDOF 3
ENDMDL
MODEL 4
REMARK VINA RESULT:      -0.7      5.046      7.507
REMARK  Name = *****
REMARK                            x       y       z     vdW  Elec       q    Type
REMARK                         _______ _______ _______ _____ _____    ______ ____
ROOT
ATOM      1  C   LIG    1       23.462 -19.641   4.106  0.00  0.00    +0.119 A 
ATOM      2  C   LIG    1       23.354 -18.242   4.101  0.00  0.00    +0.059 A 
ATOM      3  C   LIG    1       24.517 -17.502   3.839  0.00  0.00    +0.091 A 
ATOM      4  C   LIG    1       25.710 -18.172   3.604  0.00  0.00    +0.067 A 
ATOM      5  N   LIG    1       26.618 -17.170   3.390  0.00  0.00    -0.338 N 
ATOM      6  H   LIG    1       27.595 -17.307   3.189  0.00  0.00    +0.167 HD
ATOM      7  C   LIG    1       25.986 -15.952   3.506  0.00  0.00    +0.139 A 
ATOM      8  C   LIG    1       25.840 -19.562   3.610  0.00  0.00    +0.029 A 
ATOM      9  N   LIG    1       24.703 -16.142   3.774  0.00  0.00    -0.228 NA
ATOM     10  C   LIG    1       24.680 -20.293   3.874  0.00  0.00    +0.031 A 
ENDROOT
BRANCH   7  11
ATOM     11  C   LIG    1       26.668 -14.658   3.353  0.00  0.00    +0.017 A 
ATOM     12  C   LIG    1       27.948 -14.418   3.882  0.00  0.00    +0.011 A 
ATOM     13  C   LIG    1       28.569 -13.176   3.723  0.00  0.00    +0.001 A 
ATOM     14  C   LIG    1       27.924 -12.154   3.033  0.00  0.00    +0.000 A 
ATOM     15  C   LIG    1       26.654 -12.374   2.503  0.00  0.00    +0.001 A 
ATOM     16  C   LIG    1       26.032 -13.616   2.662  0.00  0.00    +0.011 A 
ENDBRANCH   7  11
BRANCH   1  18
ATOM     17  O   LIG    1       20.870 -19.742   4.447  0.00  0.00    -0.142 OA
ATOM     18  S   LIG    1       22.026 -20.616   4.446  0.00  0.00    +0.110 S 
ATOM     19  O   LIG    1       22.325 -21.469   5.572  0.00  0.00    -0.142 OA
BRANCH  18  20
ATOM     20  O   LIG    1       21.840 -21.572   3.159  0.00  0.00    -0.250 OA
ATOM     21  H   LIG    1       22.710 -21.971   2.956  0.00  0.00    +0.245 HD
ENDBRANCH  18  20
ENDBRANCH   1  18
TORSDOF 3
ENDMDL
MODEL 5
REMARK VINA RESULT:      -0.5      4.984      7.533
REMARK  Name = *****
REMARK                            x       y       z     vdW  Elec       q    Type
REMARK                         _______ _______ _______ _____ _____    ______ ____
ROOT
ATOM      1  C   LIG    1       23.723 -19.618   4.104  0.00  0.00    +0.119 A 
ATOM      2  C   LIG    1       23.553 -18.226   4.055  0.00  0.00    +0.059 A 
ATOM      3  C   LIG    1       24.688 -17.442   3.802  0.00  0.00    +0.091 A 
ATOM      4  C   LIG    1       25.915 -18.063   3.617  0.00  0.00    +0.067 A 
ATOM      5  N   LIG    1       26.784 -17.027   3.396  0.00  0.00    -0.338 N 
ATOM      6  H   LIG    1       27.770 -17.125   3.224  0.00  0.00    +0.167 HD
ATOM      7  C   LIG    1       26.095 -15.836   3.460  0.00  0.00    +0.139 A 
ATOM      8  C   LIG    1       26.108 -19.444   3.667  0.00  0.00    +0.029 A 
ATOM      9  N   LIG    1       24.815 -16.077   3.701  0.00  0.00    -0.228 NA
ATOM     10  C   LIG    1       24.975 -20.220   3.922  0.00  0.00    +0.031 A 
ENDROOT
BRANCH   7  11
ATOM     11  C   LIG    1       26.722 -14.517   3.287  0.00  0.00    +0.017 A 
ATOM     12  C   LIG    1       26.106 -13.485   2.559  0.00  0.00    +0.011 A 
ATOM     13  C   LIG    1       26.728 -12.242   2.409  0.00  0.00    +0.001 A 
ATOM     14  C   LIG    1       27.974 -12.010   2.984  0.00  0.00    +0.000 A 
ATOM     15  C   LIG    1       28.599 -13.022   3.709  0.00  0.00    +0.001 A 
ATOM     16  C   LIG    1       27.977 -14.265   3.859  0.00  0.00    +0.011 A 
ENDBRANCH   7  11
BRANCH   1  18
ATOM     17  O   LIG    1       21.142 -19.811   4.481  0.00  0.00    -0.142 OA
ATOM     18  S   LIG    1       22.324 -20.647   4.436  0.00  0.00    +0.110 S 
ATOM     19  O   LIG    1       22.668 -21.524   5.531  0.00  0.00    -0.142 OA
BRANCH  18  20
ATOM     20  O   LIG    1       22.147 -21.570   3.124  0.00  0.00    -0.250 OA
ATOM     21  H   LIG    1       23.040 -21.837   2.824  0.00  0.00    +0.245 HD
ENDBRANCH  18  20
ENDBRANCH   1  18
TORSDOF 3
ENDMDL
MODEL 6
REMARK VINA RESULT:      -0.4      1.722      2.565
REMARK  Name = *****
REMARK                            x       y       z     vdW  Elec       q    Type
REMARK                         _______ _______ _______ _____ _____    ______ ____
ROOT
ATOM      1  C   LIG    1       25.327 -13.920   3.239  0.00  0.00    +0.119 A 
ATOM      2  C   LIG    1       24.159 -14.509   3.749  0.00  0.00    +0.059 A 
ATOM      3  C   LIG    1       24.132 -15.907   3.858  0.00  0.00    +0.091 A 
ATOM      4  C   LIG    1       25.241 -16.642   3.461  0.00  0.00    +0.067 A 
ATOM      5  N   LIG    1       24.882 -17.942   3.698  0.00  0.00    -0.338 N 
ATOM      6  H   LIG    1       25.462 -18.744   3.518  0.00  0.00    +0.167 HD
ATOM      7  C   LIG    1       23.603 -17.974   4.206  0.00  0.00    +0.139 A 
ATOM      8  C   LIG    1       26.409 -16.077   2.946  0.00  0.00    +0.029 A 
ATOM      9  N   LIG    1       23.137 -16.739   4.314  0.00  0.00    -0.228 NA
ATOM     10  C   LIG    1       26.429 -14.685   2.837  0.00  0.00    +0.031 A 
ENDROOT
BRANCH   7  11
ATOM     11  C   LIG    1       22.893 -19.213   4.559  0.00  0.00    +0.017 A 
ATOM     12  C   LIG    1       23.453 -20.182   5.409  0.00  0.00    +0.011 A 
ATOM     13  C   LIG    1       22.755 -21.351   5.725  0.00  0.00    +0.001 A 
ATOM     14  C   LIG    1       21.486 -21.571   5.197  0.00  0.00    +0.000 A 
ATOM     15  C   LIG    1       20.915 -20.622   4.352  0.00  0.00    +0.001 A 
ATOM     16  C   LIG    1       21.614 -19.452   4.037  0.00  0.00    +0.011 A 
ENDBRANCH   7  11
BRANCH   1  18
ATOM     17  O   LIG    1       26.742 -11.801   2.650  0.00  0.00    -0.142 OA
ATOM     18  S   LIG    1       25.403 -12.162   3.068  0.00  0.00    +0.110 S 
ATOM     19  O   LIG    1       24.796 -11.575   4.240  0.00  0.00    -0.142 OA
BRANCH  18  20
ATOM     20  O   LIG    1       24.453 -11.810   1.812  0.00  0.00    -0.250 OA
ATOM     21  H   LIG    1       23.791 -11.154   2.113  0.00  0.00    +0.245 HD
ENDBRANCH  18  20
ENDBRANCH   1  18
TORSDOF 3
ENDMDL
MODEL 7
REMARK VINA RESULT:      -0.1      1.484      2.232
REMARK  Name = *****
REMARK                            x       y       z     vdW  Elec       q    Type
REMARK                         _______ _______ _______ _____ _____    ______ ____
ROOT
ATOM      1  C   LIG    1       25.768 -14.247   3.340  0.00  0.00    +0.119 A 
ATOM      2  C   LIG    1       24.517 -14.744   3.738  0.00  0.00    +0.059 A 
ATOM      3  C   LIG    1       24.379 -16.134   3.858  0.00  0.00    +0.091 A 
ATOM      4  C   LIG    1       25.466 -16.951   3.580  0.00  0.00    +0.067 A 
ATOM      5  N   LIG    1       24.995 -18.219   3.793  0.00  0.00    -0.338 N 
ATOM      6  H   LIG    1       25.531 -19.063   3.680  0.00  0.00    +0.167 HD
ATOM      7  C   LIG    1       23.672 -18.152   4.173  0.00  0.00    +0.139 A 
ATOM      8  C   LIG    1       26.717 -16.478   3.178  0.00  0.00    +0.029 A 
ATOM      9  N   LIG    1       23.288 -16.886   4.221  0.00  0.00    -0.228 NA
ATOM     10  C   LIG    1       26.847 -15.094   3.057  0.00  0.00    +0.031 A 
ENDROOT
BRANCH   7  11
ATOM     11  C   LIG    1       22.844 -19.332   4.466  0.00  0.00    +0.017 A 
ATOM     12  C   LIG    1       23.314 -20.401   5.249  0.00  0.00    +0.011 A 
ATOM     13  C   LIG    1       22.505 -21.511   5.509  0.00  0.00    +0.001 A 
ATOM     14  C   LIG    1       21.214 -21.571   4.992  0.00  0.00    +0.000 A 
ATOM     15  C   LIG    1       20.732 -20.521   4.213  0.00  0.00    +0.001 A 
ATOM     16  C   LIG    1       21.542 -19.411   3.953  0.00  0.00    +0.011 A 
ENDBRANCH   7  11
BRANCH   1  18
ATOM     17  O   LIG    1       25.785 -11.880   4.453  0.00  0.00    -0.142 OA
ATOM     18  S   LIG    1       25.985 -12.501   3.160  0.00  0.00    +0.110 S 
ATOM     19  O   LIG    1       25.238 -12.078   1.999  0.00  0.00    -0.142 OA
BRANCH  18  20
ATOM     20  O   LIG    1       27.549 -12.294   2.822  0.00  0.00    -0.250 OA
ATOM     21  H   LIG    1       27.778 -11.364   3.024  0.00  0.00    +0.245 HD
ENDBRANCH  18  20
ENDBRANCH   1  18
TORSDOF 3
ENDMDL
