MODEL 1
REMARK VINA RESULT:      -9.4      0.000      0.000
REMARK  Name = *****
REMARK                            x       y       z     vdW  Elec       q    Type
REMARK                         _______ _______ _______ _____ _____    ______ ____
ROOT
ATOM      1  C   LIG    1       26.878 -21.473   7.234  0.00  0.00    -0.017 C 
ATOM      2  C   LIG    1       25.906 -21.781   6.348  0.00  0.00    -0.013 C 
ATOM      3  C   LIG    1       25.309 -23.146   6.422  0.00  0.00    -0.003 A 
ATOM      4  C   LIG    1       23.904 -23.266   6.447  0.00  0.00    +0.021 A 
ATOM      5  C   LIG    1       23.313 -24.534   6.513  0.00  0.00    +0.017 A 
ATOM      6  C   LIG    1       24.108 -25.681   6.520  0.00  0.00    +0.021 A 
ATOM      7  C   LIG    1       25.495 -25.562   6.459  0.00  0.00    +0.042 A 
ATOM      8 CL   LIG    1       26.470 -26.980   6.437  0.00  0.00    -0.084 Cl
ATOM      9  S   LIG    1       22.835 -21.825   6.389  0.00  0.00    -0.088 S 
ATOM     10  C   LIG    1       23.859 -20.698   5.438  0.00  0.00    +0.021 A 
ATOM     11  C   LIG    1       23.228 -19.746   4.629  0.00  0.00    +0.015 A 
ATOM     12  C   LIG    1       23.983 -18.899   3.818  0.00  0.00    +0.001 A 
ATOM     13  C   LIG    1       25.371 -19.012   3.794  0.00  0.00    +0.001 A 
ATOM     14  C   LIG    1       26.009 -19.952   4.607  0.00  0.00    +0.009 A 
ATOM     15  C   LIG    1       26.099 -24.306   6.410  0.00  0.00    +0.029 A 
ATOM     16  C   LIG    1       25.266 -20.771   5.468  0.00  0.00    -0.004 A 
ENDROOT
BRANCH   1  17
ATOM     17  C   LIG    1       27.555 -20.144   7.501  0.00  0.00    +0.043 C 
BRANCH  17  18
ATOM     18  C   LIG    1       29.061 -20.181   7.163  0.00  0.00    +0.088 C 
BRANCH  18  20
ATOM     19  C   LIG    1       30.739 -21.110   8.625  0.00  0.00    +0.104 C 
ATOM     20  N   LIG    1       29.943 -19.916   8.319  0.00  0.00    -0.308 NA
ATOM     21  C   LIG    1       30.840 -18.782   8.090  0.00  0.00    +0.104 C 
ENDBRANCH  18  20
ENDBRANCH  17  18
ENDBRANCH   1  17
TORSDOF 3
ENDMDL
MODEL 2
REMARK VINA RESULT:      -8.9      3.107      5.788
REMARK  Name = *****
REMARK                            x       y       z     vdW  Elec       q    Type
REMARK                         _______ _______ _______ _____ _____    ______ ____
ROOT
ATOM      1  C   LIG    1       26.714 -22.480   7.381  0.00  0.00    -0.017 C 
ATOM      2  C   LIG    1       26.486 -21.222   6.945  0.00  0.00    -0.013 C 
ATOM      3  C   LIG    1       27.661 -20.314   6.807  0.00  0.00    -0.003 A 
ATOM      4  C   LIG    1       27.826 -19.606   5.599  0.00  0.00    +0.021 A 
ATOM      5  C   LIG    1       28.916 -18.742   5.439  0.00  0.00    +0.017 A 
ATOM      6  C   LIG    1       29.823 -18.553   6.484  0.00  0.00    +0.021 A 
ATOM      7  C   LIG    1       29.639 -19.226   7.689  0.00  0.00    +0.042 A 
ATOM      8 CL   LIG    1       30.742 -18.968   8.985  0.00  0.00    -0.084 Cl
ATOM      9  S   LIG    1       26.661 -19.773   4.243  0.00  0.00    -0.088 S 
ATOM     10  C   LIG    1       25.154 -20.129   5.151  0.00  0.00    +0.021 A 
ATOM     11  C   LIG    1       23.933 -19.715   4.604  0.00  0.00    +0.015 A 
ATOM     12  C   LIG    1       22.745 -19.906   5.309  0.00  0.00    +0.001 A 
ATOM     13  C   LIG    1       22.771 -20.492   6.573  0.00  0.00    +0.001 A 
ATOM     14  C   LIG    1       23.983 -20.917   7.120  0.00  0.00    +0.009 A 
ATOM     15  C   LIG    1       28.566 -20.102   7.858  0.00  0.00    +0.029 A 
ATOM     16  C   LIG    1       25.177 -20.782   6.399  0.00  0.00    -0.004 A 
ENDROOT
BRANCH   1  17
ATOM     17  C   LIG    1       25.764 -23.657   7.476  0.00  0.00    +0.043 C 
BRANCH  17  18
ATOM     18  C   LIG    1       25.764 -24.508   6.187  0.00  0.00    +0.088 C 
BRANCH  18  20
ATOM     19  C   LIG    1       24.355 -26.429   5.809  0.00  0.00    +0.104 C 
ATOM     20  N   LIG    1       24.421 -24.963   5.768  0.00  0.00    -0.308 NA
ATOM     21  C   LIG    1       23.356 -24.406   6.603  0.00  0.00    +0.104 C 
ENDBRANCH  18  20
ENDBRANCH  17  18
ENDBRANCH   1  17
TORSDOF 3
ENDMDL
MODEL 3
REMARK VINA RESULT:      -6.5      3.100      6.195
REMARK  Name = *****
REMARK                            x       y       z     vdW  Elec       q    Type
REMARK                         _______ _______ _______ _____ _____    ______ ____
ROOT
ATOM      1  C   LIG    1       24.339 -20.804   5.686  0.00  0.00    -0.017 C 
ATOM      2  C   LIG    1       25.391 -21.614   5.936  0.00  0.00    -0.013 C 
ATOM      3  C   LIG    1       26.674 -20.976   6.348  0.00  0.00    -0.003 A 
ATOM      4  C   LIG    1       27.335 -21.470   7.492  0.00  0.00    +0.021 A 
ATOM      5  C   LIG    1       28.543 -20.895   7.904  0.00  0.00    +0.017 A 
ATOM      6  C   LIG    1       29.114 -19.855   7.168  0.00  0.00    +0.021 A 
ATOM      7  C   LIG    1       28.478 -19.391   6.018  0.00  0.00    +0.042 A 
ATOM      8 CL   LIG    1       29.200 -18.129   5.097  0.00  0.00    -0.084 Cl
ATOM      9  S   LIG    1       26.670 -22.839   8.445  0.00  0.00    -0.088 S 
ATOM     10  C   LIG    1       25.804 -23.742   7.158  0.00  0.00    +0.021 A 
ATOM     11  C   LIG    1       25.691 -25.132   7.279  0.00  0.00    +0.015 A 
ATOM     12  C   LIG    1       25.090 -25.881   6.267  0.00  0.00    +0.001 A 
ATOM     13  C   LIG    1       24.619 -25.249   5.120  0.00  0.00    +0.001 A 
ATOM     14  C   LIG    1       24.718 -23.862   4.995  0.00  0.00    +0.009 A 
ATOM     15  C   LIG    1       27.266 -19.943   5.605  0.00  0.00    +0.029 A 
ATOM     16  C   LIG    1       25.268 -23.091   6.028  0.00  0.00    -0.004 A 
ENDROOT
BRANCH   1  17
ATOM     17  C   LIG    1       22.894 -21.158   5.403  0.00  0.00    +0.043 C 
BRANCH  17  18
ATOM     18  C   LIG    1       22.126 -19.989   4.749  0.00  0.00    +0.088 C 
BRANCH  18  20
ATOM     19  C   LIG    1       23.754 -18.843   3.387  0.00  0.00    +0.104 C 
ATOM     20  N   LIG    1       22.927 -18.756   4.596  0.00  0.00    -0.308 NA
ATOM     21  C   LIG    1       22.095 -17.554   4.528  0.00  0.00    +0.104 C 
ENDBRANCH  18  20
ENDBRANCH  17  18
ENDBRANCH   1  17
TORSDOF 3
ENDMDL
