MODEL 1
REMARK VINA RESULT:      -4.8      0.000      0.000
REMARK  Name = *****
REMARK                            x       y       z     vdW  Elec       q    Type
REMARK                         _______ _______ _______ _____ _____    ______ ____
ROOT
ATOM      1  C   LIG    1       24.925 -31.433   9.553  0.00  0.00    +0.064 A 
ATOM      2  C   LIG    1       23.738 -32.156   9.858  0.00  0.00    +0.049 A 
ATOM      3  I   LIG    1       22.846 -33.356   8.296  0.00  0.00    -0.041 I 
ATOM      4  C   LIG    1       23.224 -32.190  11.189  0.00  0.00    +0.065 A 
ATOM      5  C   LIG    1       24.052 -31.640  12.222  0.00  0.00    +0.040 A 
ATOM      6  I   LIG    1       23.983 -32.433  14.221  0.00  0.00    -0.042 I 
ATOM      7  C   LIG    1       25.077 -30.707  11.899  0.00  0.00    +0.065 A 
ATOM      8  C   LIG    1       25.443 -30.571  10.547  0.00  0.00    +0.049 A 
ATOM      9  I   LIG    1       26.579 -28.839   9.790  0.00  0.00    -0.041 I 
ENDROOT
BRANCH   4  10
ATOM     10  C   LIG    1       21.782 -32.650  11.501  0.00  0.00    +0.246 C 
ATOM     11  N   LIG    1       20.825 -31.650  11.682  0.00  0.00    -0.309 N 
ATOM     12  H   LIG    1       21.111 -30.685  11.586  0.00  0.00    +0.149 HD
ATOM     13  O   LIG    1       21.476 -33.823  11.663  0.00  0.00    -0.270 OA
BRANCH  11  14
ATOM     14  C   LIG    1       19.393 -31.904  11.900  0.00  0.00    +0.138 C 
BRANCH  14  15
ATOM     15  C   LIG    1       18.463 -31.510  10.712  0.00  0.00    +0.157 C 
BRANCH  15  16
ATOM     16  O   LIG    1       19.021 -30.511   9.843  0.00  0.00    -0.388 OA
ATOM     17  H   LIG    1       19.723 -30.902   9.293  0.00  0.00    +0.210 HD
ENDBRANCH  15  16
BRANCH  15  18
ATOM     18  C   LIG    1       18.110 -32.771   9.892  0.00  0.00    +0.188 C 
BRANCH  18  19
ATOM     19  O   LIG    1       19.251 -33.536   9.510  0.00  0.00    -0.392 OA
ATOM     20  H   LIG    1       19.882 -32.930   9.078  0.00  0.00    +0.209 HD
ENDBRANCH  18  19
ENDBRANCH  15  18
ENDBRANCH  14  15
ENDBRANCH  11  14
ENDBRANCH   4  10
BRANCH   1  23
ATOM     21  C   LIG    1       27.341 -32.914   6.994  0.00  0.00    +0.110 C 
ATOM     22  C   LIG    1       26.820 -32.385   8.316  0.00  0.00    +0.217 C 
ATOM     23  N   LIG    1       25.673 -31.578   8.314  0.00  0.00    -0.267 N 
ATOM     24  O   LIG    1       27.385 -32.739   9.354  0.00  0.00    -0.276 OA
BRANCH  23  25
ATOM     25  C   LIG    1       24.928 -31.205   7.071  0.00  0.00    +0.147 C 
BRANCH  25  26
ATOM     26  C   LIG    1       25.327 -29.833   6.504  0.00  0.00    +0.158 C 
BRANCH  26  27
ATOM     27  O   LIG    1       26.055 -30.005   5.279  0.00  0.00    -0.388 OA
ATOM     28  H   LIG    1       25.768 -29.303   4.668  0.00  0.00    +0.210 HD
ENDBRANCH  26  27
BRANCH  26  29
ATOM     29  C   LIG    1       24.147 -28.894   6.252  0.00  0.00    +0.188 C 
BRANCH  29  30
ATOM     30  O   LIG    1       23.175 -29.533   5.431  0.00  0.00    -0.392 OA
ATOM     31  H   LIG    1       23.595 -30.335   5.066  0.00  0.00    +0.209 HD
ENDBRANCH  29  30
ENDBRANCH  26  29
ENDBRANCH  25  26
ENDBRANCH  23  25
ENDBRANCH   1  23
BRANCH   7  32
ATOM     32  C   LIG    1       25.654 -29.768  12.956  0.00  0.00    +0.246 C 
ATOM     33  N   LIG    1       24.773 -28.708  13.214  0.00  0.00    -0.309 N 
ATOM     34  H   LIG    1       23.968 -28.620  12.616  0.00  0.00    +0.149 HD
ATOM     35  O   LIG    1       26.718 -29.922  13.484  0.00  0.00    -0.270 OA
BRANCH  33  36
ATOM     36  C   LIG    1       25.064 -27.613  14.137  0.00  0.00    +0.138 C 
BRANCH  36  37
ATOM     37  C   LIG    1       25.336 -26.267  13.425  0.00  0.00    +0.157 C 
BRANCH  37  38
ATOM     38  O   LIG    1       24.653 -25.169  14.057  0.00  0.00    -0.388 OA
ATOM     39  H   LIG    1       25.094 -24.973  14.901  0.00  0.00    +0.210 HD
ENDBRANCH  37  38
BRANCH  37  40
ATOM     40  C   LIG    1       26.823 -25.904  13.353  0.00  0.00    +0.188 C 
BRANCH  40  41
ATOM     41  O   LIG    1       27.583 -27.068  13.026  0.00  0.00    -0.392 OA
ATOM     42  H   LIG    1       26.934 -27.782  12.866  0.00  0.00    +0.209 HD
ENDBRANCH  40  41
ENDBRANCH  37  40
ENDBRANCH  36  37
ENDBRANCH  33  36
ENDBRANCH   7  32
TORSDOF 18
ENDMDL
MODEL 2
REMARK VINA RESULT:      -4.7      2.310      5.879
REMARK  Name = *****
REMARK                            x       y       z     vdW  Elec       q    Type
REMARK                         _______ _______ _______ _____ _____    ______ ____
ROOT
ATOM      1  C   LIG    1       23.342 -31.227  12.708  0.00  0.00    +0.064 A 
ATOM      2  C   LIG    1       23.453 -31.327  11.294  0.00  0.00    +0.049 A 
ATOM      3  I   LIG    1       21.717 -31.973  10.178  0.00  0.00    -0.041 I 
ATOM      4  C   LIG    1       24.633 -30.891  10.620  0.00  0.00    +0.065 A 
ATOM      5  C   LIG    1       25.602 -30.176  11.399  0.00  0.00    +0.040 A 
ATOM      6  I   LIG    1       26.834 -28.662  10.494  0.00  0.00    -0.042 I 
ATOM      7  C   LIG    1       25.621 -30.308  12.815  0.00  0.00    +0.065 A 
ATOM      8  C   LIG    1       24.509 -30.904  13.438  0.00  0.00    +0.049 A 
ATOM      9  I   LIG    1       24.575 -31.684  15.500  0.00  0.00    -0.041 I 
ENDROOT
BRANCH   4  10
ATOM     10  C   LIG    1       24.943 -31.296   9.161  0.00  0.00    +0.246 C 
ATOM     11  N   LIG    1       24.647 -30.359   8.169  0.00  0.00    -0.309 N 
ATOM     12  H   LIG    1       24.265 -29.466   8.448  0.00  0.00    +0.149 HD
ATOM     13  O   LIG    1       25.357 -32.404   8.850  0.00  0.00    -0.270 OA
BRANCH  11  14
ATOM     14  C   LIG    1       24.954 -30.540   6.742  0.00  0.00    +0.138 C 
BRANCH  14  15
ATOM     15  C   LIG    1       24.488 -29.377   5.813  0.00  0.00    +0.157 C 
BRANCH  15  16
ATOM     16  O   LIG    1       23.124 -29.492   5.376  0.00  0.00    -0.388 OA
ATOM     17  H   LIG    1       23.092 -29.857   4.474  0.00  0.00    +0.210 HD
ENDBRANCH  15  16
BRANCH  15  18
ATOM     18  C   LIG    1       24.686 -28.027   6.538  0.00  0.00    +0.188 C 
BRANCH  18  19
ATOM     19  O   LIG    1       26.036 -27.785   6.927  0.00  0.00    -0.392 OA
ATOM     20  H   LIG    1       26.510 -28.637   6.898  0.00  0.00    +0.209 HD
ENDBRANCH  18  19
ENDBRANCH  15  18
ENDBRANCH  14  15
ENDBRANCH  11  14
ENDBRANCH   4  10
BRANCH   1  23
ATOM     21  C   LIG    1       20.679 -32.778  14.963  0.00  0.00    +0.110 C 
ATOM     22  C   LIG    1       21.693 -32.649  13.843  0.00  0.00    +0.217 C 
ATOM     23  N   LIG    1       22.092 -31.367  13.441  0.00  0.00    -0.267 N 
ATOM     24  O   LIG    1       22.182 -33.679  13.372  0.00  0.00    -0.276 OA
BRANCH  23  25
ATOM     25  C   LIG    1       21.569 -30.107  14.056  0.00  0.00    +0.147 C 
BRANCH  25  26
ATOM     26  C   LIG    1       20.834 -29.196  13.060  0.00  0.00    +0.158 C 
BRANCH  26  27
ATOM     27  O   LIG    1       19.578 -29.786  12.696  0.00  0.00    -0.388 OA
ATOM     28  H   LIG    1       19.528 -29.791  11.723  0.00  0.00    +0.210 HD
ENDBRANCH  26  27
BRANCH  26  29
ATOM     29  C   LIG    1       20.585 -27.778  13.577  0.00  0.00    +0.188 C 
BRANCH  29  30
ATOM     30  O   LIG    1       20.099 -26.950  12.526  0.00  0.00    -0.392 OA
ATOM     31  H   LIG    1       19.530 -27.508  11.963  0.00  0.00    +0.209 HD
ENDBRANCH  29  30
ENDBRANCH  26  29
ENDBRANCH  25  26
ENDBRANCH  23  25
ENDBRANCH   1  23
BRANCH   7  32
ATOM     32  C   LIG    1       26.869 -29.962  13.625  0.00  0.00    +0.246 C 
ATOM     33  N   LIG    1       26.692 -28.758  14.321  0.00  0.00    -0.309 N 
ATOM     34  H   LIG    1       25.863 -28.224  14.118  0.00  0.00    +0.149 HD
ATOM     35  O   LIG    1       27.861 -30.632  13.652  0.00  0.00    -0.270 OA
BRANCH  33  36
ATOM     36  C   LIG    1       27.727 -28.131  15.142  0.00  0.00    +0.138 C 
BRANCH  36  37
ATOM     37  C   LIG    1       27.798 -26.596  14.970  0.00  0.00    +0.157 C 
BRANCH  37  38
ATOM     38  O   LIG    1       29.155 -26.116  14.928  0.00  0.00    -0.388 OA
ATOM     39  H   LIG    1       29.697 -26.758  14.439  0.00  0.00    +0.210 HD
ENDBRANCH  37  38
BRANCH  37  40
ATOM     40  C   LIG    1       27.092 -26.088  13.709  0.00  0.00    +0.188 C 
BRANCH  40  41
ATOM     41  O   LIG    1       27.767 -24.929  13.217  0.00  0.00    -0.392 OA
ATOM     42  H   LIG    1       28.021 -25.133  12.295  0.00  0.00    +0.209 HD
ENDBRANCH  40  41
ENDBRANCH  37  40
ENDBRANCH  36  37
ENDBRANCH  33  36
ENDBRANCH   7  32
TORSDOF 18
ENDMDL
MODEL 3
REMARK VINA RESULT:      -4.6      2.718      7.031
REMARK  Name = *****
REMARK                            x       y       z     vdW  Elec       q    Type
REMARK                         _______ _______ _______ _____ _____    ______ ____
ROOT
ATOM      1  C   LIG    1       24.791 -28.476  12.549  0.00  0.00    +0.064 A 
ATOM      2  C   LIG    1       25.345 -29.230  11.478  0.00  0.00    +0.049 A 
ATOM      3  I   LIG    1       27.449 -28.987  11.040  0.00  0.00    -0.041 I 
ATOM      4  C   LIG    1       24.566 -30.213  10.795  0.00  0.00    +0.065 A 
ATOM      5  C   LIG    1       23.290 -30.539  11.360  0.00  0.00    +0.040 A 
ATOM      6  I   LIG    1       22.473 -32.519  11.150  0.00  0.00    -0.042 I 
ATOM      7  C   LIG    1       22.640 -29.628  12.239  0.00  0.00    +0.065 A 
ATOM      8  C   LIG    1       23.397 -28.563  12.762  0.00  0.00    +0.049 A 
ATOM      9  I   LIG    1       22.471 -26.779  13.670  0.00  0.00    -0.041 I 
ENDROOT
BRANCH   4  10
ATOM     10  C   LIG    1       24.992 -30.793   9.428  0.00  0.00    +0.246 C 
ATOM     11  N   LIG    1       24.590 -30.090   8.290  0.00  0.00    -0.309 N 
ATOM     12  H   LIG    1       24.062 -29.236   8.412  0.00  0.00    +0.149 HD
ATOM     13  O   LIG    1       25.587 -31.855   9.310  0.00  0.00    -0.270 OA
BRANCH  11  14
ATOM     14  C   LIG    1       24.976 -30.448   6.917  0.00  0.00    +0.138 C 
BRANCH  14  15
ATOM     15  C   LIG    1       24.581 -29.405   5.826  0.00  0.00    +0.157 C 
BRANCH  15  16
ATOM     16  O   LIG    1       23.203 -29.480   5.423  0.00  0.00    -0.388 OA
ATOM     17  H   LIG    1       22.988 -30.383   5.133  0.00  0.00    +0.210 HD
ENDBRANCH  15  16
BRANCH  15  18
ATOM     18  C   LIG    1       24.894 -27.981   6.336  0.00  0.00    +0.188 C 
BRANCH  18  19
ATOM     19  O   LIG    1       23.862 -27.038   6.054  0.00  0.00    -0.392 OA
ATOM     20  H   LIG    1       23.906 -26.340   6.733  0.00  0.00    +0.209 HD
ENDBRANCH  18  19
ENDBRANCH  15  18
ENDBRANCH  14  15
ENDBRANCH  11  14
ENDBRANCH   4  10
BRANCH   1  23
ATOM     21  C   LIG    1       27.287 -27.651  15.319  0.00  0.00    +0.110 C 
ATOM     22  C   LIG    1       26.124 -28.312  14.605  0.00  0.00    +0.217 C 
ATOM     23  N   LIG    1       25.579 -27.680  13.479  0.00  0.00    -0.267 N 
ATOM     24  O   LIG    1       25.744 -29.417  15.000  0.00  0.00    -0.276 OA
BRANCH  23  25
ATOM     25  C   LIG    1       26.081 -26.378  12.938  0.00  0.00    +0.147 C 
BRANCH  25  26
ATOM     26  C   LIG    1       26.447 -25.360  14.029  0.00  0.00    +0.158 C 
BRANCH  26  27
ATOM     27  O   LIG    1       27.581 -24.586  13.612  0.00  0.00    -0.388 OA
ATOM     28  H   LIG    1       27.585 -23.766  14.138  0.00  0.00    +0.210 HD
ENDBRANCH  26  27
BRANCH  26  29
ATOM     29  C   LIG    1       25.309 -24.410  14.405  0.00  0.00    +0.188 C 
BRANCH  29  30
ATOM     30  O   LIG    1       25.759 -23.060  14.355  0.00  0.00    -0.392 OA
ATOM     31  H   LIG    1       25.233 -22.610  13.666  0.00  0.00    +0.209 HD
ENDBRANCH  29  30
ENDBRANCH  26  29
ENDBRANCH  25  26
ENDBRANCH  23  25
ENDBRANCH   1  23
BRANCH   7  32
ATOM     32  C   LIG    1       21.135 -29.705  12.487  0.00  0.00    +0.246 C 
ATOM     33  N   LIG    1       20.867 -29.956  13.840  0.00  0.00    -0.309 N 
ATOM     34  H   LIG    1       21.649 -30.174  14.434  0.00  0.00    +0.149 HD
ATOM     35  O   LIG    1       20.305 -29.571  11.634  0.00  0.00    -0.270 OA
BRANCH  33  36
ATOM     36  C   LIG    1       19.522 -30.139  14.383  0.00  0.00    +0.138 C 
BRANCH  36  37
ATOM     37  C   LIG    1       18.853 -28.815  14.821  0.00  0.00    +0.157 C 
BRANCH  37  38
ATOM     38  O   LIG    1       18.777 -27.861  13.745  0.00  0.00    -0.388 OA
ATOM     39  H   LIG    1       18.613 -28.341  12.916  0.00  0.00    +0.210 HD
ENDBRANCH  37  38
BRANCH  37  40
ATOM     40  C   LIG    1       17.435 -29.000  15.371  0.00  0.00    +0.188 C 
BRANCH  40  41
ATOM     41  O   LIG    1       16.652 -27.843  15.074  0.00  0.00    -0.392 OA
ATOM     42  H   LIG    1       15.964 -28.134  14.442  0.00  0.00    +0.209 HD
ENDBRANCH  40  41
ENDBRANCH  37  40
ENDBRANCH  36  37
ENDBRANCH  33  36
ENDBRANCH   7  32
TORSDOF 18
ENDMDL
MODEL 4
REMARK VINA RESULT:      -4.6      1.631      2.240
REMARK  Name = *****
REMARK                            x       y       z     vdW  Elec       q    Type
REMARK                         _______ _______ _______ _____ _____    ______ ____
ROOT
ATOM      1  C   LIG    1       24.741 -31.458   9.137  0.00  0.00    +0.064 A 
ATOM      2  C   LIG    1       23.496 -32.145   9.160  0.00  0.00    +0.049 A 
ATOM      3  I   LIG    1       22.987 -33.391   7.467  0.00  0.00    -0.041 I 
ATOM      4  C   LIG    1       22.664 -32.114  10.320  0.00  0.00    +0.065 A 
ATOM      5  C   LIG    1       23.224 -31.539  11.508  0.00  0.00    +0.040 A 
ATOM      6  I   LIG    1       22.635 -32.248  13.452  0.00  0.00    -0.042 I 
ATOM      7  C   LIG    1       24.324 -30.640  11.419  0.00  0.00    +0.065 A 
ATOM      8  C   LIG    1       25.020 -30.567  10.198  0.00  0.00    +0.049 A 
ATOM      9  I   LIG    1       26.359 -28.890   9.691  0.00  0.00    -0.041 I 
ENDROOT
BRANCH   4  10
ATOM     10  C   LIG    1       21.178 -32.533  10.276  0.00  0.00    +0.246 C 
ATOM     11  N   LIG    1       20.232 -31.507  10.281  0.00  0.00    -0.309 N 
ATOM     12  H   LIG    1       20.559 -30.550  10.296  0.00  0.00    +0.149 HD
ATOM     13  O   LIG    1       20.812 -33.700  10.311  0.00  0.00    -0.270 OA
BRANCH  11  14
ATOM     14  C   LIG    1       18.781 -31.717  10.157  0.00  0.00    +0.138 C 
BRANCH  14  15
ATOM     15  C   LIG    1       17.986 -31.641  11.496  0.00  0.00    +0.157 C 
BRANCH  15  16
ATOM     16  O   LIG    1       17.409 -32.893  11.902  0.00  0.00    -0.388 OA
ATOM     17  H   LIG    1       16.941 -32.787  12.749  0.00  0.00    +0.210 HD
ENDBRANCH  15  16
BRANCH  15  18
ATOM     18  C   LIG    1       18.909 -31.110  12.616  0.00  0.00    +0.188 C 
BRANCH  18  19
ATOM     19  O   LIG    1       18.577 -29.793  13.047  0.00  0.00    -0.392 OA
ATOM     20  H   LIG    1       19.365 -29.417  13.484  0.00  0.00    +0.209 HD
ENDBRANCH  18  19
ENDBRANCH  15  18
ENDBRANCH  14  15
ENDBRANCH  11  14
ENDBRANCH   4  10
BRANCH   1  23
ATOM     21  C   LIG    1       27.639 -33.121   7.288  0.00  0.00    +0.110 C 
ATOM     22  C   LIG    1       26.831 -32.537   8.430  0.00  0.00    +0.217 C 
ATOM     23  N   LIG    1       25.771 -31.670   8.131  0.00  0.00    -0.267 N 
ATOM     24  O   LIG    1       27.091 -32.901   9.580  0.00  0.00    -0.276 OA
BRANCH  23  25
ATOM     25  C   LIG    1       25.390 -31.281   6.737  0.00  0.00    +0.147 C 
BRANCH  25  26
ATOM     26  C   LIG    1       25.410 -29.763   6.496  0.00  0.00    +0.158 C 
BRANCH  26  27
ATOM     27  O   LIG    1       26.108 -29.473   5.275  0.00  0.00    -0.388 OA
ATOM     28  H   LIG    1       25.739 -30.051   4.583  0.00  0.00    +0.210 HD
ENDBRANCH  26  27
BRANCH  26  29
ATOM     29  C   LIG    1       24.023 -29.121   6.439  0.00  0.00    +0.188 C 
BRANCH  29  30
ATOM     30  O   LIG    1       23.193 -29.824   5.520  0.00  0.00    -0.392 OA
ATOM     31  H   LIG    1       22.398 -29.276   5.380  0.00  0.00    +0.209 HD
ENDBRANCH  29  30
ENDBRANCH  26  29
ENDBRANCH  25  26
ENDBRANCH  23  25
ENDBRANCH   1  23
BRANCH   7  32
ATOM     32  C   LIG    1       24.646 -29.670  12.554  0.00  0.00    +0.246 C 
ATOM     33  N   LIG    1       23.718 -28.619  12.587  0.00  0.00    -0.309 N 
ATOM     34  H   LIG    1       23.063 -28.556  11.826  0.00  0.00    +0.149 HD
ATOM     35  O   LIG    1       25.570 -29.796  13.305  0.00  0.00    -0.270 OA
BRANCH  33  36
ATOM     36  C   LIG    1       23.789 -27.500  13.525  0.00  0.00    +0.138 C 
BRANCH  36  37
ATOM     37  C   LIG    1       22.432 -27.174  14.193  0.00  0.00    +0.157 C 
BRANCH  37  38
ATOM     38  O   LIG    1       22.549 -26.133  15.181  0.00  0.00    -0.388 OA
ATOM     39  H   LIG    1       22.111 -25.333  14.844  0.00  0.00    +0.210 HD
ENDBRANCH  37  38
BRANCH  37  40
ATOM     40  C   LIG    1       21.350 -26.744  13.199  0.00  0.00    +0.188 C 
BRANCH  40  41
ATOM     41  O   LIG    1       20.748 -27.902  12.618  0.00  0.00    -0.392 OA
ATOM     42  H   LIG    1       20.268 -28.352  13.342  0.00  0.00    +0.209 HD
ENDBRANCH  40  41
ENDBRANCH  37  40
ENDBRANCH  36  37
ENDBRANCH  33  36
ENDBRANCH   7  32
TORSDOF 18
ENDMDL
MODEL 5
REMARK VINA RESULT:      -4.5      2.083      7.408
REMARK  Name = *****
REMARK                            x       y       z     vdW  Elec       q    Type
REMARK                         _______ _______ _______ _____ _____    ______ ____
ROOT
ATOM      1  C   LIG    1       24.396 -30.103  11.390  0.00  0.00    +0.064 A 
ATOM      2  C   LIG    1       24.973 -29.913  10.104  0.00  0.00    +0.049 A 
ATOM      3  I   LIG    1       26.817 -28.793   9.968  0.00  0.00    -0.041 I 
ATOM      4  C   LIG    1       24.420 -30.550   8.952  0.00  0.00    +0.065 A 
ATOM      5  C   LIG    1       23.399 -31.532   9.178  0.00  0.00    +0.040 A 
ATOM      6  I   LIG    1       23.177 -33.208   7.847  0.00  0.00    -0.042 I 
ATOM      7  C   LIG    1       22.657 -31.527  10.392  0.00  0.00    +0.065 A 
ATOM      8  C   LIG    1       23.139 -30.746  11.458  0.00  0.00    +0.049 A 
ATOM      9  I   LIG    1       21.884 -30.177  13.180  0.00  0.00    -0.041 I 
ENDROOT
BRANCH   4  10
ATOM     10  C   LIG    1       24.778 -30.107   7.516  0.00  0.00    +0.246 C 
ATOM     11  N   LIG    1       24.155 -28.953   7.037  0.00  0.00    -0.309 N 
ATOM     12  H   LIG    1       23.520 -28.458   7.649  0.00  0.00    +0.149 HD
ATOM     13  O   LIG    1       25.510 -30.755   6.781  0.00  0.00    -0.270 OA
BRANCH  11  14
ATOM     14  C   LIG    1       24.440 -28.340   5.731  0.00  0.00    +0.138 C 
BRANCH  14  15
ATOM     15  C   LIG    1       25.244 -27.004   5.789  0.00  0.00    +0.157 C 
BRANCH  15  16
ATOM     16  O   LIG    1       26.337 -26.942   4.858  0.00  0.00    -0.388 OA
ATOM     17  H   LIG    1       26.427 -27.791   4.391  0.00  0.00    +0.210 HD
ENDBRANCH  15  16
BRANCH  15  18
ATOM     18  C   LIG    1       24.288 -25.816   5.543  0.00  0.00    +0.188 C 
BRANCH  18  19
ATOM     19  O   LIG    1       24.753 -24.911   4.544  0.00  0.00    -0.392 OA
ATOM     20  H   LIG    1       23.978 -24.430   4.197  0.00  0.00    +0.209 HD
ENDBRANCH  18  19
ENDBRANCH  15  18
ENDBRANCH  14  15
ENDBRANCH  11  14
ENDBRANCH   4  10
BRANCH   1  23
ATOM     21  C   LIG    1       26.878 -30.231  14.288  0.00  0.00    +0.110 C 
ATOM     22  C   LIG    1       25.851 -30.698  13.275  0.00  0.00    +0.217 C 
ATOM     23  N   LIG    1       25.050 -29.741  12.638  0.00  0.00    -0.267 N 
ATOM     24  O   LIG    1       25.805 -31.899  12.998  0.00  0.00    -0.276 OA
BRANCH  23  25
ATOM     25  C   LIG    1       25.149 -28.272  12.904  0.00  0.00    +0.147 C 
BRANCH  25  26
ATOM     26  C   LIG    1       24.090 -27.753  13.891  0.00  0.00    +0.158 C 
BRANCH  26  27
ATOM     27  O   LIG    1       24.597 -27.829  15.232  0.00  0.00    -0.388 OA
ATOM     28  H   LIG    1       25.308 -28.494  15.239  0.00  0.00    +0.210 HD
ENDBRANCH  26  27
BRANCH  26  29
ATOM     29  C   LIG    1       23.627 -26.322  13.616  0.00  0.00    +0.188 C 
BRANCH  29  30
ATOM     30  O   LIG    1       22.290 -26.324  13.125  0.00  0.00    -0.392 OA
ATOM     31  H   LIG    1       21.880 -27.160  13.418  0.00  0.00    +0.209 HD
ENDBRANCH  29  30
ENDBRANCH  26  29
ENDBRANCH  25  26
ENDBRANCH  23  25
ENDBRANCH   1  23
BRANCH   7  32
ATOM     32  C   LIG    1       21.298 -32.218  10.490  0.00  0.00    +0.246 C 
ATOM     33  N   LIG    1       20.264 -31.327  10.170  0.00  0.00    -0.309 N 
ATOM     34  H   LIG    1       20.508 -30.359  10.046  0.00  0.00    +0.149 HD
ATOM     35  O   LIG    1       21.146 -33.364  10.804  0.00  0.00    -0.270 OA
BRANCH  33  36
ATOM     36  C   LIG    1       18.844 -31.673  10.225  0.00  0.00    +0.138 C 
BRANCH  36  37
ATOM     37  C   LIG    1       18.202 -31.407  11.608  0.00  0.00    +0.157 C 
BRANCH  37  38
ATOM     38  O   LIG    1       16.889 -30.828  11.495  0.00  0.00    -0.388 OA
ATOM     39  H   LIG    1       16.551 -30.649  12.388  0.00  0.00    +0.210 HD
ENDBRANCH  37  38
BRANCH  37  40
ATOM     40  C   LIG    1       18.077 -32.664  12.474  0.00  0.00    +0.188 C 
BRANCH  40  41
ATOM     41  O   LIG    1       18.433 -33.813  11.704  0.00  0.00    -0.392 OA
ATOM     42  H   LIG    1       18.491 -34.558  12.336  0.00  0.00    +0.209 HD
ENDBRANCH  40  41
ENDBRANCH  37  40
ENDBRANCH  36  37
ENDBRANCH  33  36
ENDBRANCH   7  32
TORSDOF 18
ENDMDL
MODEL 6
REMARK VINA RESULT:      -4.5      2.067      7.404
REMARK  Name = *****
REMARK                            x       y       z     vdW  Elec       q    Type
REMARK                         _______ _______ _______ _____ _____    ______ ____
ROOT
ATOM      1  C   LIG    1       24.395 -29.587  12.267  0.00  0.00    +0.064 A 
ATOM      2  C   LIG    1       25.190 -29.843  11.116  0.00  0.00    +0.049 A 
ATOM      3  I   LIG    1       27.286 -29.318  11.186  0.00  0.00    -0.041 I 
ATOM      4  C   LIG    1       24.649 -30.540   9.993  0.00  0.00    +0.065 A 
ATOM      5  C   LIG    1       23.356 -31.137  10.159  0.00  0.00    +0.040 A 
ATOM      6  I   LIG    1       22.836 -32.938   9.101  0.00  0.00    -0.042 I 
ATOM      7  C   LIG    1       22.476 -30.670  11.175  0.00  0.00    +0.065 A 
ATOM      8  C   LIG    1       23.007 -29.837  12.176  0.00  0.00    +0.049 A 
ATOM      9  I   LIG    1       21.740 -28.593  13.485  0.00  0.00    -0.041 I 
ENDROOT
BRANCH   4  10
ATOM     10  C   LIG    1       25.338 -30.531   8.611  0.00  0.00    +0.246 C 
ATOM     11  N   LIG    1       24.834 -29.643   7.659  0.00  0.00    -0.309 N 
ATOM     12  H   LIG    1       24.063 -29.043   7.920  0.00  0.00    +0.149 HD
ATOM     13  O   LIG    1       26.235 -31.305   8.307  0.00  0.00    -0.270 OA
BRANCH  11  14
ATOM     14  C   LIG    1       25.418 -29.440   6.325  0.00  0.00    +0.138 C 
BRANCH  14  15
ATOM     15  C   LIG    1       24.574 -28.549   5.362  0.00  0.00    +0.157 C 
BRANCH  15  16
ATOM     16  O   LIG    1       23.249 -29.051   5.117  0.00  0.00    -0.388 OA
ATOM     17  H   LIG    1       23.241 -30.021   5.190  0.00  0.00    +0.210 HD
ENDBRANCH  15  16
BRANCH  15  18
ATOM     18  C   LIG    1       24.486 -27.115   5.929  0.00  0.00    +0.188 C 
BRANCH  18  19
ATOM     19  O   LIG    1       23.601 -26.269   5.198  0.00  0.00    -0.392 OA
ATOM     20  H   LIG    1       23.907 -25.350   5.315  0.00  0.00    +0.209 HD
ENDBRANCH  18  19
ENDBRANCH  15  18
ENDBRANCH  14  15
ENDBRANCH  11  14
ENDBRANCH   4  10
BRANCH   1  23
ATOM     21  C   LIG    1       25.217 -27.283  15.199  0.00  0.00    +0.110 C 
ATOM     22  C   LIG    1       25.105 -27.781  13.771  0.00  0.00    +0.217 C 
ATOM     23  N   LIG    1       24.932 -29.154  13.548  0.00  0.00    -0.267 N 
ATOM     24  O   LIG    1       25.102 -26.951  12.858  0.00  0.00    -0.276 OA
BRANCH  23  25
ATOM     25  C   LIG    1       24.854 -30.166  14.648  0.00  0.00    +0.147 C 
BRANCH  25  26
ATOM     26  C   LIG    1       26.142 -30.984  14.823  0.00  0.00    +0.158 C 
BRANCH  26  27
ATOM     27  O   LIG    1       26.302 -31.884  13.716  0.00  0.00    -0.388 OA
ATOM     28  H   LIG    1       25.427 -32.265  13.520  0.00  0.00    +0.210 HD
ENDBRANCH  26  27
BRANCH  26  29
ATOM     29  C   LIG    1       27.408 -30.137  14.959  0.00  0.00    +0.188 C 
BRANCH  29  30
ATOM     30  O   LIG    1       28.531 -30.843  14.443  0.00  0.00    -0.392 OA
ATOM     31  H   LIG    1       28.360 -31.793  14.585  0.00  0.00    +0.209 HD
ENDBRANCH  29  30
ENDBRANCH  26  29
ENDBRANCH  25  26
ENDBRANCH  23  25
ENDBRANCH   1  23
BRANCH   7  32
ATOM     32  C   LIG    1       20.973 -30.931  11.100  0.00  0.00    +0.246 C 
ATOM     33  N   LIG    1       20.569 -31.807  12.118  0.00  0.00    -0.309 N 
ATOM     34  H   LIG    1       21.291 -32.242  12.668  0.00  0.00    +0.149 HD
ATOM     35  O   LIG    1       20.246 -30.450  10.278  0.00  0.00    -0.270 OA
BRANCH  33  36
ATOM     36  C   LIG    1       19.200 -32.293  12.279  0.00  0.00    +0.138 C 
BRANCH  36  37
ATOM     37  C   LIG    1       18.182 -31.168  12.583  0.00  0.00    +0.157 C 
BRANCH  37  38
ATOM     38  O   LIG    1       17.429 -30.786  11.417  0.00  0.00    -0.388 OA
ATOM     39  H   LIG    1       17.432 -29.816  11.349  0.00  0.00    +0.210 HD
ENDBRANCH  37  38
BRANCH  37  40
ATOM     40  C   LIG    1       17.177 -31.535  13.679  0.00  0.00    +0.188 C 
BRANCH  40  41
ATOM     41  O   LIG    1       16.728 -30.347  14.333  0.00  0.00    -0.392 OA
ATOM     42  H   LIG    1       17.027 -29.600  13.776  0.00  0.00    +0.209 HD
ENDBRANCH  40  41
ENDBRANCH  37  40
ENDBRANCH  36  37
ENDBRANCH  33  36
ENDBRANCH   7  32
TORSDOF 18
ENDMDL
MODEL 7
REMARK VINA RESULT:      -4.4      1.500      1.936
REMARK  Name = *****
REMARK                            x       y       z     vdW  Elec       q    Type
REMARK                         _______ _______ _______ _____ _____    ______ ____
ROOT
ATOM      1  C   LIG    1       24.929 -31.499   9.624  0.00  0.00    +0.064 A 
ATOM      2  C   LIG    1       23.727 -32.198   9.922  0.00  0.00    +0.049 A 
ATOM      3  I   LIG    1       22.815 -33.373   8.353  0.00  0.00    -0.041 I 
ATOM      4  C   LIG    1       23.207 -32.225  11.252  0.00  0.00    +0.065 A 
ATOM      5  C   LIG    1       24.043 -31.697  12.289  0.00  0.00    +0.040 A 
ATOM      6  I   LIG    1       23.950 -32.495  14.285  0.00  0.00    -0.042 I 
ATOM      7  C   LIG    1       25.089 -30.785  11.973  0.00  0.00    +0.065 A 
ATOM      8  C   LIG    1       25.462 -30.652  10.623  0.00  0.00    +0.049 A 
ATOM      9  I   LIG    1       26.638 -28.941   9.875  0.00  0.00    -0.041 I 
ENDROOT
BRANCH   4  10
ATOM     10  C   LIG    1       21.755 -32.655  11.557  0.00  0.00    +0.246 C 
ATOM     11  N   LIG    1       20.828 -31.637  11.782  0.00  0.00    -0.309 N 
ATOM     12  H   LIG    1       21.141 -30.677  11.719  0.00  0.00    +0.149 HD
ATOM     13  O   LIG    1       21.417 -33.825  11.677  0.00  0.00    -0.270 OA
BRANCH  11  14
ATOM     14  C   LIG    1       19.390 -31.858  12.001  0.00  0.00    +0.138 C 
BRANCH  14  15
ATOM     15  C   LIG    1       18.475 -31.514  10.786  0.00  0.00    +0.157 C 
BRANCH  15  16
ATOM     16  O   LIG    1       19.048 -30.558   9.879  0.00  0.00    -0.388 OA
ATOM     17  H   LIG    1       19.878 -30.205  10.245  0.00  0.00    +0.210 HD
ENDBRANCH  15  16
BRANCH  15  18
ATOM     18  C   LIG    1       18.126 -32.809  10.020  0.00  0.00    +0.188 C 
BRANCH  18  19
ATOM     19  O   LIG    1       19.271 -33.508   9.536  0.00  0.00    -0.392 OA
ATOM     20  H   LIG    1       19.023 -33.935   8.695  0.00  0.00    +0.209 HD
ENDBRANCH  18  19
ENDBRANCH  15  18
ENDBRANCH  14  15
ENDBRANCH  11  14
ENDBRANCH   4  10
BRANCH   1  23
ATOM     21  C   LIG    1       27.347 -33.005   7.081  0.00  0.00    +0.110 C 
ATOM     22  C   LIG    1       26.825 -32.463   8.398  0.00  0.00    +0.217 C 
ATOM     23  N   LIG    1       25.679 -31.656   8.387  0.00  0.00    -0.267 N 
ATOM     24  O   LIG    1       27.389 -32.807   9.439  0.00  0.00    -0.276 OA
BRANCH  23  25
ATOM     25  C   LIG    1       24.935 -31.294   7.140  0.00  0.00    +0.147 C 
BRANCH  25  26
ATOM     26  C   LIG    1       25.306 -29.910   6.584  0.00  0.00    +0.158 C 
BRANCH  26  27
ATOM     27  O   LIG    1       25.948 -30.054   5.308  0.00  0.00    -0.388 OA
ATOM     28  H   LIG    1       25.266 -29.939   4.622  0.00  0.00    +0.210 HD
ENDBRANCH  26  27
BRANCH  26  29
ATOM     29  C   LIG    1       24.119 -28.957   6.436  0.00  0.00    +0.188 C 
BRANCH  29  30
ATOM     30  O   LIG    1       23.300 -29.357   5.342  0.00  0.00    -0.392 OA
ATOM     31  H   LIG    1       22.397 -29.038   5.531  0.00  0.00    +0.209 HD
ENDBRANCH  29  30
ENDBRANCH  26  29
ENDBRANCH  25  26
ENDBRANCH  23  25
ENDBRANCH   1  23
BRANCH   7  32
ATOM     32  C   LIG    1       25.682 -29.862  13.035  0.00  0.00    +0.246 C 
ATOM     33  N   LIG    1       26.907 -30.362  13.499  0.00  0.00    -0.309 N 
ATOM     34  H   LIG    1       27.177 -31.282  13.195  0.00  0.00    +0.149 HD
ATOM     35  O   LIG    1       25.162 -28.852  13.416  0.00  0.00    -0.270 OA
BRANCH  33  36
ATOM     36  C   LIG    1       27.694 -29.734  14.558  0.00  0.00    +0.138 C 
BRANCH  36  37
ATOM     37  C   LIG    1       29.206 -29.658  14.236  0.00  0.00    +0.157 C 
BRANCH  37  38
ATOM     38  O   LIG    1       29.451 -29.298  12.864  0.00  0.00    -0.388 OA
ATOM     39  H   LIG    1       29.328 -30.085  12.308  0.00  0.00    +0.210 HD
ENDBRANCH  37  38
BRANCH  37  40
ATOM     40  C   LIG    1       29.968 -28.662  15.116  0.00  0.00    +0.188 C 
BRANCH  40  41
ATOM     41  O   LIG    1       31.093 -28.154  14.397  0.00  0.00    -0.392 OA
ATOM     42  H   LIG    1       31.886 -28.518  14.840  0.00  0.00    +0.209 HD
ENDBRANCH  40  41
ENDBRANCH  37  40
ENDBRANCH  36  37
ENDBRANCH  33  36
ENDBRANCH   7  32
TORSDOF 18
ENDMDL
MODEL 8
REMARK VINA RESULT:      -4.4      3.045      6.928
REMARK  Name = *****
REMARK                            x       y       z     vdW  Elec       q    Type
REMARK                         _______ _______ _______ _____ _____    ______ ____
ROOT
ATOM      1  C   LIG    1       24.919 -28.405  13.078  0.00  0.00    +0.064 A 
ATOM      2  C   LIG    1       25.030 -29.125  11.856  0.00  0.00    +0.049 A 
ATOM      3  I   LIG    1       26.848 -28.909  10.705  0.00  0.00    -0.041 I 
ATOM      4  C   LIG    1       24.025 -30.060  11.464  0.00  0.00    +0.065 A 
ATOM      5  C   LIG    1       23.021 -30.383  12.435  0.00  0.00    +0.040 A 
ATOM      6  I   LIG    1       22.114 -32.334  12.467  0.00  0.00    -0.042 I 
ATOM      7  C   LIG    1       22.759 -29.496  13.517  0.00  0.00    +0.065 A 
ATOM      8  C   LIG    1       23.689 -28.471  13.770  0.00  0.00    +0.049 A 
ATOM      9  I   LIG    1       23.210 -26.708  15.006  0.00  0.00    -0.041 I 
ENDROOT
BRANCH   4  10
ATOM     10  C   LIG    1       23.916 -30.591  10.017  0.00  0.00    +0.246 C 
ATOM     11  N   LIG    1       24.690 -31.706   9.693  0.00  0.00    -0.309 N 
ATOM     12  H   LIG    1       25.266 -32.120  10.414  0.00  0.00    +0.149 HD
ATOM     13  O   LIG    1       23.250 -30.038   9.152  0.00  0.00    -0.270 OA
BRANCH  11  14
ATOM     14  C   LIG    1       24.648 -32.394   8.394  0.00  0.00    +0.138 C 
BRANCH  14  15
ATOM     15  C   LIG    1       25.723 -31.930   7.364  0.00  0.00    +0.157 C 
BRANCH  15  16
ATOM     16  O   LIG    1       25.825 -30.503   7.233  0.00  0.00    -0.388 OA
ATOM     17  H   LIG    1       26.707 -30.260   6.903  0.00  0.00    +0.210 HD
ENDBRANCH  15  16
BRANCH  15  18
ATOM     18  C   LIG    1       27.099 -32.513   7.756  0.00  0.00    +0.188 C 
BRANCH  18  19
ATOM     19  O   LIG    1       27.289 -32.619   9.165  0.00  0.00    -0.392 OA
ATOM     20  H   LIG    1       26.684 -33.311   9.493  0.00  0.00    +0.209 HD
ENDBRANCH  18  19
ENDBRANCH  15  18
ENDBRANCH  14  15
ENDBRANCH  11  14
ENDBRANCH   4  10
BRANCH   1  23
ATOM     21  C   LIG    1       28.221 -27.758  14.884  0.00  0.00    +0.110 C 
ATOM     22  C   LIG    1       26.850 -28.338  14.593  0.00  0.00    +0.217 C 
ATOM     23  N   LIG    1       26.013 -27.667  13.691  0.00  0.00    -0.267 N 
ATOM     24  O   LIG    1       26.547 -29.417  15.109  0.00  0.00    -0.276 OA
BRANCH  23  25
ATOM     25  C   LIG    1       26.396 -26.399  12.994  0.00  0.00    +0.147 C 
BRANCH  25  26
ATOM     26  C   LIG    1       26.806 -25.271  13.954  0.00  0.00    +0.158 C 
BRANCH  26  27
ATOM     27  O   LIG    1       27.979 -24.610  13.456  0.00  0.00    -0.388 OA
ATOM     28  H   LIG    1       27.683 -23.846  12.929  0.00  0.00    +0.210 HD
ENDBRANCH  26  27
BRANCH  26  29
ATOM     29  C   LIG    1       25.715 -24.227  14.195  0.00  0.00    +0.188 C 
BRANCH  29  30
ATOM     30  O   LIG    1       26.276 -23.051  14.768  0.00  0.00    -0.392 OA
ATOM     31  H   LIG    1       26.882 -22.673  14.103  0.00  0.00    +0.209 HD
ENDBRANCH  29  30
ENDBRANCH  26  29
ENDBRANCH  25  26
ENDBRANCH  23  25
ENDBRANCH   1  23
BRANCH   7  32
ATOM     32  C   LIG    1       21.438 -29.551  14.282  0.00  0.00    +0.246 C 
ATOM     33  N   LIG    1       20.430 -28.875  13.580  0.00  0.00    -0.309 N 
ATOM     34  H   LIG    1       20.703 -28.351  12.766  0.00  0.00    +0.149 HD
ATOM     35  O   LIG    1       21.295 -30.095  15.339  0.00  0.00    -0.270 OA
BRANCH  33  36
ATOM     36  C   LIG    1       19.066 -28.703  14.079  0.00  0.00    +0.138 C 
BRANCH  36  37
ATOM     37  C   LIG    1       18.674 -27.222  14.294  0.00  0.00    +0.157 C 
BRANCH  37  38
ATOM     38  O   LIG    1       19.173 -26.370  13.247  0.00  0.00    -0.388 OA
ATOM     39  H   LIG    1       19.276 -25.470  13.600  0.00  0.00    +0.210 HD
ENDBRANCH  37  38
BRANCH  37  40
ATOM     40  C   LIG    1       17.162 -26.998  14.388  0.00  0.00    +0.188 C 
BRANCH  40  41
ATOM     41  O   LIG    1       16.477 -28.159  13.915  0.00  0.00    -0.392 OA
ATOM     42  H   LIG    1       16.434 -28.777  14.672  0.00  0.00    +0.209 HD
ENDBRANCH  40  41
ENDBRANCH  37  40
ENDBRANCH  36  37
ENDBRANCH  33  36
ENDBRANCH   7  32
TORSDOF 18
ENDMDL
MODEL 9
REMARK VINA RESULT:      -4.3      2.886      3.574
REMARK  Name = *****
REMARK                            x       y       z     vdW  Elec       q    Type
REMARK                         _______ _______ _______ _____ _____    ______ ____
ROOT
ATOM      1  C   LIG    1       23.934 -30.070  10.955  0.00  0.00    +0.064 A 
ATOM      2  C   LIG    1       22.636 -29.848  11.492  0.00  0.00    +0.049 A 
ATOM      3  I   LIG    1       20.980 -30.952  10.645  0.00  0.00    -0.041 I 
ATOM      4  C   LIG    1       22.450 -29.019  12.639  0.00  0.00    +0.065 A 
ATOM      5  C   LIG    1       23.631 -28.591  13.331  0.00  0.00    +0.040 A 
ATOM      6  I   LIG    1       23.593 -28.254  15.456  0.00  0.00    -0.042 I 
ATOM      7  C   LIG    1       24.889 -28.583  12.667  0.00  0.00    +0.065 A 
ATOM      8  C   LIG    1       24.993 -29.270  11.443  0.00  0.00    +0.049 A 
ATOM      9  I   LIG    1       26.644 -28.926  10.022  0.00  0.00    -0.041 I 
ENDROOT
BRANCH   4  10
ATOM     10  C   LIG    1       21.063 -28.469  13.039  0.00  0.00    +0.246 C 
ATOM     11  N   LIG    1       20.256 -29.298  13.820  0.00  0.00    -0.309 N 
ATOM     12  H   LIG    1       20.617 -30.201  14.097  0.00  0.00    +0.149 HD
ATOM     13  O   LIG    1       20.632 -27.394  12.645  0.00  0.00    -0.270 OA
BRANCH  11  14
ATOM     14  C   LIG    1       18.946 -28.906  14.362  0.00  0.00    +0.138 C 
BRANCH  14  15
ATOM     15  C   LIG    1       17.803 -29.945  14.144  0.00  0.00    +0.157 C 
BRANCH  15  16
ATOM     16  O   LIG    1       16.759 -29.486  13.269  0.00  0.00    -0.388 OA
ATOM     17  H   LIG    1       17.143 -29.105  12.461  0.00  0.00    +0.210 HD
ENDBRANCH  15  16
BRANCH  15  18
ATOM     18  C   LIG    1       18.398 -31.259  13.592  0.00  0.00    +0.188 C 
BRANCH  18  19
ATOM     19  O   LIG    1       19.076 -32.033  14.580  0.00  0.00    -0.392 OA
ATOM     20  H   LIG    1       19.843 -31.514  14.886  0.00  0.00    +0.209 HD
ENDBRANCH  18  19
ENDBRANCH  15  18
ENDBRANCH  14  15
ENDBRANCH  11  14
ENDBRANCH   4  10
BRANCH   1  23
ATOM     21  C   LIG    1       24.612 -33.560   9.562  0.00  0.00    +0.110 C 
ATOM     22  C   LIG    1       24.712 -32.347  10.467  0.00  0.00    +0.217 C 
ATOM     23  N   LIG    1       24.251 -31.112   9.990  0.00  0.00    -0.267 N 
ATOM     24  O   LIG    1       25.132 -32.504  11.616  0.00  0.00    -0.276 OA
BRANCH  23  25
ATOM     25  C   LIG    1       23.663 -30.919   8.627  0.00  0.00    +0.147 C 
BRANCH  25  26
ATOM     26  C   LIG    1       24.695 -30.503   7.567  0.00  0.00    +0.158 C 
BRANCH  26  27
ATOM     27  O   LIG    1       25.033 -31.631   6.747  0.00  0.00    -0.388 OA
ATOM     28  H   LIG    1       24.780 -31.414   5.832  0.00  0.00    +0.210 HD
ENDBRANCH  26  27
BRANCH  26  29
ATOM     29  C   LIG    1       24.237 -29.355   6.666  0.00  0.00    +0.188 C 
BRANCH  29  30
ATOM     30  O   LIG    1       23.247 -29.813   5.750  0.00  0.00    -0.392 OA
ATOM     31  H   LIG    1       23.497 -29.475   4.870  0.00  0.00    +0.209 HD
ENDBRANCH  29  30
ENDBRANCH  26  29
ENDBRANCH  25  26
ENDBRANCH  23  25
ENDBRANCH   1  23
BRANCH   7  32
ATOM     32  C   LIG    1       26.048 -27.730  13.177  0.00  0.00    +0.246 C 
ATOM     33  N   LIG    1       26.970 -28.516  13.882  0.00  0.00    -0.309 N 
ATOM     34  H   LIG    1       26.715 -29.470  14.073  0.00  0.00    +0.149 HD
ATOM     35  O   LIG    1       26.144 -26.550  12.998  0.00  0.00    -0.270 OA
BRANCH  33  36
ATOM     36  C   LIG    1       28.161 -27.980  14.541  0.00  0.00    +0.138 C 
BRANCH  36  37
ATOM     37  C   LIG    1       29.354 -28.965  14.546  0.00  0.00    +0.157 C 
BRANCH  37  38
ATOM     38  O   LIG    1       29.735 -29.364  13.217  0.00  0.00    -0.388 OA
ATOM     39  H   LIG    1       29.530 -30.308  13.104  0.00  0.00    +0.210 HD
ENDBRANCH  37  38
BRANCH  37  40
ATOM     40  C   LIG    1       30.603 -28.407  15.235  0.00  0.00    +0.188 C 
BRANCH  40  41
ATOM     41  O   LIG    1       30.659 -26.992  15.049  0.00  0.00    -0.392 OA
ATOM     42  H   LIG    1       31.027 -26.849  14.154  0.00  0.00    +0.209 HD
ENDBRANCH  40  41
ENDBRANCH  37  40
ENDBRANCH  36  37
ENDBRANCH  33  36
ENDBRANCH   7  32
TORSDOF 18
ENDMDL
