MODEL 1
REMARK VINA RESULT:      -5.8      0.000      0.000
REMARK  Name = *****
REMARK                            x       y       z     vdW  Elec       q    Type
REMARK                         _______ _______ _______ _____ _____    ______ ____
ROOT
ATOM      1  CA  LYS A  1       30.552 -20.662   8.327  0.00  0.00    +0.161 C 
ENDROOT
BRANCH   1   2
ATOM      2  N   LYS A  1       31.534 -20.063   7.399  0.00  0.00    -0.318 NA
ATOM      3  H1  LYS A  1       31.663 -19.068   7.557  0.00  0.00    +0.119 HD
ATOM      4  H2  LYS A  1       32.407 -20.582   7.355  0.00  0.00    +0.119 HD
ENDBRANCH   1   2
BRANCH   1   5
ATOM      5  C   LYS A  1       31.155 -21.818   9.152  0.00  0.00    +0.322 C 
ATOM      6  O   LYS A  1       30.760 -22.152  10.255  0.00  0.00    -0.249 OA
BRANCH   5   7
ATOM      7  OXT LYS A  1       32.190 -22.448   8.540  0.00  0.00    -0.479 OA
ATOM      8  HXT LYS A  1       32.762 -22.890   9.191  0.00  0.00    +0.295 HD
ENDBRANCH   5   7
ENDBRANCH   1   5
BRANCH   1   9
ATOM      9  CB  LYS A  1       29.277 -21.105   7.586  0.00  0.00    +0.030 C 
BRANCH   9  10
ATOM     10  CG  LYS A  1       28.104 -20.121   7.711  0.00  0.00    +0.003 C 
BRANCH  10  11
ATOM     11  CD  LYS A  1       26.855 -20.607   6.963  0.00  0.00    +0.015 C 
BRANCH  11  12
ATOM     12  CE  LYS A  1       25.602 -20.625   7.845  0.00  0.00    +0.077 C 
BRANCH  12  13
ATOM     13  NZ  LYS A  1       25.937 -20.626   9.264  0.00  0.00    -0.330 NA
ATOM     14  HZ1 LYS A  1       25.797 -21.560   9.650  0.00  0.00    +0.118 HD
ATOM     15  HZ2 LYS A  1       26.925 -20.411   9.385  0.00  0.00    +0.118 HD
ENDBRANCH  12  13
ENDBRANCH  11  12
ENDBRANCH  10  11
ENDBRANCH   9  10
ENDBRANCH   1   9
TORSDOF 8
ENDMDL
MODEL 2
REMARK VINA RESULT:      -5.7      3.380      4.334
REMARK  Name = *****
REMARK                            x       y       z     vdW  Elec       q    Type
REMARK                         _______ _______ _______ _____ _____    ______ ____
ROOT
ATOM      1  CA  LYS A  1       30.768 -17.531   8.810  0.00  0.00    +0.161 C 
ENDROOT
BRANCH   1   2
ATOM      2  N   LYS A  1       32.183 -17.714   8.424  0.00  0.00    -0.318 NA
ATOM      3  H1  LYS A  1       32.286 -18.228   7.553  0.00  0.00    +0.119 HD
ATOM      4  H2  LYS A  1       32.716 -16.850   8.448  0.00  0.00    +0.119 HD
ENDBRANCH   1   2
BRANCH   1   5
ATOM      5  C   LYS A  1       30.558 -17.641  10.335  0.00  0.00    +0.322 C 
ATOM      6  O   LYS A  1       30.672 -18.674  10.969  0.00  0.00    -0.249 OA
BRANCH   5   7
ATOM      7  OXT LYS A  1       30.222 -16.468  10.929  0.00  0.00    -0.479 OA
ATOM      8  HXT LYS A  1       30.771 -15.739  10.594  0.00  0.00    +0.295 HD
ENDBRANCH   5   7
ENDBRANCH   1   5
BRANCH   1   9
ATOM      9  CB  LYS A  1       29.848 -18.500   8.044  0.00  0.00    +0.030 C 
BRANCH   9  10
ATOM     10  CG  LYS A  1       30.564 -19.739   7.488  0.00  0.00    +0.003 C 
BRANCH  10  11
ATOM     11  CD  LYS A  1       29.980 -21.046   8.041  0.00  0.00    +0.015 C 
BRANCH  11  12
ATOM     12  CE  LYS A  1       30.911 -21.739   9.042  0.00  0.00    +0.077 C 
BRANCH  12  13
ATOM     13  NZ  LYS A  1       32.097 -20.940   9.322  0.00  0.00    -0.330 NA
ATOM     14  HZ1 LYS A  1       32.922 -21.399   8.936  0.00  0.00    +0.118 HD
ATOM     15  HZ2 LYS A  1       32.025 -20.038   8.853  0.00  0.00    +0.118 HD
ENDBRANCH  12  13
ENDBRANCH  11  12
ENDBRANCH  10  11
ENDBRANCH   9  10
ENDBRANCH   1   9
TORSDOF 8
ENDMDL
MODEL 3
REMARK VINA RESULT:      -5.5      3.078      4.537
REMARK  Name = *****
REMARK                            x       y       z     vdW  Elec       q    Type
REMARK                         _______ _______ _______ _____ _____    ______ ____
ROOT
ATOM      1  CA  LYS A  1       31.223 -19.626   8.368  0.00  0.00    +0.161 C 
ENDROOT
BRANCH   1   2
ATOM      2  N   LYS A  1       31.517 -19.655   6.919  0.00  0.00    -0.318 NA
ATOM      3  H1  LYS A  1       32.231 -18.983   6.653  0.00  0.00    +0.119 HD
ATOM      4  H2  LYS A  1       31.693 -20.592   6.569  0.00  0.00    +0.119 HD
ENDBRANCH   1   2
BRANCH   1   5
ATOM      5  C   LYS A  1       31.076 -21.041   8.964  0.00  0.00    +0.322 C 
ATOM      6  O   LYS A  1       30.040 -21.682   8.958  0.00  0.00    -0.249 OA
BRANCH   5   7
ATOM      7  OXT LYS A  1       32.217 -21.527   9.515  0.00  0.00    -0.479 OA
ATOM      8  HXT LYS A  1       32.070 -21.796  10.437  0.00  0.00    +0.295 HD
ENDBRANCH   5   7
ENDBRANCH   1   5
BRANCH   1   9
ATOM      9  CB  LYS A  1       29.990 -18.756   8.672  0.00  0.00    +0.030 C 
BRANCH   9  10
ATOM     10  CG  LYS A  1       30.323 -17.372   9.247  0.00  0.00    +0.003 C 
BRANCH  10  11
ATOM     11  CD  LYS A  1       31.269 -17.455  10.453  0.00  0.00    +0.015 C 
BRANCH  11  12
ATOM     12  CE  LYS A  1       32.622 -16.783  10.197  0.00  0.00    +0.077 C 
BRANCH  12  13
ATOM     13  NZ  LYS A  1       32.644 -16.075   8.922  0.00  0.00    -0.330 NA
ATOM     14  HZ1 LYS A  1       32.023 -16.539   8.259  0.00  0.00    +0.118 HD
ATOM     15  HZ2 LYS A  1       32.280 -15.132   9.045  0.00  0.00    +0.118 HD
ENDBRANCH  12  13
ENDBRANCH  11  12
ENDBRANCH  10  11
ENDBRANCH   9  10
ENDBRANCH   1   9
TORSDOF 8
ENDMDL
MODEL 4
REMARK VINA RESULT:      -5.5      2.609      4.263
REMARK  Name = *****
REMARK                            x       y       z     vdW  Elec       q    Type
REMARK                         _______ _______ _______ _____ _____    ______ ____
ROOT
ATOM      1  CA  LYS A  1       30.576 -20.795   8.292  0.00  0.00    +0.161 C 
ENDROOT
BRANCH   1   2
ATOM      2  N   LYS A  1       29.098 -20.799   8.324  0.00  0.00    -0.318 NA
ATOM      3  H1  LYS A  1       28.705 -19.862   8.300  0.00  0.00    +0.119 HD
ATOM      4  H2  LYS A  1       28.687 -21.428   7.639  0.00  0.00    +0.119 HD
ENDBRANCH   1   2
BRANCH   1   5
ATOM      5  C   LYS A  1       31.183 -21.938   9.131  0.00  0.00    +0.322 C 
ATOM      6  O   LYS A  1       30.771 -22.277  10.226  0.00  0.00    -0.249 OA
BRANCH   5   7
ATOM      7  OXT LYS A  1       32.242 -22.549   8.543  0.00  0.00    -0.479 OA
ATOM      8  HXT LYS A  1       32.273 -22.351   7.592  0.00  0.00    +0.295 HD
ENDBRANCH   5   7
ENDBRANCH   1   5
BRANCH   1   9
ATOM      9  CB  LYS A  1       31.142 -19.426   8.713  0.00  0.00    +0.030 C 
BRANCH   9  10
ATOM     10  CG  LYS A  1       30.086 -18.318   8.828  0.00  0.00    +0.003 C 
BRANCH  10  11
ATOM     11  CD  LYS A  1       30.576 -17.131   9.668  0.00  0.00    +0.015 C 
BRANCH  11  12
ATOM     12  CE  LYS A  1       32.104 -17.069   9.778  0.00  0.00    +0.077 C 
BRANCH  12  13
ATOM     13  NZ  LYS A  1       32.670 -16.047   8.906  0.00  0.00    -0.330 NA
ATOM     14  HZ1 LYS A  1       32.616 -16.354   7.935  0.00  0.00    +0.118 HD
ATOM     15  HZ2 LYS A  1       32.116 -15.195   8.969  0.00  0.00    +0.118 HD
ENDBRANCH  12  13
ENDBRANCH  11  12
ENDBRANCH  10  11
ENDBRANCH   9  10
ENDBRANCH   1   9
TORSDOF 8
ENDMDL
MODEL 5
REMARK VINA RESULT:      -5.4      6.104      6.717
REMARK  Name = *****
REMARK                            x       y       z     vdW  Elec       q    Type
REMARK                         _______ _______ _______ _____ _____    ______ ____
ROOT
ATOM      1  CA  LYS A  1       24.807 -23.612   6.270  0.00  0.00    +0.161 C 
ENDROOT
BRANCH   1   2
ATOM      2  N   LYS A  1       24.852 -23.030   4.912  0.00  0.00    -0.318 NA
ATOM      3  H1  LYS A  1       24.236 -23.509   4.262  0.00  0.00    +0.119 HD
ATOM      4  H2  LYS A  1       24.737 -22.020   4.909  0.00  0.00    +0.119 HD
ENDBRANCH   1   2
BRANCH   1   5
ATOM      5  C   LYS A  1       23.627 -24.591   6.448  0.00  0.00    +0.322 C 
ATOM      6  O   LYS A  1       23.725 -25.802   6.369  0.00  0.00    -0.249 OA
BRANCH   5   7
ATOM      7  OXT LYS A  1       22.441 -23.982   6.701  0.00  0.00    -0.479 OA
ATOM      8  HXT LYS A  1       22.445 -23.563   7.578  0.00  0.00    +0.295 HD
ENDBRANCH   5   7
ENDBRANCH   1   5
BRANCH   1   9
ATOM      9  CB  LYS A  1       24.796 -22.515   7.351  0.00  0.00    +0.030 C 
BRANCH   9  10
ATOM     10  CG  LYS A  1       24.742 -21.085   6.794  0.00  0.00    +0.003 C 
BRANCH  10  11
ATOM     11  CD  LYS A  1       23.339 -20.471   6.902  0.00  0.00    +0.015 C 
BRANCH  11  12
ATOM     12  CE  LYS A  1       22.686 -20.234   5.536  0.00  0.00    +0.077 C 
BRANCH  12  13
ATOM     13  NZ  LYS A  1       22.102 -21.456   4.994  0.00  0.00    -0.330 NA
ATOM     14  HZ1 LYS A  1       22.837 -22.139   4.814  0.00  0.00    +0.118 HD
ATOM     15  HZ2 LYS A  1       21.482 -21.877   5.685  0.00  0.00    +0.118 HD
ENDBRANCH  12  13
ENDBRANCH  11  12
ENDBRANCH  10  11
ENDBRANCH   9  10
ENDBRANCH   1   9
TORSDOF 8
ENDMDL
MODEL 6
REMARK VINA RESULT:      -5.4      3.470      3.723
REMARK  Name = *****
REMARK                            x       y       z     vdW  Elec       q    Type
REMARK                         _______ _______ _______ _____ _____    ______ ____
ROOT
ATOM      1  CA  LYS A  1       31.707 -18.502   8.517  0.00  0.00    +0.161 C 
ENDROOT
BRANCH   1   2
ATOM      2  N   LYS A  1       31.919 -19.853   9.078  0.00  0.00    -0.318 NA
ATOM      3  H1  LYS A  1       32.489 -19.841   9.919  0.00  0.00    +0.119 HD
ATOM      4  H2  LYS A  1       31.056 -20.380   9.181  0.00  0.00    +0.119 HD
ENDBRANCH   1   2
BRANCH   1   5
ATOM      5  C   LYS A  1       32.295 -17.395   9.418  0.00  0.00    +0.322 C 
ATOM      6  O   LYS A  1       32.513 -17.526  10.609  0.00  0.00    -0.249 OA
BRANCH   5   7
ATOM      7  OXT LYS A  1       32.553 -16.234   8.765  0.00  0.00    -0.479 OA
ATOM      8  HXT LYS A  1       31.731 -15.830   8.438  0.00  0.00    +0.295 HD
ENDBRANCH   5   7
ENDBRANCH   1   5
BRANCH   1   9
ATOM      9  CB  LYS A  1       30.219 -18.247   8.213  0.00  0.00    +0.030 C 
BRANCH   9  10
ATOM     10  CG  LYS A  1       29.424 -19.514   7.865  0.00  0.00    +0.003 C 
BRANCH  10  11
ATOM     11  CD  LYS A  1       28.957 -19.525   6.404  0.00  0.00    +0.015 C 
BRANCH  11  12
ATOM     12  CE  LYS A  1       27.615 -20.241   6.212  0.00  0.00    +0.077 C 
BRANCH  12  13
ATOM     13  NZ  LYS A  1       27.068 -20.022   4.878  0.00  0.00    -0.330 NA
ATOM     14  HZ1 LYS A  1       27.321 -20.800   4.270  0.00  0.00    +0.118 HD
ATOM     15  HZ2 LYS A  1       26.050 -20.010   4.921  0.00  0.00    +0.118 HD
ENDBRANCH  12  13
ENDBRANCH  11  12
ENDBRANCH  10  11
ENDBRANCH   9  10
ENDBRANCH   1   9
TORSDOF 8
ENDMDL
MODEL 7
REMARK VINA RESULT:      -5.3      2.891      3.060
REMARK  Name = *****
REMARK                            x       y       z     vdW  Elec       q    Type
REMARK                         _______ _______ _______ _____ _____    ______ ____
ROOT
ATOM      1  CA  LYS A  1       31.307 -19.135   7.512  0.00  0.00    +0.161 C 
ENDROOT
BRANCH   1   2
ATOM      2  N   LYS A  1       31.469 -20.588   7.728  0.00  0.00    -0.318 NA
ATOM      3  H1  LYS A  1       31.495 -20.835   8.714  0.00  0.00    +0.119 HD
ATOM      4  H2  LYS A  1       30.813 -21.146   7.189  0.00  0.00    +0.119 HD
ENDBRANCH   1   2
BRANCH   1   5
ATOM      5  C   LYS A  1       31.893 -18.301   8.670  0.00  0.00    +0.322 C 
ATOM      6  O   LYS A  1       32.003 -18.702   9.815  0.00  0.00    -0.249 OA
BRANCH   5   7
ATOM      7  OXT LYS A  1       32.282 -17.053   8.307  0.00  0.00    -0.479 OA
ATOM      8  HXT LYS A  1       31.683 -16.684   7.635  0.00  0.00    +0.295 HD
ENDBRANCH   5   7
ENDBRANCH   1   5
BRANCH   1   9
ATOM      9  CB  LYS A  1       29.835 -18.769   7.244  0.00  0.00    +0.030 C 
BRANCH   9  10
ATOM     10  CG  LYS A  1       29.062 -19.822   6.437  0.00  0.00    +0.003 C 
BRANCH  10  11
ATOM     11  CD  LYS A  1       27.806 -20.310   7.170  0.00  0.00    +0.015 C 
BRANCH  11  12
ATOM     12  CE  LYS A  1       26.592 -20.451   6.244  0.00  0.00    +0.077 C 
BRANCH  12  13
ATOM     13  NZ  LYS A  1       26.922 -20.117   4.863  0.00  0.00    -0.330 NA
ATOM     14  HZ1 LYS A  1       26.977 -19.104   4.758  0.00  0.00    +0.118 HD
ATOM     15  HZ2 LYS A  1       27.844 -20.481   4.631  0.00  0.00    +0.118 HD
ENDBRANCH  12  13
ENDBRANCH  11  12
ENDBRANCH  10  11
ENDBRANCH   9  10
ENDBRANCH   1   9
TORSDOF 8
ENDMDL
MODEL 8
REMARK VINA RESULT:      -5.2      4.123      4.995
REMARK  Name = *****
REMARK                            x       y       z     vdW  Elec       q    Type
REMARK                         _______ _______ _______ _____ _____    ______ ____
ROOT
ATOM      1  CA  LYS A  1       31.338 -17.836   9.977  0.00  0.00    +0.161 C 
ENDROOT
BRANCH   1   2
ATOM      2  N   LYS A  1       30.880 -18.194  11.336  0.00  0.00    -0.318 NA
ATOM      3  H1  LYS A  1       29.868 -18.236  11.408  0.00  0.00    +0.119 HD
ATOM      4  H2  LYS A  1       31.347 -19.016  11.709  0.00  0.00    +0.119 HD
ENDBRANCH   1   2
BRANCH   1   5
ATOM      5  C   LYS A  1       32.266 -16.604   9.977  0.00  0.00    +0.322 C 
ATOM      6  O   LYS A  1       32.652 -16.037  10.984  0.00  0.00    -0.249 OA
BRANCH   5   7
ATOM      7  OXT LYS A  1       32.624 -16.185   8.737  0.00  0.00    -0.479 OA
ATOM      8  HXT LYS A  1       32.019 -15.496   8.414  0.00  0.00    +0.295 HD
ENDBRANCH   5   7
ENDBRANCH   1   5
BRANCH   1   9
ATOM      9  CB  LYS A  1       30.148 -17.645   9.017  0.00  0.00    +0.030 C 
BRANCH   9  10
ATOM     10  CG  LYS A  1       30.009 -18.751   7.961  0.00  0.00    +0.003 C 
BRANCH  10  11
ATOM     11  CD  LYS A  1       31.220 -19.694   7.943  0.00  0.00    +0.015 C 
BRANCH  11  12
ATOM     12  CE  LYS A  1       30.938 -21.039   8.620  0.00  0.00    +0.077 C 
BRANCH  12  13
ATOM     13  NZ  LYS A  1       32.058 -21.476   9.446  0.00  0.00    -0.330 NA
ATOM     14  HZ1 LYS A  1       32.750 -20.730   9.511  0.00  0.00    +0.118 HD
ATOM     15  HZ2 LYS A  1       31.736 -21.654  10.396  0.00  0.00    +0.118 HD
ENDBRANCH  12  13
ENDBRANCH  11  12
ENDBRANCH  10  11
ENDBRANCH   9  10
ENDBRANCH   1   9
TORSDOF 8
ENDMDL
MODEL 9
REMARK VINA RESULT:      -5.2      3.478      4.129
REMARK  Name = *****
REMARK                            x       y       z     vdW  Elec       q    Type
REMARK                         _______ _______ _______ _____ _____    ______ ____
ROOT
ATOM      1  CA  LYS A  1       31.135 -17.479   8.974  0.00  0.00    +0.161 C 
ENDROOT
BRANCH   1   2
ATOM      2  N   LYS A  1       32.335 -16.647   8.743  0.00  0.00    -0.318 NA
ATOM      3  H1  LYS A  1       32.218 -15.693   9.074  0.00  0.00    +0.119 HD
ATOM      4  H2  LYS A  1       33.191 -17.086   9.068  0.00  0.00    +0.119 HD
ENDBRANCH   1   2
BRANCH   1   5
ATOM      5  C   LYS A  1       30.620 -17.372  10.425  0.00  0.00    +0.322 C 
ATOM      6  O   LYS A  1       30.256 -16.334  10.947  0.00  0.00    -0.249 OA
BRANCH   5   7
ATOM      7  OXT LYS A  1       30.608 -18.553  11.092  0.00  0.00    -0.479 OA
ATOM      8  HXT LYS A  1       29.801 -18.643  11.626  0.00  0.00    +0.295 HD
ENDBRANCH   5   7
ENDBRANCH   1   5
BRANCH   1   9
ATOM      9  CB  LYS A  1       31.382 -18.944   8.571  0.00  0.00    +0.030 C 
BRANCH   9  10
ATOM     10  CG  LYS A  1       31.151 -19.233   7.081  0.00  0.00    +0.003 C 
BRANCH  10  11
ATOM     11  CD  LYS A  1       29.727 -18.877   6.632  0.00  0.00    +0.015 C 
BRANCH  11  12
ATOM     12  CE  LYS A  1       28.838 -20.110   6.435  0.00  0.00    +0.077 C 
BRANCH  12  13
ATOM     13  NZ  LYS A  1       27.961 -19.967   5.279  0.00  0.00    -0.330 NA
ATOM     14  HZ1 LYS A  1       28.110 -20.744   4.635  0.00  0.00    +0.118 HD
ATOM     15  HZ2 LYS A  1       26.988 -20.023   5.576  0.00  0.00    +0.118 HD
ENDBRANCH  12  13
ENDBRANCH  11  12
ENDBRANCH  10  11
ENDBRANCH   9  10
ENDBRANCH   1   9
TORSDOF 8
ENDMDL
