MODEL 1
REMARK VINA RESULT:      -3.8      0.000      0.000
REMARK  Name = *****
REMARK                            x       y       z     vdW  Elec       q    Type
REMARK                         _______ _______ _______ _____ _____    ______ ____
ROOT
ATOM      1  C   LIG    1       25.319 -15.443   3.634  0.00  0.00    +0.125 A 
ATOM      2  C   LIG    1       24.088 -14.911   4.023  0.00  0.00    +0.069 A 
ATOM      3 CL   LIG    1       23.758 -13.220   4.142  0.00  0.00    -0.082 Cl
ATOM      4  C   LIG    1       23.028 -15.779   4.341  0.00  0.00    +0.046 A 
ATOM      5  C   LIG    1       23.161 -17.173   4.255  0.00  0.00    +0.056 A 
ATOM      6  N   LIG    1       22.107 -17.979   4.681  0.00  0.00    -0.328 N 
ATOM      7  H   LIG    1       21.189 -17.555   4.577  0.00  0.00    +0.147 HD
ATOM      8  C   LIG    1       22.121 -19.391   4.382  0.00  0.00    +0.209 C 
ATOM      9  N   LIG    1       23.383 -19.964   4.790  0.00  0.00    -0.173 NA
ATOM     10  H   LIG    1       23.381 -20.982   4.793  0.00  0.00    +0.150 HD
ATOM     11  S   LIG    1       24.642 -19.407   3.840  0.00  0.00    +0.062 S 
ATOM     12  O   LIG    1       24.382 -19.847   2.487  0.00  0.00    -0.153 OA
ATOM     13  O   LIG    1       25.871 -19.740   4.523  0.00  0.00    -0.153 OA
ATOM     14  C   LIG    1       24.413 -17.668   3.889  0.00  0.00    +0.128 A 
ATOM     15  C   LIG    1       25.490 -16.831   3.576  0.00  0.00    +0.060 A 
ENDROOT
BRANCH   1  16
ATOM     16  S   LIG    1       26.696 -14.412   3.244  0.00  0.00    +0.057 S 
ATOM     17  O   LIG    1       26.874 -14.368   1.812  0.00  0.00    -0.153 OA
ATOM     18  O   LIG    1       26.616 -13.208   4.039  0.00  0.00    -0.153 OA
BRANCH  16  19
ATOM     19  N   LIG    1       27.999 -15.255   3.885  0.00  0.00    -0.203 NA
ATOM     20  H   LIG    1       28.091 -16.156   3.414  0.00  0.00    +0.144 HD
ATOM     21  H   LIG    1       28.840 -14.678   3.838  0.00  0.00    +0.144 HD
ENDBRANCH  16  19
ENDBRANCH   1  16
TORSDOF 2
ENDMDL
MODEL 2
REMARK VINA RESULT:      -3.3      2.261      5.113
REMARK  Name = *****
REMARK                            x       y       z     vdW  Elec       q    Type
REMARK                         _______ _______ _______ _____ _____    ______ ____
ROOT
ATOM      1  C   LIG    1       24.572 -17.664   3.835  0.00  0.00    +0.125 A 
ATOM      2  C   LIG    1       23.295 -17.267   4.235  0.00  0.00    +0.069 A 
ATOM      3 CL   LIG    1       22.028 -18.363   4.655  0.00  0.00    -0.082 Cl
ATOM      4  C   LIG    1       22.989 -15.896   4.313  0.00  0.00    +0.046 A 
ATOM      5  C   LIG    1       23.942 -14.908   4.026  0.00  0.00    +0.056 A 
ATOM      6  N   LIG    1       23.548 -13.571   4.024  0.00  0.00    -0.328 N 
ATOM      7  H   LIG    1       22.783 -13.361   4.659  0.00  0.00    +0.147 HD
ATOM      8  C   LIG    1       24.547 -12.531   3.971  0.00  0.00    +0.209 C 
ATOM      9  N   LIG    1       25.457 -12.784   2.877  0.00  0.00    -0.173 NA
ATOM     10  H   LIG    1       26.058 -11.991   2.662  0.00  0.00    +0.150 HD
ATOM     11  S   LIG    1       26.397 -14.138   3.165  0.00  0.00    +0.062 S 
ATOM     12  O   LIG    1       27.195 -13.862   4.340  0.00  0.00    -0.153 OA
ATOM     13  O   LIG    1       27.002 -14.512   1.907  0.00  0.00    -0.153 OA
ATOM     14  C   LIG    1       25.199 -15.343   3.605  0.00  0.00    +0.128 A 
ATOM     15  C   LIG    1       25.531 -16.699   3.506  0.00  0.00    +0.060 A 
ENDROOT
BRANCH   1  16
ATOM     16  S   LIG    1       25.015 -19.366   3.693  0.00  0.00    +0.057 S 
ATOM     17  O   LIG    1       24.141 -20.162   4.521  0.00  0.00    -0.153 OA
ATOM     18  O   LIG    1       25.234 -19.675   2.299  0.00  0.00    -0.153 OA
BRANCH  16  19
ATOM     19  N   LIG    1       26.546 -19.422   4.382  0.00  0.00    -0.203 NA
ATOM     20  H   LIG    1       26.598 -18.759   5.157  0.00  0.00    +0.144 HD
ATOM     21  H   LIG    1       26.771 -20.382   4.645  0.00  0.00    +0.144 HD
ENDBRANCH  16  19
ENDBRANCH   1  16
TORSDOF 2
ENDMDL
MODEL 3
REMARK VINA RESULT:      -2.8      0.883      1.106
REMARK  Name = *****
REMARK                            x       y       z     vdW  Elec       q    Type
REMARK                         _______ _______ _______ _____ _____    ______ ____
ROOT
ATOM      1  C   LIG    1       25.366 -15.305   3.736  0.00  0.00    +0.125 A 
ATOM      2  C   LIG    1       24.113 -14.753   4.008  0.00  0.00    +0.069 A 
ATOM      3 CL   LIG    1       23.802 -13.056   4.096  0.00  0.00    -0.082 Cl
ATOM      4  C   LIG    1       23.014 -15.602   4.228  0.00  0.00    +0.046 A 
ATOM      5  C   LIG    1       23.131 -16.998   4.155  0.00  0.00    +0.056 A 
ATOM      6  N   LIG    1       22.030 -17.787   4.482  0.00  0.00    -0.328 N 
ATOM      7  H   LIG    1       21.133 -17.348   4.293  0.00  0.00    +0.147 HD
ATOM      8  C   LIG    1       22.048 -19.199   4.186  0.00  0.00    +0.209 C 
ATOM      9  N   LIG    1       23.257 -19.792   4.709  0.00  0.00    -0.173 NA
ATOM     10  H   LIG    1       23.239 -20.810   4.712  0.00  0.00    +0.150 HD
ATOM     11  S   LIG    1       24.609 -19.257   3.879  0.00  0.00    +0.062 S 
ATOM     12  O   LIG    1       24.468 -19.696   2.508  0.00  0.00    -0.153 OA
ATOM     13  O   LIG    1       25.763 -19.609   4.673  0.00  0.00    -0.153 OA
ATOM     14  C   LIG    1       24.404 -17.515   3.906  0.00  0.00    +0.128 A 
ATOM     15  C   LIG    1       25.519 -16.696   3.694  0.00  0.00    +0.060 A 
ENDROOT
BRANCH   1  16
ATOM     16  S   LIG    1       26.790 -14.298   3.474  0.00  0.00    +0.057 S 
ATOM     17  O   LIG    1       26.611 -13.028   4.135  0.00  0.00    -0.153 OA
ATOM     18  O   LIG    1       27.973 -15.103   3.678  0.00  0.00    -0.153 OA
BRANCH  16  19
ATOM     19  N   LIG    1       26.757 -14.011   1.820  0.00  0.00    -0.203 NA
ATOM     20  H   LIG    1       26.125 -14.674   1.368  0.00  0.00    +0.144 HD
ATOM     21  H   LIG    1       26.522 -13.034   1.644  0.00  0.00    +0.144 HD
ENDBRANCH  16  19
ENDBRANCH   1  16
TORSDOF 2
ENDMDL
MODEL 4
REMARK VINA RESULT:      -2.7      2.443      2.961
REMARK  Name = *****
REMARK                            x       y       z     vdW  Elec       q    Type
REMARK                         _______ _______ _______ _____ _____    ______ ____
ROOT
ATOM      1  C   LIG    1       24.665 -15.570   3.861  0.00  0.00    +0.125 A 
ATOM      2  C   LIG    1       25.907 -16.027   3.415  0.00  0.00    +0.069 A 
ATOM      3 CL   LIG    1       27.226 -14.993   2.999  0.00  0.00    -0.082 Cl
ATOM      4  C   LIG    1       26.131 -17.409   3.289  0.00  0.00    +0.046 A 
ATOM      5  C   LIG    1       25.148 -18.353   3.624  0.00  0.00    +0.056 A 
ATOM      6  N   LIG    1       25.397 -19.702   3.381  0.00  0.00    -0.328 N 
ATOM      7  H   LIG    1       26.378 -19.960   3.431  0.00  0.00    +0.147 HD
ATOM      8  C   LIG    1       24.514 -20.703   3.932  0.00  0.00    +0.209 C 
ATOM      9  N   LIG    1       23.145 -20.381   3.601  0.00  0.00    -0.173 NA
ATOM     10  H   LIG    1       22.496 -21.143   3.785  0.00  0.00    +0.150 HD
ATOM     11  S   LIG    1       22.631 -19.003   4.400  0.00  0.00    +0.062 S 
ATOM     12  O   LIG    1       22.680 -19.289   5.817  0.00  0.00    -0.153 OA
ATOM     13  O   LIG    1       21.414 -18.566   3.756  0.00  0.00    -0.153 OA
ATOM     14  C   LIG    1       23.911 -17.858   4.041  0.00  0.00    +0.128 A 
ATOM     15  C   LIG    1       23.654 -16.489   4.167  0.00  0.00    +0.060 A 
ENDROOT
BRANCH   1  16
ATOM     16  S   LIG    1       24.309 -13.849   4.020  0.00  0.00    +0.057 S 
ATOM     17  O   LIG    1       24.285 -13.239   2.713  0.00  0.00    -0.153 OA
ATOM     18  O   LIG    1       23.222 -13.684   4.959  0.00  0.00    -0.153 OA
BRANCH  16  19
ATOM     19  N   LIG    1       25.656 -13.253   4.827  0.00  0.00    -0.203 NA
ATOM     20  H   LIG    1       25.823 -12.285   4.548  0.00  0.00    +0.144 HD
ATOM     21  H   LIG    1       25.538 -13.378   5.833  0.00  0.00    +0.144 HD
ENDBRANCH  16  19
ENDBRANCH   1  16
TORSDOF 2
ENDMDL
MODEL 5
REMARK VINA RESULT:      -2.5      2.185      5.141
REMARK  Name = *****
REMARK                            x       y       z     vdW  Elec       q    Type
REMARK                         _______ _______ _______ _____ _____    ______ ____
ROOT
ATOM      1  C   LIG    1       24.540 -17.617   3.857  0.00  0.00    +0.125 A 
ATOM      2  C   LIG    1       23.283 -17.228   4.324  0.00  0.00    +0.069 A 
ATOM      3 CL   LIG    1       22.045 -18.331   4.807  0.00  0.00    -0.082 Cl
ATOM      4  C   LIG    1       22.974 -15.859   4.421  0.00  0.00    +0.046 A 
ATOM      5  C   LIG    1       23.904 -14.864   4.087  0.00  0.00    +0.056 A 
ATOM      6  N   LIG    1       23.504 -13.530   4.108  0.00  0.00    -0.328 N 
ATOM      7  H   LIG    1       22.771 -13.326   4.783  0.00  0.00    +0.147 HD
ATOM      8  C   LIG    1       24.493 -12.484   4.005  0.00  0.00    +0.209 C 
ATOM      9  N   LIG    1       25.346 -12.729   2.865  0.00  0.00    -0.173 NA
ATOM     10  H   LIG    1       25.930 -11.933   2.620  0.00  0.00    +0.150 HD
ATOM     11  S   LIG    1       26.307 -14.079   3.101  0.00  0.00    +0.062 S 
ATOM     12  O   LIG    1       27.164 -13.800   4.232  0.00  0.00    -0.153 OA
ATOM     13  O   LIG    1       26.847 -14.447   1.812  0.00  0.00    -0.153 OA
ATOM     14  C   LIG    1       25.141 -15.291   3.599  0.00  0.00    +0.128 A 
ATOM     15  C   LIG    1       25.474 -16.645   3.481  0.00  0.00    +0.060 A 
ENDROOT
BRANCH   1  16
ATOM     16  S   LIG    1       24.984 -19.316   3.688  0.00  0.00    +0.057 S 
ATOM     17  O   LIG    1       26.096 -19.435   2.776  0.00  0.00    -0.153 OA
ATOM     18  O   LIG    1       25.006 -19.923   5.000  0.00  0.00    -0.153 OA
BRANCH  16  19
ATOM     19  N   LIG    1       23.643 -19.990   2.936  0.00  0.00    -0.203 NA
ATOM     20  H   LIG    1       23.946 -20.679   2.246  0.00  0.00    +0.144 HD
ATOM     21  H   LIG    1       23.005 -20.363   3.638  0.00  0.00    +0.144 HD
ENDBRANCH  16  19
ENDBRANCH   1  16
TORSDOF 2
ENDMDL
MODEL 6
REMARK VINA RESULT:      -2.2      2.650      5.750
REMARK  Name = *****
REMARK                            x       y       z     vdW  Elec       q    Type
REMARK                         _______ _______ _______ _____ _____    ______ ____
ROOT
ATOM      1  C   LIG    1       23.919 -17.909   3.923  0.00  0.00    +0.125 A 
ATOM      2  C   LIG    1       25.200 -18.368   3.612  0.00  0.00    +0.069 A 
ATOM      3 CL   LIG    1       25.628 -20.038   3.494  0.00  0.00    -0.082 Cl
ATOM      4  C   LIG    1       26.229 -17.440   3.372  0.00  0.00    +0.046 A 
ATOM      5  C   LIG    1       26.001 -16.056   3.409  0.00  0.00    +0.056 A 
ATOM      6  N   LIG    1       27.082 -15.190   3.262  0.00  0.00    -0.328 N 
ATOM      7  H   LIG    1       27.837 -15.559   2.691  0.00  0.00    +0.147 HD
ATOM      8  C   LIG    1       26.847 -13.781   3.056  0.00  0.00    +0.209 C 
ATOM      9  N   LIG    1       25.944 -13.283   4.068  0.00  0.00    -0.173 NA
ATOM     10  H   LIG    1       25.895 -12.267   4.101  0.00  0.00    +0.150 HD
ATOM     11  S   LIG    1       24.405 -13.913   3.876  0.00  0.00    +0.062 S 
ATOM     12  O   LIG    1       23.914 -13.457   2.594  0.00  0.00    -0.153 OA
ATOM     13  O   LIG    1       23.683 -13.654   5.101  0.00  0.00    -0.153 OA
ATOM     14  C   LIG    1       24.714 -15.635   3.748  0.00  0.00    +0.128 A 
ATOM     15  C   LIG    1       23.673 -16.534   4.003  0.00  0.00    +0.060 A 
ENDROOT
BRANCH   1  16
ATOM     16  S   LIG    1       22.589 -19.020   4.258  0.00  0.00    +0.057 S 
ATOM     17  O   LIG    1       21.332 -18.348   4.030  0.00  0.00    -0.153 OA
ATOM     18  O   LIG    1       22.889 -20.299   3.657  0.00  0.00    -0.153 OA
BRANCH  16  19
ATOM     19  N   LIG    1       22.722 -19.288   5.910  0.00  0.00    -0.203 NA
ATOM     20  H   LIG    1       22.766 -18.394   6.401  0.00  0.00    +0.144 HD
ATOM     21  H   LIG    1       21.962 -19.893   6.223  0.00  0.00    +0.144 HD
ENDBRANCH  16  19
ENDBRANCH   1  16
TORSDOF 2
ENDMDL
MODEL 7
REMARK VINA RESULT:      -2.2      2.739      5.765
REMARK  Name = *****
REMARK                            x       y       z     vdW  Elec       q    Type
REMARK                         _______ _______ _______ _____ _____    ______ ____
ROOT
ATOM      1  C   LIG    1       23.832 -17.811   4.034  0.00  0.00    +0.125 A 
ATOM      2  C   LIG    1       25.088 -18.306   3.678  0.00  0.00    +0.069 A 
ATOM      3 CL   LIG    1       25.478 -19.987   3.592  0.00  0.00    -0.082 Cl
ATOM      4  C   LIG    1       26.122 -17.407   3.360  0.00  0.00    +0.046 A 
ATOM      5  C   LIG    1       25.923 -16.019   3.364  0.00  0.00    +0.056 A 
ATOM      6  N   LIG    1       27.013 -15.180   3.140  0.00  0.00    -0.328 N 
ATOM      7  H   LIG    1       27.733 -15.582   2.546  0.00  0.00    +0.147 HD
ATOM      8  C   LIG    1       26.796 -13.773   2.901  0.00  0.00    +0.209 C 
ATOM      9  N   LIG    1       25.952 -13.226   3.938  0.00  0.00    -0.173 NA
ATOM     10  H   LIG    1       25.925 -12.209   3.941  0.00  0.00    +0.150 HD
ATOM     11  S   LIG    1       24.394 -13.829   3.839  0.00  0.00    +0.062 S 
ATOM     12  O   LIG    1       23.851 -13.402   2.568  0.00  0.00    -0.153 OA
ATOM     13  O   LIG    1       23.736 -13.517   5.088  0.00  0.00    -0.153 OA
ATOM     14  C   LIG    1       24.663 -15.560   3.750  0.00  0.00    +0.128 A 
ATOM     15  C   LIG    1       23.617 -16.429   4.082  0.00  0.00    +0.060 A 
ENDROOT
BRANCH   1  16
ATOM     16  S   LIG    1       22.498 -18.882   4.466  0.00  0.00    +0.057 S 
ATOM     17  O   LIG    1       22.584 -19.218   5.867  0.00  0.00    -0.153 OA
ATOM     18  O   LIG    1       21.282 -18.370   3.877  0.00  0.00    -0.153 OA
BRANCH  16  19
ATOM     19  N   LIG    1       22.832 -20.279   3.594  0.00  0.00    -0.203 NA
ATOM     20  H   LIG    1       23.596 -20.102   2.940  0.00  0.00    +0.144 HD
ATOM     21  H   LIG    1       23.010 -21.051   4.236  0.00  0.00    +0.144 HD
ENDBRANCH  16  19
ENDBRANCH   1  16
TORSDOF 2
ENDMDL
MODEL 8
REMARK VINA RESULT:      -1.8      2.497      5.781
REMARK  Name = *****
REMARK                            x       y       z     vdW  Elec       q    Type
REMARK                         _______ _______ _______ _____ _____    ______ ____
ROOT
ATOM      1  C   LIG    1       25.095 -17.926   3.739  0.00  0.00    +0.125 A 
ATOM      2  C   LIG    1       26.428 -18.231   4.020  0.00  0.00    +0.069 A 
ATOM      3 CL   LIG    1       27.009 -19.825   4.342  0.00  0.00    -0.082 Cl
ATOM      4  C   LIG    1       27.383 -17.199   4.048  0.00  0.00    +0.046 A 
ATOM      5  C   LIG    1       27.042 -15.866   3.774  0.00  0.00    +0.056 A 
ATOM      6  N   LIG    1       28.013 -14.877   3.916  0.00  0.00    -0.328 N 
ATOM      7  H   LIG    1       28.962 -15.198   3.744  0.00  0.00    +0.147 HD
ATOM      8  C   LIG    1       27.759 -13.548   3.414  0.00  0.00    +0.209 C 
ATOM      9  N   LIG    1       26.488 -13.073   3.911  0.00  0.00    -0.173 NA
ATOM     10  H   LIG    1       26.344 -12.077   3.760  0.00  0.00    +0.150 HD
ATOM     11  S   LIG    1       25.214 -13.931   3.247  0.00  0.00    +0.062 S 
ATOM     12  O   LIG    1       25.239 -13.696   1.821  0.00  0.00    -0.153 OA
ATOM     13  O   LIG    1       24.044 -13.641   4.045  0.00  0.00    -0.153 OA
ATOM     14  C   LIG    1       25.696 -15.596   3.523  0.00  0.00    +0.128 A 
ATOM     15  C   LIG    1       24.720 -16.599   3.499  0.00  0.00    +0.060 A 
ENDROOT
BRANCH   1  16
ATOM     16  S   LIG    1       23.842 -19.168   3.712  0.00  0.00    +0.057 S 
ATOM     17  O   LIG    1       22.542 -18.542   3.728  0.00  0.00    -0.153 OA
ATOM     18  O   LIG    1       24.197 -20.164   2.726  0.00  0.00    -0.153 OA
BRANCH  16  19
ATOM     19  N   LIG    1       24.042 -19.946   5.187  0.00  0.00    -0.203 NA
ATOM     20  H   LIG    1       23.345 -19.607   5.852  0.00  0.00    +0.144 HD
ATOM     21  H   LIG    1       24.022 -20.957   5.049  0.00  0.00    +0.144 HD
ENDBRANCH  16  19
ENDBRANCH   1  16
TORSDOF 2
ENDMDL
MODEL 9
REMARK VINA RESULT:      -1.5      2.506      3.066
REMARK  Name = *****
REMARK                            x       y       z     vdW  Elec       q    Type
REMARK                         _______ _______ _______ _____ _____    ______ ____
ROOT
ATOM      1  C   LIG    1       24.967 -14.908   3.754  0.00  0.00    +0.125 A 
ATOM      2  C   LIG    1       26.243 -15.359   3.410  0.00  0.00    +0.069 A 
ATOM      3 CL   LIG    1       27.596 -14.320   3.137  0.00  0.00    -0.082 Cl
ATOM      4  C   LIG    1       26.476 -16.739   3.273  0.00  0.00    +0.046 A 
ATOM      5  C   LIG    1       25.467 -17.687   3.497  0.00  0.00    +0.056 A 
ATOM      6  N   LIG    1       25.734 -19.031   3.246  0.00  0.00    -0.328 N 
ATOM      7  H   LIG    1       26.707 -19.293   3.378  0.00  0.00    +0.147 HD
ATOM      8  C   LIG    1       24.804 -20.041   3.693  0.00  0.00    +0.209 C 
ATOM      9  N   LIG    1       23.471 -19.707   3.249  0.00  0.00    -0.173 NA
ATOM     10  H   LIG    1       22.807 -20.472   3.357  0.00  0.00    +0.150 HD
ATOM     11  S   LIG    1       22.889 -18.346   4.031  0.00  0.00    +0.062 S 
ATOM     12  O   LIG    1       22.812 -18.664   5.440  0.00  0.00    -0.153 OA
ATOM     13  O   LIG    1       21.735 -17.891   3.290  0.00  0.00    -0.153 OA
ATOM     14  C   LIG    1       24.198 -17.198   3.813  0.00  0.00    +0.128 A 
ATOM     15  C   LIG    1       23.932 -15.830   3.947  0.00  0.00    +0.060 A 
ENDROOT
BRANCH   1  16
ATOM     16  S   LIG    1       24.601 -13.190   3.920  0.00  0.00    +0.057 S 
ATOM     17  O   LIG    1       23.179 -13.015   4.097  0.00  0.00    -0.153 OA
ATOM     18  O   LIG    1       25.560 -12.596   4.822  0.00  0.00    -0.153 OA
BRANCH  16  19
ATOM     19  N   LIG    1       24.998 -12.567   2.412  0.00  0.00    -0.203 NA
ATOM     20  H   LIG    1       24.272 -12.811   1.736  0.00  0.00    +0.144 HD
ATOM     21  H   LIG    1       25.170 -11.564   2.488  0.00  0.00    +0.144 HD
ENDBRANCH  16  19
ENDBRANCH   1  16
TORSDOF 2
ENDMDL
