MODEL 1
REMARK VINA RESULT:      -3.9      0.000      0.000
REMARK  Name = *****
REMARK                            x       y       z     vdW  Elec       q    Type
REMARK                         _______ _______ _______ _____ _____    ______ ____
ROOT
ATOM      1  C   LIG    1       22.046 -17.555   4.156  0.00  0.00    +0.114 C 
ENDROOT
BRANCH   1   2
ATOM      2  C   LIG    1       22.493 -18.947   4.595  0.00  0.00    +0.217 C 
ATOM      3  N   LIG    1       23.545 -19.527   3.903  0.00  0.00    -0.292 N 
ATOM      4  C   LIG    1       24.491 -18.782   3.063  0.00  0.00    +0.184 C 
ATOM      5  C   LIG    1       25.832 -18.817   3.710  0.00  0.00    +0.151 A 
ATOM      6  N   LIG    1       26.879 -18.071   3.441  0.00  0.00    -0.132 NA
ATOM      7  N   LIG    1       27.876 -18.417   4.318  0.00  0.00    -0.125 NA
ATOM      8  C   LIG    1       27.427 -19.369   5.120  0.00  0.00    +0.238 A 
ATOM      9  N   LIG    1       26.157 -19.688   4.722  0.00  0.00    -0.305 N 
ATOM     10  C   LIG    1       25.236 -20.680   5.254  0.00  0.00    +0.144 C 
ATOM     11  C   LIG    1       24.032 -20.844   4.325  0.00  0.00    +0.130 C 
ATOM     12  O   LIG    1       21.990 -19.528   5.565  0.00  0.00    -0.276 OA
BRANCH   8  13
ATOM     13  C   LIG    1       28.142 -19.976   6.270  0.00  0.00    +0.452 C 
ATOM     14  F   LIG    1       27.314 -20.705   7.062  0.00  0.00    -0.163 F 
ATOM     15  F   LIG    1       28.733 -19.043   7.060  0.00  0.00    -0.163 F 
ATOM     16  F   LIG    1       29.132 -20.824   5.878  0.00  0.00    -0.163 F 
ENDBRANCH   8  13
ENDBRANCH   1   2
BRANCH   1  17
ATOM     17  C   LIG    1       22.767 -16.375   4.827  0.00  0.00    +0.064 C 
BRANCH  17  18
ATOM     18  N   LIG    1       21.974 -15.953   6.004  0.00  0.00    -0.327 NA
ATOM     19  H   LIG    1       21.030 -15.694   5.713  0.00  0.00    +0.118 HD
ATOM     20  H   LIG    1       22.367 -15.092   6.389  0.00  0.00    +0.118 HD
ENDBRANCH  17  18
BRANCH  17  21
ATOM     21  C   LIG    1       23.105 -15.178   3.907  0.00  0.00    +0.057 C 
BRANCH  21  22
ATOM     22  C   LIG    1       24.452 -14.522   4.109  0.00  0.00    -0.008 A 
ATOM     23  C   LIG    1       24.537 -13.218   4.617  0.00  0.00    +0.130 A 
ATOM     24  F   LIG    1       23.415 -12.547   4.912  0.00  0.00    -0.205 F 
ATOM     25  C   LIG    1       25.762 -12.593   4.829  0.00  0.00    +0.079 A 
ATOM     26  C   LIG    1       26.929 -13.276   4.516  0.00  0.00    +0.161 A 
ATOM     27  F   LIG    1       28.112 -12.677   4.709  0.00  0.00    -0.202 F 
ATOM     28  C   LIG    1       26.873 -14.570   4.015  0.00  0.00    +0.159 A 
ATOM     29  F   LIG    1       28.003 -15.226   3.716  0.00  0.00    -0.203 F 
ATOM     30  C   LIG    1       25.645 -15.203   3.823  0.00  0.00    +0.048 A 
ENDBRANCH  21  22
ENDBRANCH  17  21
ENDBRANCH   1  17
TORSDOF 6
ENDMDL
MODEL 2
REMARK VINA RESULT:      -1.9      0.761      1.872
REMARK  Name = *****
REMARK                            x       y       z     vdW  Elec       q    Type
REMARK                         _______ _______ _______ _____ _____    ______ ____
ROOT
ATOM      1  C   LIG    1       21.949 -18.211   4.424  0.00  0.00    +0.114 C 
ENDROOT
BRANCH   1   2
ATOM      2  C   LIG    1       22.561 -19.562   4.782  0.00  0.00    +0.217 C 
ATOM      3  N   LIG    1       23.648 -19.988   4.034  0.00  0.00    -0.292 N 
ATOM      4  C   LIG    1       24.478 -19.105   3.206  0.00  0.00    +0.184 C 
ATOM      5  C   LIG    1       25.835 -19.018   3.813  0.00  0.00    +0.151 A 
ATOM      6  N   LIG    1       26.784 -18.148   3.553  0.00  0.00    -0.132 NA
ATOM      7  N   LIG    1       27.841 -18.419   4.385  0.00  0.00    -0.125 NA
ATOM      8  C   LIG    1       27.526 -19.451   5.151  0.00  0.00    +0.238 A 
ATOM      9  N   LIG    1       26.287 -19.893   4.773  0.00  0.00    -0.305 N 
ATOM     10  C   LIG    1       25.499 -21.005   5.281  0.00  0.00    +0.144 C 
ATOM     11  C   LIG    1       24.291 -21.260   4.378  0.00  0.00    +0.130 C 
ATOM     12  O   LIG    1       22.157 -20.240   5.736  0.00  0.00    -0.276 OA
BRANCH   8  13
ATOM     13  C   LIG    1       28.341 -20.027   6.251  0.00  0.00    +0.452 C 
ATOM     14  F   LIG    1       29.391 -20.751   5.785  0.00  0.00    -0.163 F 
ATOM     15  F   LIG    1       27.616 -20.844   7.056  0.00  0.00    -0.163 F 
ATOM     16  F   LIG    1       28.872 -19.070   7.060  0.00  0.00    -0.163 F 
ENDBRANCH   8  13
ENDBRANCH   1   2
BRANCH   1  17
ATOM     17  C   LIG    1       22.768 -16.973   4.827  0.00  0.00    +0.064 C 
BRANCH  17  18
ATOM     18  N   LIG    1       22.058 -16.283   5.928  0.00  0.00    -0.327 NA
ATOM     19  H   LIG    1       22.722 -16.015   6.656  0.00  0.00    +0.118 HD
ATOM     20  H   LIG    1       21.425 -16.940   6.389  0.00  0.00    +0.118 HD
ENDBRANCH  17  18
BRANCH  17  21
ATOM     21  C   LIG    1       23.130 -15.999   3.682  0.00  0.00    +0.057 C 
BRANCH  21  22
ATOM     22  C   LIG    1       24.144 -14.923   3.996  0.00  0.00    -0.008 A 
ATOM     23  C   LIG    1       25.482 -15.073   3.603  0.00  0.00    +0.130 A 
ATOM     24  F   LIG    1       25.863 -16.183   2.957  0.00  0.00    -0.205 F 
ATOM     25  C   LIG    1       26.436 -14.093   3.862  0.00  0.00    +0.079 A 
ATOM     26  C   LIG    1       26.053 -12.944   4.541  0.00  0.00    +0.161 A 
ATOM     27  F   LIG    1       26.968 -12.001   4.803  0.00  0.00    -0.202 F 
ATOM     28  C   LIG    1       24.733 -12.769   4.938  0.00  0.00    +0.159 A 
ATOM     29  F   LIG    1       24.368 -11.658   5.591  0.00  0.00    -0.203 F 
ATOM     30  C   LIG    1       23.775 -13.743   4.658  0.00  0.00    +0.048 A 
ENDBRANCH  21  22
ENDBRANCH  17  21
ENDBRANCH   1  17
TORSDOF 6
ENDMDL
