MODEL 1
REMARK VINA RESULT:      -7.0      0.000      0.000
REMARK  Name = *****
REMARK                            x       y       z     vdW  Elec       q    Type
REMARK                         _______ _______ _______ _____ _____    ______ ____
ROOT
ATOM      1  C   LIG    1       24.466 -21.357   6.204  0.00  0.00    +0.127 C 
ATOM      2  C   LIG    1       24.627 -21.916   4.792  0.00  0.00    +0.234 C 
ATOM      3  O   LIG    1       24.734 -21.223   3.784  0.00  0.00    -0.274 OA
ATOM      4  N   LIG    1       24.762 -23.268   4.701  0.00  0.00    -0.266 N 
ATOM      5  H   LIG    1       24.997 -23.660   3.798  0.00  0.00    +0.157 HD
ATOM      6  C   LIG    1       24.535 -24.089   5.745  0.00  0.00    +0.150 C 
ATOM      7  N   LIG    1       24.083 -23.728   6.890  0.00  0.00    -0.158 NA
ATOM      8  C   LIG    1       23.741 -22.408   7.060  0.00  0.00    +0.254 C 
ATOM      9  O   LIG    1       22.929 -22.081   7.928  0.00  0.00    -0.273 OA
ENDROOT
BRANCH   1  10
ATOM     10  C   LIG    1       25.915 -21.121   6.826  0.00  0.00    +0.010 C 
ATOM     11  C   LIG    1       25.876 -20.561   8.262  0.00  0.00    +0.009 C 
BRANCH  10  12
ATOM     12  C   LIG    1       26.819 -20.207   5.946  0.00  0.00    +0.004 C 
BRANCH  12  14
ATOM     13  C   LIG    1       29.060 -19.022   5.893  0.00  0.00    +0.004 C 
ATOM     14  C   LIG    1       28.310 -20.281   6.303  0.00  0.00    -0.003 C 
ENDBRANCH  12  14
ENDBRANCH  10  12
ENDBRANCH   1  10
BRANCH   1  15
ATOM     15  C   LIG    1       23.646 -20.039   6.149  0.00  0.00    +0.022 C 
ATOM     16  C   LIG    1       22.438 -20.049   5.211  0.00  0.00    +0.005 C 
ENDBRANCH   1  15
BRANCH   6  17
ATOM     17  S   LIG    1       24.928 -25.741   5.424  0.00  0.00    -0.110 S 
ATOM     18  H   LIG    1       24.839 -25.632   4.089  0.00  0.00    +0.110 HD
ENDBRANCH   6  17
TORSDOF 5
ENDMDL
MODEL 2
REMARK VINA RESULT:      -6.8      1.863      3.567
REMARK  Name = *****
REMARK                            x       y       z     vdW  Elec       q    Type
REMARK                         _______ _______ _______ _____ _____    ______ ____
ROOT
ATOM      1  C   LIG    1       25.094 -21.663   6.718  0.00  0.00    +0.127 C 
ATOM      2  C   LIG    1       23.800 -22.326   7.185  0.00  0.00    +0.234 C 
ATOM      3  O   LIG    1       22.851 -21.718   7.674  0.00  0.00    -0.274 OA
ATOM      4  N   LIG    1       23.689 -23.658   6.927  0.00  0.00    -0.266 N 
ATOM      5  H   LIG    1       22.797 -24.101   7.107  0.00  0.00    +0.157 HD
ATOM      6  C   LIG    1       24.730 -24.403   6.506  0.00  0.00    +0.150 C 
ATOM      7  N   LIG    1       25.940 -23.991   6.393  0.00  0.00    -0.158 NA
ATOM      8  C   LIG    1       26.223 -22.706   6.788  0.00  0.00    +0.254 C 
ATOM      9  O   LIG    1       27.368 -22.391   7.115  0.00  0.00    -0.273 OA
ENDROOT
BRANCH   1  10
ATOM     10  C   LIG    1       24.919 -21.220   5.197  0.00  0.00    +0.010 C 
ATOM     11  C   LIG    1       25.910 -20.120   4.767  0.00  0.00    +0.009 C 
BRANCH  10  12
ATOM     12  C   LIG    1       23.469 -20.762   4.854  0.00  0.00    +0.004 C 
BRANCH  12  14
ATOM     13  C   LIG    1       22.234 -18.559   4.629  0.00  0.00    +0.004 C 
ATOM     14  C   LIG    1       23.400 -19.406   4.139  0.00  0.00    -0.003 C 
ENDBRANCH  12  14
ENDBRANCH  10  12
ENDBRANCH   1  10
BRANCH   1  15
ATOM     15  C   LIG    1       25.415 -20.450   7.634  0.00  0.00    +0.022 C 
ATOM     16  C   LIG    1       25.762 -20.790   9.085  0.00  0.00    +0.005 C 
ENDBRANCH   1  15
BRANCH   6  17
ATOM     17  S   LIG    1       24.299 -26.025   6.095  0.00  0.00    -0.110 S 
ATOM     18  H   LIG    1       23.247 -25.685   5.336  0.00  0.00    +0.110 HD
ENDBRANCH   6  17
TORSDOF 5
ENDMDL
MODEL 3
REMARK VINA RESULT:      -6.7      2.683      4.304
REMARK  Name = *****
REMARK                            x       y       z     vdW  Elec       q    Type
REMARK                         _______ _______ _______ _____ _____    ______ ____
ROOT
ATOM      1  C   LIG    1       25.193 -21.770   7.020  0.00  0.00    +0.127 C 
ATOM      2  C   LIG    1       26.301 -21.114   6.200  0.00  0.00    +0.234 C 
ATOM      3  O   LIG    1       27.500 -21.227   6.445  0.00  0.00    -0.274 OA
ATOM      4  N   LIG    1       25.900 -20.460   5.075  0.00  0.00    -0.266 N 
ATOM      5  H   LIG    1       26.616 -20.124   4.443  0.00  0.00    +0.157 HD
ATOM      6  C   LIG    1       24.604 -20.198   4.815  0.00  0.00    +0.150 C 
ATOM      7  N   LIG    1       23.624 -20.432   5.610  0.00  0.00    -0.158 NA
ATOM      8  C   LIG    1       23.912 -20.935   6.855  0.00  0.00    +0.254 C 
ATOM      9  O   LIG    1       23.122 -20.780   7.788  0.00  0.00    -0.273 OA
ENDROOT
BRANCH   1  10
ATOM     10  C   LIG    1       24.919 -23.225   6.431  0.00  0.00    +0.010 C 
ATOM     11  C   LIG    1       23.494 -23.740   6.723  0.00  0.00    +0.009 C 
BRANCH  10  12
ATOM     12  C   LIG    1       25.952 -24.288   6.912  0.00  0.00    +0.004 C 
BRANCH  12  14
ATOM     13  C   LIG    1       25.935 -26.822   6.968  0.00  0.00    +0.004 C 
ATOM     14  C   LIG    1       25.943 -25.581   6.087  0.00  0.00    -0.003 C 
ENDBRANCH  12  14
ENDBRANCH  10  12
ENDBRANCH   1  10
BRANCH   1  15
ATOM     15  C   LIG    1       25.617 -21.827   8.513  0.00  0.00    +0.022 C 
ATOM     16  C   LIG    1       26.050 -20.496   9.130  0.00  0.00    +0.005 C 
ENDBRANCH   1  15
BRANCH   6  17
ATOM     17  S   LIG    1       24.339 -19.504   3.254  0.00  0.00    -0.110 S 
ATOM     18  H   LIG    1       23.198 -20.168   3.016  0.00  0.00    +0.110 HD
ENDBRANCH   6  17
TORSDOF 5
ENDMDL
MODEL 4
REMARK VINA RESULT:      -6.3      2.442      4.202
REMARK  Name = *****
REMARK                            x       y       z     vdW  Elec       q    Type
REMARK                         _______ _______ _______ _____ _____    ______ ____
ROOT
ATOM      1  C   LIG    1       24.098 -21.309   5.851  0.00  0.00    +0.127 C 
ATOM      2  C   LIG    1       24.290 -20.757   7.261  0.00  0.00    +0.234 C 
ATOM      3  O   LIG    1       23.386 -20.639   8.085  0.00  0.00    -0.274 OA
ATOM      4  N   LIG    1       25.575 -20.491   7.625  0.00  0.00    -0.266 N 
ATOM      5  H   LIG    1       25.752 -20.246   8.591  0.00  0.00    +0.157 HD
ATOM      6  C   LIG    1       26.590 -20.484   6.739  0.00  0.00    +0.150 C 
ATOM      7  N   LIG    1       26.469 -20.624   5.469  0.00  0.00    -0.158 NA
ATOM      8  C   LIG    1       25.202 -20.729   4.951  0.00  0.00    +0.254 C 
ATOM      9  O   LIG    1       24.982 -20.433   3.775  0.00  0.00    -0.273 OA
ENDROOT
BRANCH   1  10
ATOM     10  C   LIG    1       24.273 -22.893   5.896  0.00  0.00    +0.010 C 
ATOM     11  C   LIG    1       23.105 -23.614   6.598  0.00  0.00    +0.009 C 
BRANCH  10  12
ATOM     12  C   LIG    1       25.615 -23.343   6.547  0.00  0.00    +0.004 C 
BRANCH  12  14
ATOM     13  C   LIG    1       25.997 -25.744   5.827  0.00  0.00    +0.004 C 
ATOM     14  C   LIG    1       25.632 -24.817   6.977  0.00  0.00    -0.003 C 
ENDBRANCH  12  14
ENDBRANCH  10  12
ENDBRANCH   1  10
BRANCH   1  15
ATOM     15  C   LIG    1       22.695 -20.904   5.322  0.00  0.00    +0.022 C 
ATOM     16  C   LIG    1       22.461 -19.402   5.147  0.00  0.00    +0.005 C 
ENDBRANCH   1  15
BRANCH   6  17
ATOM     17  S   LIG    1       28.143 -20.279   7.469  0.00  0.00    -0.110 S 
ATOM     18  H   LIG    1       27.898 -19.046   7.938  0.00  0.00    +0.110 HD
ENDBRANCH   6  17
TORSDOF 5
ENDMDL
MODEL 5
REMARK VINA RESULT:      -6.1      2.612      3.781
REMARK  Name = *****
REMARK                            x       y       z     vdW  Elec       q    Type
REMARK                         _______ _______ _______ _____ _____    ______ ____
ROOT
ATOM      1  C   LIG    1       24.608 -21.490   6.262  0.00  0.00    +0.127 C 
ATOM      2  C   LIG    1       23.396 -20.881   6.964  0.00  0.00    +0.234 C 
ATOM      3  O   LIG    1       23.082 -21.119   8.127  0.00  0.00    -0.274 OA
ATOM      4  N   LIG    1       22.712 -19.940   6.257  0.00  0.00    -0.266 N 
ATOM      5  H   LIG    1       21.984 -19.426   6.737  0.00  0.00    +0.157 HD
ATOM      6  C   LIG    1       22.929 -19.721   4.945  0.00  0.00    +0.150 C 
ATOM      7  N   LIG    1       23.709 -20.412   4.196  0.00  0.00    -0.158 NA
ATOM      8  C   LIG    1       24.333 -21.504   4.749  0.00  0.00    +0.254 C 
ATOM      9  O   LIG    1       24.723 -22.428   4.033  0.00  0.00    -0.273 OA
ENDROOT
BRANCH   1  10
ATOM     10  C   LIG    1       25.873 -20.559   6.530  0.00  0.00    +0.010 C 
ATOM     11  C   LIG    1       26.667 -20.229   5.250  0.00  0.00    +0.009 C 
BRANCH  10  12
ATOM     12  C   LIG    1       26.848 -21.139   7.598  0.00  0.00    +0.004 C 
BRANCH  12  14
ATOM     13  C   LIG    1       29.377 -21.108   7.770  0.00  0.00    +0.004 C 
ATOM     14  C   LIG    1       28.100 -20.282   7.826  0.00  0.00    -0.003 C 
ENDBRANCH  12  14
ENDBRANCH  10  12
ENDBRANCH   1  10
BRANCH   1  15
ATOM     15  C   LIG    1       24.839 -22.934   6.786  0.00  0.00    +0.022 C 
ATOM     16  C   LIG    1       23.638 -23.877   6.682  0.00  0.00    +0.005 C 
ENDBRANCH   1  15
BRANCH   6  17
ATOM     17  S   LIG    1       22.054 -18.371   4.315  0.00  0.00    -0.110 S 
ATOM     18  H   LIG    1       21.170 -19.108   3.624  0.00  0.00    +0.110 HD
ENDBRANCH   6  17
TORSDOF 5
ENDMDL
MODEL 6
REMARK VINA RESULT:      -6.0      2.539      3.796
REMARK  Name = *****
REMARK                            x       y       z     vdW  Elec       q    Type
REMARK                         _______ _______ _______ _____ _____    ______ ____
ROOT
ATOM      1  C   LIG    1       24.441 -21.861   5.941  0.00  0.00    +0.127 C 
ATOM      2  C   LIG    1       25.414 -23.026   6.106  0.00  0.00    +0.234 C 
ATOM      3  O   LIG    1       25.231 -24.148   5.639  0.00  0.00    -0.274 OA
ATOM      4  N   LIG    1       26.593 -22.734   6.721  0.00  0.00    -0.266 N 
ATOM      5  H   LIG    1       27.309 -23.448   6.733  0.00  0.00    +0.157 HD
ATOM      6  C   LIG    1       26.805 -21.565   7.357  0.00  0.00    +0.150 C 
ATOM      7  N   LIG    1       25.925 -20.650   7.545  0.00  0.00    -0.158 NA
ATOM      8  C   LIG    1       24.642 -20.895   7.121  0.00  0.00    +0.254 C 
ATOM      9  O   LIG    1       23.692 -20.296   7.629  0.00  0.00    -0.273 OA
ENDROOT
BRANCH   1  10
ATOM     10  C   LIG    1       24.800 -21.085   4.596  0.00  0.00    +0.010 C 
ATOM     11  C   LIG    1       25.808 -19.937   4.806  0.00  0.00    +0.009 C 
BRANCH  10  12
ATOM     12  C   LIG    1       23.546 -20.533   3.853  0.00  0.00    +0.004 C 
BRANCH  12  14
ATOM     13  C   LIG    1       22.227 -18.508   4.617  0.00  0.00    +0.004 C 
ATOM     14  C   LIG    1       23.448 -19.001   3.855  0.00  0.00    -0.003 C 
ENDBRANCH  12  14
ENDBRANCH  10  12
ENDBRANCH   1  10
BRANCH   1  15
ATOM     15  C   LIG    1       22.985 -22.400   5.920  0.00  0.00    +0.022 C 
ATOM     16  C   LIG    1       22.685 -23.536   6.900  0.00  0.00    +0.005 C 
ENDBRANCH   1  15
BRANCH   6  17
ATOM     17  S   LIG    1       28.428 -21.368   7.917  0.00  0.00    -0.110 S 
ATOM     18  H   LIG    1       28.359 -22.337   8.843  0.00  0.00    +0.110 HD
ENDBRANCH   6  17
TORSDOF 5
ENDMDL
MODEL 7
REMARK VINA RESULT:      -6.0      2.654      4.587
REMARK  Name = *****
REMARK                            x       y       z     vdW  Elec       q    Type
REMARK                         _______ _______ _______ _____ _____    ______ ____
ROOT
ATOM      1  C   LIG    1       24.985 -21.197   6.713  0.00  0.00    +0.127 C 
ATOM      2  C   LIG    1       25.780 -21.063   8.010  0.00  0.00    +0.234 C 
ATOM      3  O   LIG    1       25.316 -21.277   9.128  0.00  0.00    -0.274 OA
ATOM      4  N   LIG    1       27.107 -20.792   7.869  0.00  0.00    -0.266 N 
ATOM      5  H   LIG    1       27.685 -20.822   8.699  0.00  0.00    +0.157 HD
ATOM      6  C   LIG    1       27.649 -20.429   6.690  0.00  0.00    +0.150 C 
ATOM      7  N   LIG    1       26.995 -20.205   5.609  0.00  0.00    -0.158 NA
ATOM      8  C   LIG    1       25.624 -20.276   5.659  0.00  0.00    +0.254 C 
ATOM      9  O   LIG    1       24.938 -19.674   4.832  0.00  0.00    -0.273 OA
ENDROOT
BRANCH   1  10
ATOM     10  C   LIG    1       25.103 -22.700   6.197  0.00  0.00    +0.010 C 
ATOM     11  C   LIG    1       24.815 -22.850   4.690  0.00  0.00    +0.009 C 
BRANCH  10  12
ATOM     12  C   LIG    1       24.201 -23.693   6.990  0.00  0.00    +0.004 C 
BRANCH  12  14
ATOM     13  C   LIG    1       25.439 -25.875   6.620  0.00  0.00    +0.004 C 
ATOM     14  C   LIG    1       24.149 -25.103   6.384  0.00  0.00    -0.003 C 
ENDBRANCH  12  14
ENDBRANCH  10  12
ENDBRANCH   1  10
BRANCH   1  15
ATOM     15  C   LIG    1       23.507 -20.792   6.965  0.00  0.00    +0.022 C 
ATOM     16  C   LIG    1       22.601 -20.789   5.733  0.00  0.00    +0.005 C 
ENDBRANCH   1  15
BRANCH   6  17
ATOM     17  S   LIG    1       29.371 -20.297   6.734  0.00  0.00    -0.110 S 
ATOM     18  H   LIG    1       29.589 -21.598   6.981  0.00  0.00    +0.110 HD
ENDBRANCH   6  17
TORSDOF 5
ENDMDL
MODEL 8
REMARK VINA RESULT:      -5.8      2.937      4.321
REMARK  Name = *****
REMARK                            x       y       z     vdW  Elec       q    Type
REMARK                         _______ _______ _______ _____ _____    ______ ____
ROOT
ATOM      1  C   LIG    1       25.657 -21.417   6.098  0.00  0.00    +0.127 C 
ATOM      2  C   LIG    1       26.088 -20.549   4.918  0.00  0.00    +0.234 C 
ATOM      3  O   LIG    1       25.412 -20.375   3.907  0.00  0.00    -0.274 OA
ATOM      4  N   LIG    1       27.249 -19.858   5.082  0.00  0.00    -0.266 N 
ATOM      5  H   LIG    1       27.498 -19.178   4.374  0.00  0.00    +0.157 HD
ATOM      6  C   LIG    1       28.093 -20.093   6.106  0.00  0.00    +0.150 C 
ATOM      7  N   LIG    1       27.965 -21.031   6.972  0.00  0.00    -0.158 NA
ATOM      8  C   LIG    1       26.922 -21.912   6.820  0.00  0.00    +0.254 C 
ATOM      9  O   LIG    1       26.980 -23.039   7.314  0.00  0.00    -0.273 OA
ENDROOT
BRANCH   1  10
ATOM     10  C   LIG    1       24.824 -20.516   7.115  0.00  0.00    +0.010 C 
ATOM     11  C   LIG    1       25.192 -20.768   8.591  0.00  0.00    +0.009 C 
BRANCH  10  12
ATOM     12  C   LIG    1       23.282 -20.660   6.942  0.00  0.00    +0.004 C 
BRANCH  12  14
ATOM     13  C   LIG    1       21.983 -20.616   4.766  0.00  0.00    +0.004 C 
ATOM     14  C   LIG    1       22.699 -19.788   5.823  0.00  0.00    -0.003 C 
ENDBRANCH  12  14
ENDBRANCH  10  12
ENDBRANCH   1  10
BRANCH   1  15
ATOM     15  C   LIG    1       24.820 -22.618   5.580  0.00  0.00    +0.022 C 
ATOM     16  C   LIG    1       24.352 -23.609   6.647  0.00  0.00    +0.005 C 
ENDBRANCH   1  15
BRANCH   6  17
ATOM     17  S   LIG    1       29.413 -18.981   6.184  0.00  0.00    -0.110 S 
ATOM     18  H   LIG    1       29.296 -18.560   4.915  0.00  0.00    +0.110 HD
ENDBRANCH   6  17
TORSDOF 5
ENDMDL
MODEL 9
REMARK VINA RESULT:      -5.8      1.453      3.771
REMARK  Name = *****
REMARK                            x       y       z     vdW  Elec       q    Type
REMARK                         _______ _______ _______ _____ _____    ______ ____
ROOT
ATOM      1  C   LIG    1       25.125 -21.804   6.739  0.00  0.00    +0.127 C 
ATOM      2  C   LIG    1       25.914 -22.706   7.685  0.00  0.00    +0.234 C 
ATOM      3  O   LIG    1       26.500 -22.308   8.689  0.00  0.00    -0.274 OA
ATOM      4  N   LIG    1       25.850 -24.041   7.425  0.00  0.00    -0.266 N 
ATOM      5  H   LIG    1       26.254 -24.675   8.103  0.00  0.00    +0.157 HD
ATOM      6  C   LIG    1       25.330 -24.531   6.282  0.00  0.00    +0.150 C 
ATOM      7  N   LIG    1       24.933 -23.827   5.285  0.00  0.00    -0.158 NA
ATOM      8  C   LIG    1       25.102 -22.466   5.350  0.00  0.00    +0.254 C 
ATOM      9  O   LIG    1       25.158 -21.794   4.318  0.00  0.00    -0.273 OA
ENDROOT
BRANCH   1  10
ATOM     10  C   LIG    1       23.625 -21.701   7.266  0.00  0.00    +0.010 C 
ATOM     11  C   LIG    1       22.743 -22.887   6.826  0.00  0.00    +0.009 C 
BRANCH  10  12
ATOM     12  C   LIG    1       22.923 -20.368   6.867  0.00  0.00    +0.004 C 
BRANCH  12  14
ATOM     13  C   LIG    1       22.468 -19.011   4.775  0.00  0.00    +0.004 C 
ATOM     14  C   LIG    1       22.347 -20.372   5.445  0.00  0.00    -0.003 C 
ENDBRANCH  12  14
ENDBRANCH  10  12
ENDBRANCH   1  10
BRANCH   1  15
ATOM     15  C   LIG    1       25.804 -20.409   6.667  0.00  0.00    +0.022 C 
ATOM     16  C   LIG    1       27.293 -20.414   6.315  0.00  0.00    +0.005 C 
ENDBRANCH   1  15
BRANCH   6  17
ATOM     17  S   LIG    1       25.215 -26.255   6.258  0.00  0.00    -0.110 S 
ATOM     18  H   LIG    1       26.525 -26.469   6.457  0.00  0.00    +0.110 HD
ENDBRANCH   6  17
TORSDOF 5
ENDMDL
