MODEL 1
REMARK VINA RESULT:      47.7      0.000      0.000
REMARK  Name = *****
REMARK                            x       y       z     vdW  Elec       q    Type
REMARK                         _______ _______ _______ _____ _____    ______ ____
ROOT
ATOM      1  P   LIG    1       25.382 -14.328   4.559  0.00  0.00    +0.483 P 
ATOM      2  O   LIG    1       25.315 -15.737   4.063  0.00  0.00    -0.227 OA
ENDROOT
BRANCH   1   3
ATOM      3  O   LIG    1       24.529 -13.423   3.554  0.00  0.00    -0.302 OA
ATOM      4  H   LIG    1       23.715 -13.134   4.015  0.00  0.00    +0.222 HD
ENDBRANCH   1   3
BRANCH   1   5
ATOM      5  O   LIG    1       26.835 -13.688   4.498  0.00  0.00    -0.186 OA
BRANCH   5   6
ATOM      6  P   LIG    1       27.341 -12.681   5.622  0.00  0.00    +0.483 P 
ATOM      7  O   LIG    1       28.449 -11.771   5.212  0.00  0.00    -0.227 OA
BRANCH   6   8
ATOM      8  O   LIG    1       25.998 -11.924   6.038  0.00  0.00    -0.302 OA
ATOM      9  H   LIG    1       25.435 -12.422   6.667  0.00  0.00    +0.222 HD
ENDBRANCH   6   8
BRANCH   6  10
ATOM     10  O   LIG    1       27.595 -13.586   6.938  0.00  0.00    -0.284 OA
BRANCH  10  11
ATOM     11  C   LIG    1       27.929 -14.945   6.656  0.00  0.00    +0.206 C 
BRANCH  11  12
ATOM     12  C   LIG    1       28.863 -15.088   5.455  0.00  0.00    +0.178 C 
ATOM     13  C   LIG    1       28.202 -14.975   4.090  0.00  0.00    +0.178 C 
ATOM     14  C   LIG    1       27.682 -16.384   3.830  0.00  0.00    +0.195 C 
ATOM     15  C   LIG    1       28.734 -17.260   4.519  0.00  0.00    +0.253 C 
ATOM     16  O   LIG    1       29.475 -16.395   5.424  0.00  0.00    -0.346 OA
BRANCH  15  17
ATOM     17  N   LIG    1       28.152 -18.387   5.241  0.00  0.00    -0.285 N 
ATOM     18  C   LIG    1       26.831 -18.734   5.303  0.00  0.00    +0.167 A 
ATOM     19  N   LIG    1       25.792 -18.118   4.723  0.00  0.00    -0.216 NA
ATOM     20  C   LIG    1       24.631 -18.727   4.997  0.00  0.00    +0.225 A 
ATOM     21  N   LIG    1       24.435 -19.828   5.747  0.00  0.00    -0.219 NA
ATOM     22  C   LIG    1       25.515 -20.434   6.296  0.00  0.00    +0.147 A 
ATOM     23  C   LIG    1       26.786 -19.874   6.085  0.00  0.00    +0.147 A 
ATOM     24  N   LIG    1       28.053 -20.221   6.512  0.00  0.00    -0.231 NA
ATOM     25  C   LIG    1       28.848 -19.309   5.988  0.00  0.00    +0.203 A 
BRANCH  22  26
ATOM     26  N   LIG    1       25.297 -21.572   7.062  0.00  0.00    -0.341 N 
ATOM     27  H   LIG    1       25.493 -22.428   6.556  0.00  0.00    +0.144 HD
ATOM     28  H   LIG    1       25.705 -21.471   7.983  0.00  0.00    +0.144 HD
ENDBRANCH  22  26
ENDBRANCH  15  17
BRANCH  14  29
ATOM     29  O   LIG    1       27.574 -16.650   2.430  0.00  0.00    -0.385 OA
ATOM     30  H   LIG    1       26.903 -16.017   2.089  0.00  0.00    +0.210 HD
ENDBRANCH  14  29
BRANCH  13  31
ATOM     31  O   LIG    1       29.186 -14.695   3.071  0.00  0.00    -0.386 OA
ATOM     32  H   LIG    1       29.126 -15.391   2.388  0.00  0.00    +0.210 HD
ENDBRANCH  13  31
ENDBRANCH  11  12
ENDBRANCH  10  11
ENDBRANCH   6  10
ENDBRANCH   5   6
ENDBRANCH   1   5
BRANCH   1  33
ATOM     33  O   LIG    1       24.736 -14.060   6.000  0.00  0.00    -0.284 OA
BRANCH  33  34
ATOM     34  C   LIG    1       23.463 -14.615   6.277  0.00  0.00    +0.206 C 
BRANCH  34  35
ATOM     35  C   LIG    1       23.016 -15.626   5.218  0.00  0.00    +0.172 C 
BRANCH  35  36
ATOM     36  O   LIG    1       24.072 -16.590   5.066  0.00  0.00    -0.387 OA
ATOM     37  H   LIG    1       24.870 -16.169   5.451  0.00  0.00    +0.210 HD
ENDBRANCH  35  36
BRANCH  35  38
ATOM     38  C   LIG    1       21.726 -16.403   5.535  0.00  0.00    +0.175 C 
BRANCH  38  39
ATOM     39  O   LIG    1       22.102 -17.769   5.824  0.00  0.00    -0.387 OA
ATOM     40  H   LIG    1       22.996 -17.773   6.204  0.00  0.00    +0.210 HD
ENDBRANCH  38  39
BRANCH  38  41
ATOM     41  C   LIG    1       20.578 -16.316   4.516  0.00  0.00    +0.165 C 
BRANCH  41  42
ATOM     42  O   LIG    1       19.439 -16.956   5.102  0.00  0.00    -0.387 OA
ATOM     43  H   LIG    1       19.570 -17.922   5.069  0.00  0.00    +0.210 HD
ENDBRANCH  41  42
BRANCH  41  44
ATOM     44  C   LIG    1       20.881 -16.786   3.063  0.00  0.00    +0.158 C 
BRANCH  44  62
ATOM     45  C   LIG    1       26.122 -12.799   1.837  0.00  0.00    +0.044 C 
ATOM     46  C   LIG    1       25.094 -13.884   2.006  0.00  0.00    -0.045 A 
ATOM     47  C   LIG    1       23.722 -13.599   2.051  0.00  0.00    -0.045 A 
ATOM     48  C   LIG    1       23.215 -12.180   2.039  0.00  0.00    +0.044 C 
ATOM     49  C   LIG    1       22.796 -14.651   2.208  0.00  0.00    +0.031 A 
ATOM     50  C   LIG    1       23.197 -15.979   2.431  0.00  0.00    +0.069 A 
ATOM     51  C   LIG    1       24.584 -16.253   2.341  0.00  0.00    +0.089 A 
ATOM     52  N   LIG    1       25.119 -17.549   2.459  0.00  0.00    -0.237 NA
ATOM     53  C   LIG    1       24.312 -18.542   2.661  0.00  0.00    +0.171 A 
ATOM     54  C   LIG    1       22.826 -18.329   2.848  0.00  0.00    +0.171 A 
ATOM     55  N   LIG    1       22.096 -19.363   3.124  0.00  0.00    -0.173 NA
ATOM     56  C   LIG    1       22.597 -20.631   3.204  0.00  0.00    +0.350 C 
ATOM     57  O   LIG    1       21.975 -21.546   3.723  0.00  0.00    -0.245 OA
ATOM     58  N   LIG    1       23.840 -20.890   2.717  0.00  0.00    -0.272 N 
ATOM     59  H   LIG    1       24.144 -21.830   2.878  0.00  0.00    +0.173 HD
ATOM     60  C   LIG    1       24.818 -19.950   2.743  0.00  0.00    +0.282 C 
ATOM     61  O   LIG    1       26.009 -20.226   2.883  0.00  0.00    -0.265 OA
ATOM     62  N   LIG    1       22.316 -17.033   2.780  0.00  0.00    -0.320 N 
ATOM     63  C   LIG    1       25.503 -15.216   2.129  0.00  0.00    +0.033 A 
ENDBRANCH  44  62
ENDBRANCH  41  44
ENDBRANCH  38  41
ENDBRANCH  35  38
ENDBRANCH  34  35
ENDBRANCH  33  34
ENDBRANCH   1  33
TORSDOF 21
ENDMDL
