MODEL 1
REMARK VINA RESULT:      -3.1      0.000      0.000
REMARK  Name = *****
REMARK                            x       y       z     vdW  Elec       q    Type
REMARK                         _______ _______ _______ _____ _____    ______ ____
ROOT
ATOM      1  C   LIG    1       25.008 -14.471   3.298  0.00  0.00    +0.024 C 
ATOM      2  C   LIG    1       26.103 -14.939   4.308  0.00  0.00    +0.027 C 
ATOM      3  C   LIG    1       26.328 -13.669   5.151  0.00  0.00    +0.121 C 
ATOM      4  C   LIG    1       26.259 -12.514   4.166  0.00  0.00    +0.063 C 
ATOM      5  C   LIG    1       25.391 -12.991   3.006  0.00  0.00    +0.120 C 
ENDROOT
BRANCH   5   6
ATOM      6  O   LIG    1       26.178 -12.888   1.820  0.00  0.00    -0.391 OA
ATOM      7  H   LIG    1       25.950 -12.067   1.354  0.00  0.00    +0.210 HD
ENDBRANCH   5   6
BRANCH   3   8
ATOM      8  O   LIG    1       27.556 -13.575   5.843  0.00  0.00    -0.391 OA
ATOM      9  H   LIG    1       28.241 -13.282   5.220  0.00  0.00    +0.210 HD
ENDBRANCH   3   8
BRANCH   1  10
ATOM     10  C   LIG    1       23.560 -14.540   3.872  0.00  0.00    +0.014 C 
BRANCH  10  11
ATOM     11  C   LIG    1       23.350 -15.542   5.020  0.00  0.00    +0.075 C 
BRANCH  11  12
ATOM     12  C   LIG    1       22.099 -16.406   4.838  0.00  0.00    +0.133 C 
ATOM     13  O   LIG    1       21.052 -16.089   5.412  0.00  0.00    -0.297 OA
BRANCH  12  14
ATOM     14  C   LIG    1       22.157 -17.707   4.026  0.00  0.00    +0.074 C 
BRANCH  14  15
ATOM     15  C   LIG    1       21.758 -18.953   4.816  0.00  0.00    +0.007 C 
BRANCH  15  16
ATOM     16  C   LIG    1       22.853 -19.678   5.623  0.00  0.00    +0.000 C 
BRANCH  16  17
ATOM     17  C   LIG    1       23.350 -20.988   4.993  0.00  0.00    -0.000 C 
BRANCH  17  18
ATOM     18  C   LIG    1       24.651 -20.846   4.179  0.00  0.00    -0.000 C 
BRANCH  18  20
ATOM     19  C   LIG    1       25.446 -18.637   3.073  0.00  0.00    +0.004 C 
ATOM     20  C   LIG    1       25.335 -19.474   4.341  0.00  0.00    -0.003 C 
ENDBRANCH  18  20
ENDBRANCH  17  18
ENDBRANCH  16  17
ENDBRANCH  15  16
ENDBRANCH  14  15
ENDBRANCH  12  14
ENDBRANCH  11  12
ENDBRANCH  10  11
ENDBRANCH   1  10
BRANCH   2  21
ATOM     21  C   LIG    1       27.377 -15.462   3.615  0.00  0.00    +0.033 C 
BRANCH  21  22
ATOM     22  C   LIG    1       28.344 -16.243   4.474  0.00  0.00    -0.031 C 
ATOM     23  C   LIG    1       28.280 -17.524   4.879  0.00  0.00    -0.031 C 
BRANCH  23  24
ATOM     24  C   LIG    1       29.466 -18.171   5.555  0.00  0.00    +0.027 C 
BRANCH  24  25
ATOM     25  C   LIG    1       29.180 -18.958   6.838  0.00  0.00    +0.015 C 
BRANCH  25  26
ATOM     26  C   LIG    1       27.734 -19.448   6.906  0.00  0.00    +0.121 C 
BRANCH  26  27
ATOM     27  C   LIG    1       27.599 -20.959   6.787  0.00  0.00    +0.305 C 
ATOM     28  O   LIG    1       26.585 -21.565   6.972  0.00  0.00    -0.251 OA
BRANCH  27  29
ATOM     29  O   LIG    1       28.786 -21.558   6.457  0.00  0.00    -0.481 OA
ATOM     30  H   LIG    1       28.700 -22.434   6.055  0.00  0.00    +0.295 HD
ENDBRANCH  27  29
ENDBRANCH  26  27
ENDBRANCH  25  26
ENDBRANCH  24  25
ENDBRANCH  23  24
ENDBRANCH  21  22
ENDBRANCH   2  21
TORSDOF 18
ENDMDL
MODEL 2
REMARK VINA RESULT:      -3.1      1.940      5.178
REMARK  Name = *****
REMARK                            x       y       z     vdW  Elec       q    Type
REMARK                         _______ _______ _______ _____ _____    ______ ____
ROOT
ATOM      1  C   LIG    1       26.394 -15.090   4.027  0.00  0.00    +0.024 C 
ATOM      2  C   LIG    1       25.683 -14.121   3.030  0.00  0.00    +0.027 C 
ATOM      3  C   LIG    1       26.822 -13.152   2.656  0.00  0.00    +0.121 C 
ATOM      4  C   LIG    1       27.596 -12.923   3.944  0.00  0.00    +0.063 C 
ATOM      5  C   LIG    1       27.369 -14.162   4.806  0.00  0.00    +0.120 C 
ENDROOT
BRANCH   5   6
ATOM      6  O   LIG    1       26.790 -13.720   6.033  0.00  0.00    -0.391 OA
ATOM      7  H   LIG    1       26.772 -14.458   6.664  0.00  0.00    +0.210 HD
ENDBRANCH   5   6
BRANCH   3   8
ATOM      8  O   LIG    1       26.442 -11.890   2.149  0.00  0.00    -0.391 OA
ATOM      9  H   LIG    1       27.026 -11.214   2.532  0.00  0.00    +0.210 HD
ENDBRANCH   3   8
BRANCH   1  10
ATOM     10  C   LIG    1       27.195 -16.230   3.325  0.00  0.00    +0.014 C 
BRANCH  10  11
ATOM     11  C   LIG    1       27.157 -17.597   4.030  0.00  0.00    +0.075 C 
BRANCH  11  12
ATOM     12  C   LIG    1       28.393 -17.855   4.896  0.00  0.00    +0.133 C 
ATOM     13  O   LIG    1       29.471 -17.333   4.589  0.00  0.00    -0.297 OA
BRANCH  12  14
ATOM     14  C   LIG    1       28.329 -18.827   6.083  0.00  0.00    +0.074 C 
BRANCH  14  15
ATOM     15  C   LIG    1       29.475 -19.837   6.125  0.00  0.00    +0.007 C 
BRANCH  15  16
ATOM     16  C   LIG    1       29.231 -21.178   6.842  0.00  0.00    +0.000 C 
BRANCH  16  17
ATOM     17  C   LIG    1       27.750 -21.544   7.027  0.00  0.00    -0.000 C 
BRANCH  17  18
ATOM     18  C   LIG    1       26.793 -20.826   6.055  0.00  0.00    -0.000 C 
BRANCH  18  20
ATOM     19  C   LIG    1       24.402 -20.944   7.057  0.00  0.00    +0.004 C 
ATOM     20  C   LIG    1       25.631 -20.095   6.758  0.00  0.00    -0.003 C 
ENDBRANCH  18  20
ENDBRANCH  17  18
ENDBRANCH  16  17
ENDBRANCH  15  16
ENDBRANCH  14  15
ENDBRANCH  12  14
ENDBRANCH  11  12
ENDBRANCH  10  11
ENDBRANCH   1  10
BRANCH   2  21
ATOM     21  C   LIG    1       24.449 -13.427   3.641  0.00  0.00    +0.033 C 
BRANCH  21  22
ATOM     22  C   LIG    1       23.403 -14.325   4.258  0.00  0.00    -0.031 C 
ATOM     23  C   LIG    1       23.128 -15.616   3.999  0.00  0.00    -0.031 C 
BRANCH  23  24
ATOM     24  C   LIG    1       22.181 -16.388   4.887  0.00  0.00    +0.027 C 
BRANCH  24  25
ATOM     25  C   LIG    1       21.880 -17.833   4.477  0.00  0.00    +0.015 C 
BRANCH  25  26
ATOM     26  C   LIG    1       23.133 -18.579   4.022  0.00  0.00    +0.121 C 
BRANCH  26  27
ATOM     27  C   LIG    1       23.058 -20.083   4.241  0.00  0.00    +0.305 C 
ATOM     28  O   LIG    1       22.416 -20.611   5.101  0.00  0.00    -0.251 OA
BRANCH  27  29
ATOM     29  O   LIG    1       23.829 -20.774   3.344  0.00  0.00    -0.481 OA
ATOM     30  H   LIG    1       24.568 -21.261   3.735  0.00  0.00    +0.295 HD
ENDBRANCH  27  29
ENDBRANCH  26  27
ENDBRANCH  25  26
ENDBRANCH  24  25
ENDBRANCH  23  24
ENDBRANCH  21  22
ENDBRANCH   2  21
TORSDOF 18
ENDMDL
MODEL 3
REMARK VINA RESULT:      -3.0      1.900      6.282
REMARK  Name = *****
REMARK                            x       y       z     vdW  Elec       q    Type
REMARK                         _______ _______ _______ _____ _____    ______ ____
ROOT
ATOM      1  C   LIG    1       25.335 -20.073   4.649  0.00  0.00    +0.024 C 
ATOM      2  C   LIG    1       26.783 -19.594   4.312  0.00  0.00    +0.027 C 
ATOM      3  C   LIG    1       27.646 -20.661   5.014  0.00  0.00    +0.121 C 
ATOM      4  C   LIG    1       26.936 -20.956   6.324  0.00  0.00    +0.063 C 
ATOM      5  C   LIG    1       25.463 -20.629   6.097  0.00  0.00    +0.120 C 
ENDROOT
BRANCH   5   6
ATOM      6  O   LIG    1       25.096 -19.644   7.061  0.00  0.00    -0.391 OA
ATOM      7  H   LIG    1       24.668 -18.897   6.612  0.00  0.00    +0.210 HD
ENDBRANCH   5   6
BRANCH   3   8
ATOM      8  O   LIG    1       28.979 -20.302   5.315  0.00  0.00    -0.391 OA
ATOM      9  H   LIG    1       29.568 -20.743   4.682  0.00  0.00    +0.210 HD
ENDBRANCH   3   8
BRANCH   1  10
ATOM     10  C   LIG    1       24.810 -21.190   3.697  0.00  0.00    +0.014 C 
BRANCH  10  11
ATOM     11  C   LIG    1       23.288 -21.417   3.717  0.00  0.00    +0.075 C 
BRANCH  11  12
ATOM     12  C   LIG    1       22.541 -20.375   4.554  0.00  0.00    +0.133 C 
ATOM     13  O   LIG    1       22.329 -20.595   5.751  0.00  0.00    -0.297 OA
BRANCH  12  14
ATOM     14  C   LIG    1       21.975 -19.106   3.902  0.00  0.00    +0.074 C 
BRANCH  14  15
ATOM     15  C   LIG    1       22.154 -17.841   4.740  0.00  0.00    +0.007 C 
BRANCH  15  16
ATOM     16  C   LIG    1       23.214 -16.818   4.288  0.00  0.00    +0.000 C 
BRANCH  16  17
ATOM     17  C   LIG    1       22.901 -15.362   4.668  0.00  0.00    -0.000 C 
BRANCH  17  18
ATOM     18  C   LIG    1       23.575 -14.312   3.765  0.00  0.00    -0.000 C 
BRANCH  18  20
ATOM     19  C   LIG    1       23.853 -11.745   4.029  0.00  0.00    +0.004 C 
ATOM     20  C   LIG    1       24.199 -13.136   4.545  0.00  0.00    -0.003 C 
ENDBRANCH  18  20
ENDBRANCH  17  18
ENDBRANCH  16  17
ENDBRANCH  15  16
ENDBRANCH  14  15
ENDBRANCH  12  14
ENDBRANCH  11  12
ENDBRANCH  10  11
ENDBRANCH   1  10
BRANCH   2  21
ATOM     21  C   LIG    1       27.066 -18.154   4.784  0.00  0.00    +0.033 C 
BRANCH  21  22
ATOM     22  C   LIG    1       26.717 -17.044   3.819  0.00  0.00    -0.031 C 
ATOM     23  C   LIG    1       27.123 -15.762   3.811  0.00  0.00    -0.031 C 
BRANCH  23  24
ATOM     24  C   LIG    1       26.826 -14.874   2.627  0.00  0.00    +0.027 C 
BRANCH  24  25
ATOM     25  C   LIG    1       27.111 -13.379   2.801  0.00  0.00    +0.015 C 
BRANCH  25  26
ATOM     26  C   LIG    1       28.414 -13.123   3.558  0.00  0.00    +0.121 C 
BRANCH  26  27
ATOM     27  C   LIG    1       28.202 -12.678   4.997  0.00  0.00    +0.305 C 
ATOM     28  O   LIG    1       27.298 -13.040   5.692  0.00  0.00    -0.251 OA
BRANCH  27  29
ATOM     29  O   LIG    1       29.162 -11.792   5.410  0.00  0.00    -0.481 OA
ATOM     30  H   LIG    1       29.823 -12.162   6.013  0.00  0.00    +0.295 HD
ENDBRANCH  27  29
ENDBRANCH  26  27
ENDBRANCH  25  26
ENDBRANCH  24  25
ENDBRANCH  23  24
ENDBRANCH  21  22
ENDBRANCH   2  21
TORSDOF 18
ENDMDL
MODEL 4
REMARK VINA RESULT:      -2.7      2.079      4.979
REMARK  Name = *****
REMARK                            x       y       z     vdW  Elec       q    Type
REMARK                         _______ _______ _______ _____ _____    ______ ____
ROOT
ATOM      1  C   LIG    1       27.126 -14.763   3.931  0.00  0.00    +0.024 C 
ATOM      2  C   LIG    1       27.455 -13.634   2.902  0.00  0.00    +0.027 C 
ATOM      3  C   LIG    1       28.700 -12.978   3.531  0.00  0.00    +0.121 C 
ATOM      4  C   LIG    1       28.437 -12.966   5.027  0.00  0.00    +0.063 C 
ATOM      5  C   LIG    1       27.475 -14.118   5.303  0.00  0.00    +0.120 C 
ENDROOT
BRANCH   5   6
ATOM      6  O   LIG    1       26.315 -13.560   5.919  0.00  0.00    -0.391 OA
ATOM      7  H   LIG    1       25.637 -13.400   5.243  0.00  0.00    +0.210 HD
ENDBRANCH   5   6
BRANCH   3   8
ATOM      8  O   LIG    1       28.990 -11.655   3.131  0.00  0.00    -0.391 OA
ATOM      9  H   LIG    1       28.315 -11.369   2.494  0.00  0.00    +0.210 HD
ENDBRANCH   3   8
BRANCH   1  10
ATOM     10  C   LIG    1       27.970 -16.058   3.725  0.00  0.00    +0.014 C 
BRANCH  10  11
ATOM     11  C   LIG    1       27.605 -17.238   4.642  0.00  0.00    +0.075 C 
BRANCH  11  12
ATOM     12  C   LIG    1       26.716 -18.278   3.953  0.00  0.00    +0.133 C 
ATOM     13  O   LIG    1       26.061 -17.952   2.957  0.00  0.00    -0.297 OA
BRANCH  12  14
ATOM     14  C   LIG    1       26.561 -19.688   4.539  0.00  0.00    +0.074 C 
BRANCH  14  15
ATOM     15  C   LIG    1       27.506 -19.987   5.701  0.00  0.00    +0.007 C 
BRANCH  15  16
ATOM     16  C   LIG    1       26.888 -20.438   7.039  0.00  0.00    +0.000 C 
BRANCH  16  17
ATOM     17  C   LIG    1       25.690 -21.390   6.900  0.00  0.00    -0.000 C 
BRANCH  17  18
ATOM     18  C   LIG    1       24.317 -20.710   7.058  0.00  0.00    -0.000 C 
BRANCH  18  20
ATOM     19  C   LIG    1       23.445 -20.986   4.630  0.00  0.00    +0.004 C 
ATOM     20  C   LIG    1       23.236 -21.271   6.112  0.00  0.00    -0.003 C 
ENDBRANCH  18  20
ENDBRANCH  17  18
ENDBRANCH  16  17
ENDBRANCH  15  16
ENDBRANCH  14  15
ENDBRANCH  12  14
ENDBRANCH  11  12
ENDBRANCH  10  11
ENDBRANCH   1  10
BRANCH   2  21
ATOM     21  C   LIG    1       26.280 -12.660   2.682  0.00  0.00    +0.033 C 
BRANCH  21  22
ATOM     22  C   LIG    1       24.949 -13.058   3.276  0.00  0.00    -0.031 C 
ATOM     23  C   LIG    1       23.905 -13.673   2.693  0.00  0.00    -0.031 C 
BRANCH  23  24
ATOM     24  C   LIG    1       22.750 -14.175   3.527  0.00  0.00    +0.027 C 
BRANCH  24  25
ATOM     25  C   LIG    1       23.107 -14.991   4.773  0.00  0.00    +0.015 C 
BRANCH  25  26
ATOM     26  C   LIG    1       22.056 -16.054   5.090  0.00  0.00    +0.121 C 
BRANCH  26  27
ATOM     27  C   LIG    1       22.297 -17.376   4.378  0.00  0.00    +0.305 C 
ATOM     28  O   LIG    1       21.476 -18.236   4.249  0.00  0.00    -0.251 OA
BRANCH  27  29
ATOM     29  O   LIG    1       23.581 -17.484   3.910  0.00  0.00    -0.481 OA
ATOM     30  H   LIG    1       24.070 -18.251   4.241  0.00  0.00    +0.295 HD
ENDBRANCH  27  29
ENDBRANCH  26  27
ENDBRANCH  25  26
ENDBRANCH  24  25
ENDBRANCH  23  24
ENDBRANCH  21  22
ENDBRANCH   2  21
TORSDOF 18
ENDMDL
MODEL 5
REMARK VINA RESULT:      -2.2      1.618      6.345
REMARK  Name = *****
REMARK                            x       y       z     vdW  Elec       q    Type
REMARK                         _______ _______ _______ _____ _____    ______ ____
ROOT
ATOM      1  C   LIG    1       22.963 -18.618   5.154  0.00  0.00    +0.024 C 
ATOM      2  C   LIG    1       21.595 -17.920   4.869  0.00  0.00    +0.027 C 
ATOM      3  C   LIG    1       21.103 -18.674   3.618  0.00  0.00    +0.121 C 
ATOM      4  C   LIG    1       22.343 -18.899   2.769  0.00  0.00    +0.063 C 
ATOM      5  C   LIG    1       23.526 -18.909   3.733  0.00  0.00    +0.120 C 
ENDROOT
BRANCH   5   6
ATOM      6  O   LIG    1       24.420 -17.880   3.313  0.00  0.00    -0.391 OA
ATOM      7  H   LIG    1       24.869 -17.507   4.088  0.00  0.00    +0.210 HD
ENDBRANCH   5   6
BRANCH   3   8
ATOM      8  O   LIG    1       20.143 -18.016   2.817  0.00  0.00    -0.391 OA
ATOM      9  H   LIG    1       20.261 -18.302   1.896  0.00  0.00    +0.210 HD
ENDBRANCH   3   8
BRANCH   1  10
ATOM     10  C   LIG    1       22.828 -19.950   5.953  0.00  0.00    +0.014 C 
BRANCH  10  11
ATOM     11  C   LIG    1       23.561 -21.161   5.351  0.00  0.00    +0.075 C 
BRANCH  11  12
ATOM     12  C   LIG    1       25.061 -21.164   5.659  0.00  0.00    +0.133 C 
ATOM     13  O   LIG    1       25.857 -21.561   4.801  0.00  0.00    -0.297 OA
BRANCH  12  14
ATOM     14  C   LIG    1       25.576 -20.768   7.050  0.00  0.00    +0.074 C 
BRANCH  14  15
ATOM     15  C   LIG    1       26.997 -20.206   7.052  0.00  0.00    +0.007 C 
BRANCH  15  16
ATOM     16  C   LIG    1       28.170 -21.206   7.062  0.00  0.00    +0.000 C 
BRANCH  16  17
ATOM     17  C   LIG    1       29.425 -20.727   6.316  0.00  0.00    -0.000 C 
BRANCH  17  18
ATOM     18  C   LIG    1       29.472 -19.208   6.064  0.00  0.00    -0.000 C 
BRANCH  18  20
ATOM     19  C   LIG    1       28.578 -17.281   4.573  0.00  0.00    +0.004 C 
ATOM     20  C   LIG    1       28.408 -18.714   5.062  0.00  0.00    -0.003 C 
ENDBRANCH  18  20
ENDBRANCH  17  18
ENDBRANCH  16  17
ENDBRANCH  15  16
ENDBRANCH  14  15
ENDBRANCH  12  14
ENDBRANCH  11  12
ENDBRANCH  10  11
ENDBRANCH   1  10
BRANCH   2  21
ATOM     21  C   LIG    1       21.727 -16.397   4.667  0.00  0.00    +0.033 C 
BRANCH  21  22
ATOM     22  C   LIG    1       23.130 -15.848   4.552  0.00  0.00    -0.031 C 
ATOM     23  C   LIG    1       23.581 -14.805   3.833  0.00  0.00    -0.031 C 
BRANCH  23  24
ATOM     24  C   LIG    1       24.988 -14.291   4.031  0.00  0.00    +0.027 C 
BRANCH  24  25
ATOM     25  C   LIG    1       25.986 -14.572   2.904  0.00  0.00    +0.015 C 
BRANCH  25  26
ATOM     26  C   LIG    1       27.433 -14.358   3.347  0.00  0.00    +0.121 C 
BRANCH  26  27
ATOM     27  C   LIG    1       27.565 -13.495   4.594  0.00  0.00    +0.305 C 
ATOM     28  O   LIG    1       27.154 -13.799   5.675  0.00  0.00    -0.251 OA
BRANCH  27  29
ATOM     29  O   LIG    1       28.199 -12.308   4.334  0.00  0.00    -0.481 OA
ATOM     30  H   LIG    1       27.898 -11.562   4.871  0.00  0.00    +0.295 HD
ENDBRANCH  27  29
ENDBRANCH  26  27
ENDBRANCH  25  26
ENDBRANCH  24  25
ENDBRANCH  23  24
ENDBRANCH  21  22
ENDBRANCH   2  21
TORSDOF 18
ENDMDL
MODEL 6
REMARK VINA RESULT:      -2.1      1.935      5.861
REMARK  Name = *****
REMARK                            x       y       z     vdW  Elec       q    Type
REMARK                         _______ _______ _______ _____ _____    ______ ____
ROOT
ATOM      1  C   LIG    1       23.493 -17.530   4.529  0.00  0.00    +0.024 C 
ATOM      2  C   LIG    1       22.823 -18.922   4.304  0.00  0.00    +0.027 C 
ATOM      3  C   LIG    1       21.578 -18.550   3.476  0.00  0.00    +0.121 C 
ATOM      4  C   LIG    1       21.074 -17.245   4.071  0.00  0.00    +0.063 C 
ATOM      5  C   LIG    1       22.285 -16.567   4.705  0.00  0.00    +0.120 C 
ENDROOT
BRANCH   5   6
ATOM      6  O   LIG    1       21.981 -16.367   6.084  0.00  0.00    -0.391 OA
ATOM      7  H   LIG    1       22.766 -16.568   6.619  0.00  0.00    +0.210 HD
ENDBRANCH   5   6
BRANCH   3   8
ATOM      8  O   LIG    1       20.508 -19.472   3.487  0.00  0.00    -0.391 OA
ATOM      9  H   LIG    1       20.187 -19.563   4.399  0.00  0.00    +0.210 HD
ENDBRANCH   3   8
BRANCH   1  10
ATOM     10  C   LIG    1       24.374 -17.062   3.331  0.00  0.00    +0.014 C 
BRANCH  10  11
ATOM     11  C   LIG    1       25.339 -15.901   3.631  0.00  0.00    +0.075 C 
BRANCH  11  12
ATOM     12  C   LIG    1       24.649 -14.534   3.621  0.00  0.00    +0.133 C 
ATOM     13  O   LIG    1       23.547 -14.405   4.167  0.00  0.00    -0.297 OA
BRANCH  12  14
ATOM     14  C   LIG    1       25.266 -13.351   2.863  0.00  0.00    +0.074 C 
BRANCH  14  15
ATOM     15  C   LIG    1       26.561 -13.690   2.126  0.00  0.00    +0.007 C 
BRANCH  15  16
ATOM     16  C   LIG    1       27.777 -14.126   2.966  0.00  0.00    +0.000 C 
BRANCH  16  17
ATOM     17  C   LIG    1       28.651 -12.969   3.474  0.00  0.00    -0.000 C 
BRANCH  17  18
ATOM     18  C   LIG    1       28.355 -12.540   4.923  0.00  0.00    -0.000 C 
BRANCH  18  20
ATOM     19  C   LIG    1       26.269 -13.274   6.282  0.00  0.00    +0.004 C 
ATOM     20  C   LIG    1       27.656 -13.630   5.761  0.00  0.00    -0.003 C 
ENDBRANCH  18  20
ENDBRANCH  17  18
ENDBRANCH  16  17
ENDBRANCH  15  16
ENDBRANCH  14  15
ENDBRANCH  12  14
ENDBRANCH  11  12
ENDBRANCH  10  11
ENDBRANCH   1  10
BRANCH   2  21
ATOM     21  C   LIG    1       22.499 -19.654   5.622  0.00  0.00    +0.033 C 
BRANCH  21  22
ATOM     22  C   LIG    1       23.628 -20.427   6.263  0.00  0.00    -0.031 C 
ATOM     23  C   LIG    1       24.782 -20.856   5.722  0.00  0.00    -0.031 C 
BRANCH  23  24
ATOM     24  C   LIG    1       25.873 -21.424   6.600  0.00  0.00    +0.027 C 
BRANCH  24  25
ATOM     25  C   LIG    1       27.060 -20.504   6.902  0.00  0.00    +0.015 C 
BRANCH  25  26
ATOM     26  C   LIG    1       27.622 -19.852   5.640  0.00  0.00    +0.121 C 
BRANCH  26  27
ATOM     27  C   LIG    1       28.848 -18.988   5.898  0.00  0.00    +0.305 C 
ATOM     28  O   LIG    1       29.474 -18.987   6.917  0.00  0.00    -0.251 OA
BRANCH  27  29
ATOM     29  O   LIG    1       29.149 -18.187   4.827  0.00  0.00    -0.481 OA
ATOM     30  H   LIG    1       28.430 -18.072   4.191  0.00  0.00    +0.295 HD
ENDBRANCH  27  29
ENDBRANCH  26  27
ENDBRANCH  25  26
ENDBRANCH  24  25
ENDBRANCH  23  24
ENDBRANCH  21  22
ENDBRANCH   2  21
TORSDOF 18
ENDMDL
MODEL 7
REMARK VINA RESULT:      -1.9      1.819      2.670
REMARK  Name = *****
REMARK                            x       y       z     vdW  Elec       q    Type
REMARK                         _______ _______ _______ _____ _____    ______ ____
ROOT
ATOM      1  C   LIG    1       26.052 -14.400   4.372  0.00  0.00    +0.024 C 
ATOM      2  C   LIG    1       27.595 -14.556   4.552  0.00  0.00    +0.027 C 
ATOM      3  C   LIG    1       28.134 -13.321   3.804  0.00  0.00    +0.121 C 
ATOM      4  C   LIG    1       27.248 -13.174   2.578  0.00  0.00    +0.063 C 
ATOM      5  C   LIG    1       25.910 -13.815   2.937  0.00  0.00    +0.120 C 
ENDROOT
BRANCH   5   6
ATOM      6  O   LIG    1       25.668 -14.847   1.982  0.00  0.00    -0.391 OA
ATOM      7  H   LIG    1       26.507 -15.107   1.569  0.00  0.00    +0.210 HD
ENDBRANCH   5   6
BRANCH   3   8
ATOM      8  O   LIG    1       29.475 -13.379   3.364  0.00  0.00    -0.391 OA
ATOM      9  H   LIG    1       29.481 -13.411   2.393  0.00  0.00    +0.210 HD
ENDBRANCH   3   8
BRANCH   1  10
ATOM     10  C   LIG    1       25.399 -13.432   5.405  0.00  0.00    +0.014 C 
BRANCH  10  11
ATOM     11  C   LIG    1       24.155 -12.674   4.908  0.00  0.00    +0.075 C 
BRANCH  11  12
ATOM     12  C   LIG    1       23.527 -13.310   3.665  0.00  0.00    +0.133 C 
ATOM     13  O   LIG    1       23.809 -12.866   2.547  0.00  0.00    -0.297 OA
BRANCH  12  14
ATOM     14  C   LIG    1       22.483 -14.427   3.799  0.00  0.00    +0.074 C 
BRANCH  14  15
ATOM     15  C   LIG    1       23.068 -15.783   4.192  0.00  0.00    +0.007 C 
BRANCH  15  16
ATOM     16  C   LIG    1       22.170 -16.758   4.978  0.00  0.00    +0.000 C 
BRANCH  16  17
ATOM     17  C   LIG    1       21.900 -18.093   4.268  0.00  0.00    -0.000 C 
BRANCH  17  18
ATOM     18  C   LIG    1       23.013 -19.143   4.446  0.00  0.00    -0.000 C 
BRANCH  18  20
ATOM     19  C   LIG    1       22.078 -21.473   5.100  0.00  0.00    +0.004 C 
ATOM     20  C   LIG    1       22.722 -20.171   5.558  0.00  0.00    -0.003 C 
ENDBRANCH  18  20
ENDBRANCH  17  18
ENDBRANCH  16  17
ENDBRANCH  15  16
ENDBRANCH  14  15
ENDBRANCH  12  14
ENDBRANCH  11  12
ENDBRANCH  10  11
ENDBRANCH   1  10
BRANCH   2  21
ATOM     21  C   LIG    1       28.132 -15.896   4.010  0.00  0.00    +0.033 C 
BRANCH  21  22
ATOM     22  C   LIG    1       28.721 -16.850   5.024  0.00  0.00    -0.031 C 
ATOM     23  C   LIG    1       28.625 -18.190   5.090  0.00  0.00    -0.031 C 
BRANCH  23  24
ATOM     24  C   LIG    1       29.475 -18.969   6.066  0.00  0.00    +0.027 C 
BRANCH  24  25
ATOM     25  C   LIG    1       28.731 -19.864   7.062  0.00  0.00    +0.015 C 
BRANCH  25  26
ATOM     26  C   LIG    1       27.904 -20.943   6.364  0.00  0.00    +0.121 C 
BRANCH  26  27
ATOM     27  C   LIG    1       26.539 -20.456   5.899  0.00  0.00    +0.305 C 
ATOM     28  O   LIG    1       26.211 -20.352   4.754  0.00  0.00    -0.251 OA
BRANCH  27  29
ATOM     29  O   LIG    1       25.723 -20.128   6.950  0.00  0.00    -0.481 OA
ATOM     30  H   LIG    1       24.806 -19.939   6.708  0.00  0.00    +0.295 HD
ENDBRANCH  27  29
ENDBRANCH  26  27
ENDBRANCH  25  26
ENDBRANCH  24  25
ENDBRANCH  23  24
ENDBRANCH  21  22
ENDBRANCH   2  21
TORSDOF 18
ENDMDL
MODEL 8
REMARK VINA RESULT:      -1.7      1.379      2.121
REMARK  Name = *****
REMARK                            x       y       z     vdW  Elec       q    Type
REMARK                         _______ _______ _______ _____ _____    ______ ____
ROOT
ATOM      1  C   LIG    1       25.210 -14.975   3.524  0.00  0.00    +0.024 C 
ATOM      2  C   LIG    1       25.140 -13.909   4.662  0.00  0.00    +0.027 C 
ATOM      3  C   LIG    1       24.290 -12.800   4.013  0.00  0.00    +0.121 C 
ATOM      4  C   LIG    1       24.748 -12.735   2.566  0.00  0.00    +0.063 C 
ATOM      5  C   LIG    1       25.295 -14.119   2.228  0.00  0.00    +0.120 C 
ENDROOT
BRANCH   5   6
ATOM      6  O   LIG    1       26.649 -13.947   1.812  0.00  0.00    -0.391 OA
ATOM      7  H   LIG    1       26.901 -13.015   1.915  0.00  0.00    +0.210 HD
ENDBRANCH   5   6
BRANCH   3   8
ATOM      8  O   LIG    1       24.408 -11.504   4.562  0.00  0.00    -0.391 OA
ATOM      9  H   LIG    1       23.754 -11.408   5.274  0.00  0.00    +0.210 HD
ENDBRANCH   3   8
BRANCH   1  10
ATOM     10  C   LIG    1       23.960 -15.906   3.464  0.00  0.00    +0.014 C 
BRANCH  10  11
ATOM     11  C   LIG    1       22.669 -15.318   4.058  0.00  0.00    +0.075 C 
BRANCH  11  12
ATOM     12  C   LIG    1       22.206 -16.050   5.321  0.00  0.00    +0.133 C 
ATOM     13  O   LIG    1       21.895 -15.397   6.322  0.00  0.00    -0.297 OA
BRANCH  12  14
ATOM     14  C   LIG    1       22.214 -17.584   5.385  0.00  0.00    +0.074 C 
BRANCH  14  15
ATOM     15  C   LIG    1       22.256 -18.264   4.017  0.00  0.00    +0.007 C 
BRANCH  15  16
ATOM     16  C   LIG    1       23.559 -18.976   3.603  0.00  0.00    +0.000 C 
BRANCH  16  17
ATOM     17  C   LIG    1       23.748 -20.372   4.219  0.00  0.00    -0.000 C 
BRANCH  17  18
ATOM     18  C   LIG    1       22.567 -20.848   5.085  0.00  0.00    -0.000 C 
BRANCH  18  20
ATOM     19  C   LIG    1       24.396 -21.125   6.905  0.00  0.00    +0.004 C 
ATOM     20  C   LIG    1       22.913 -20.986   6.581  0.00  0.00    -0.003 C 
ENDBRANCH  18  20
ENDBRANCH  17  18
ENDBRANCH  16  17
ENDBRANCH  15  16
ENDBRANCH  14  15
ENDBRANCH  12  14
ENDBRANCH  11  12
ENDBRANCH  10  11
ENDBRANCH   1  10
BRANCH   2  21
ATOM     21  C   LIG    1       26.531 -13.435   5.130  0.00  0.00    +0.033 C 
BRANCH  21  22
ATOM     22  C   LIG    1       27.575 -14.506   5.345  0.00  0.00    -0.031 C 
ATOM     23  C   LIG    1       27.708 -15.699   4.740  0.00  0.00    -0.031 C 
BRANCH  23  24
ATOM     24  C   LIG    1       28.954 -16.527   4.950  0.00  0.00    +0.027 C 
BRANCH  24  25
ATOM     25  C   LIG    1       28.793 -18.047   4.848  0.00  0.00    +0.015 C 
BRANCH  25  26
ATOM     26  C   LIG    1       29.364 -18.772   6.066  0.00  0.00    +0.121 C 
BRANCH  26  27
ATOM     27  C   LIG    1       28.621 -20.054   6.413  0.00  0.00    +0.305 C 
ATOM     28  O   LIG    1       27.430 -20.170   6.405  0.00  0.00    -0.251 OA
BRANCH  27  29
ATOM     29  O   LIG    1       29.475 -21.069   6.758  0.00  0.00    -0.481 OA
ATOM     30  H   LIG    1       30.372 -20.979   6.408  0.00  0.00    +0.295 HD
ENDBRANCH  27  29
ENDBRANCH  26  27
ENDBRANCH  25  26
ENDBRANCH  24  25
ENDBRANCH  23  24
ENDBRANCH  21  22
ENDBRANCH   2  21
TORSDOF 18
ENDMDL
MODEL 9
REMARK VINA RESULT:      -1.3      1.635      6.781
REMARK  Name = *****
REMARK                            x       y       z     vdW  Elec       q    Type
REMARK                         _______ _______ _______ _____ _____    ______ ____
ROOT
ATOM      1  C   LIG    1       23.718 -19.930   3.698  0.00  0.00    +0.024 C 
ATOM      2  C   LIG    1       23.542 -18.737   4.690  0.00  0.00    +0.027 C 
ATOM      3  C   LIG    1       23.182 -19.461   6.003  0.00  0.00    +0.121 C 
ATOM      4  C   LIG    1       22.272 -20.607   5.595  0.00  0.00    +0.063 C 
ATOM      5  C   LIG    1       22.629 -20.945   4.150  0.00  0.00    +0.120 C 
ENDROOT
BRANCH   5   6
ATOM      6  O   LIG    1       21.438 -20.801   3.378  0.00  0.00    -0.391 OA
ATOM      7  H   LIG    1       21.621 -21.046   2.456  0.00  0.00    +0.210 HD
ENDBRANCH   5   6
BRANCH   3   8
ATOM      8  O   LIG    1       22.508 -18.699   6.983  0.00  0.00    -0.391 OA
ATOM      9  H   LIG    1       22.354 -19.262   7.760  0.00  0.00    +0.210 HD
ENDBRANCH   3   8
BRANCH   1  10
ATOM     10  C   LIG    1       25.126 -20.598   3.770  0.00  0.00    +0.014 C 
BRANCH  10  11
ATOM     11  C   LIG    1       26.110 -19.962   4.768  0.00  0.00    +0.075 C 
BRANCH  11  12
ATOM     12  C   LIG    1       26.226 -20.752   6.075  0.00  0.00    +0.133 C 
ATOM     13  O   LIG    1       25.350 -21.571   6.371  0.00  0.00    -0.297 OA
BRANCH  12  14
ATOM     14  C   LIG    1       27.367 -20.469   7.062  0.00  0.00    +0.074 C 
BRANCH  14  15
ATOM     15  C   LIG    1       28.756 -20.808   6.523  0.00  0.00    +0.007 C 
BRANCH  15  16
ATOM     16  C   LIG    1       29.461 -19.767   5.633  0.00  0.00    +0.000 C 
BRANCH  16  17
ATOM     17  C   LIG    1       29.203 -18.306   6.032  0.00  0.00    -0.000 C 
BRANCH  17  18
ATOM     18  C   LIG    1       28.822 -17.385   4.857  0.00  0.00    -0.000 C 
BRANCH  18  20
ATOM     19  C   LIG    1       26.705 -16.769   3.487  0.00  0.00    +0.004 C 
ATOM     20  C   LIG    1       27.588 -17.867   4.068  0.00  0.00    -0.003 C 
ENDBRANCH  18  20
ENDBRANCH  17  18
ENDBRANCH  16  17
ENDBRANCH  15  16
ENDBRANCH  14  15
ENDBRANCH  12  14
ENDBRANCH  11  12
ENDBRANCH  10  11
ENDBRANCH   1  10
BRANCH   2  21
ATOM     21  C   LIG    1       22.479 -17.721   4.227  0.00  0.00    +0.033 C 
BRANCH  21  22
ATOM     22  C   LIG    1       22.694 -16.282   4.635  0.00  0.00    -0.031 C 
ATOM     23  C   LIG    1       23.489 -15.349   4.082  0.00  0.00    -0.031 C 
BRANCH  23  24
ATOM     24  C   LIG    1       23.389 -13.906   4.516  0.00  0.00    +0.027 C 
BRANCH  24  25
ATOM     25  C   LIG    1       24.710 -13.158   4.723  0.00  0.00    +0.015 C 
BRANCH  25  26
ATOM     26  C   LIG    1       25.793 -13.617   3.747  0.00  0.00    +0.121 C 
BRANCH  26  27
ATOM     27  C   LIG    1       27.207 -13.434   4.281  0.00  0.00    +0.305 C 
ATOM     28  O   LIG    1       28.198 -13.531   3.619  0.00  0.00    -0.251 OA
BRANCH  27  29
ATOM     29  O   LIG    1       27.220 -13.162   5.624  0.00  0.00    -0.481 OA
ATOM     30  H   LIG    1       27.860 -13.676   6.135  0.00  0.00    +0.295 HD
ENDBRANCH  27  29
ENDBRANCH  26  27
ENDBRANCH  25  26
ENDBRANCH  24  25
ENDBRANCH  23  24
ENDBRANCH  21  22
ENDBRANCH   2  21
TORSDOF 18
ENDMDL
