MODEL 1
REMARK VINA RESULT:      -9.6      0.000      0.000
REMARK  Name = *****
REMARK                            x       y       z     vdW  Elec       q    Type
REMARK                         _______ _______ _______ _____ _____    ______ ____
ROOT
ATOM      1  N   LIG    1       26.836 -21.573   8.657  0.00  0.00    -0.311 NA
ATOM      2  H   LIG    1       27.314 -21.689   9.554  0.00  0.00    +0.122 HD
ENDROOT
BRANCH   1   3
ATOM      3  C   LIG    1       27.336 -22.657   7.784  0.00  0.00    +0.115 C 
BRANCH   3   4
ATOM      4  C   LIG    1       26.237 -23.214   6.847  0.00  0.00    +0.169 C 
BRANCH   4   5
ATOM      5  C   LIG    1       25.052 -22.235   6.687  0.00  0.00    +0.203 C 
ATOM      6  O   LIG    1       25.331 -21.399   5.550  0.00  0.00    -0.486 OA
ATOM      7  C   LIG    1       24.299 -20.616   5.126  0.00  0.00    +0.124 A 
ATOM      8  C   LIG    1       22.964 -20.836   5.490  0.00  0.00    -0.003 A 
ATOM      9  C   LIG    1       21.973 -19.987   4.989  0.00  0.00    +0.045 A 
ATOM     10  C   LIG    1       22.315 -18.958   4.113  0.00  0.00    +0.124 A 
ATOM     11  C   LIG    1       23.639 -18.756   3.733  0.00  0.00    +0.042 A 
ATOM     12  F   LIG    1       21.360 -18.161   3.626  0.00  0.00    -0.205 F 
ATOM     13  C   LIG    1       22.599 -21.949   6.426  0.00  0.00    +0.042 C 
ATOM     14  C   LIG    1       24.631 -19.588   4.241  0.00  0.00    +0.049 A 
ATOM     15  C   LIG    1       23.724 -22.973   6.500  0.00  0.00    +0.052 C 
ENDBRANCH   4   5
BRANCH   4  16
ATOM     16  O   LIG    1       25.809 -24.490   7.349  0.00  0.00    -0.387 OA
ATOM     17  H   LIG    1       26.276 -25.174   6.840  0.00  0.00    +0.210 HD
ENDBRANCH   4  16
ENDBRANCH   3   4
ENDBRANCH   1   3
BRANCH   1  18
ATOM     18  C   LIG    1       27.168 -20.259   8.074  0.00  0.00    +0.115 C 
BRANCH  18  19
ATOM     19  C   LIG    1       28.449 -20.301   7.206  0.00  0.00    +0.169 C 
BRANCH  19  20
ATOM     20  C   LIG    1       29.487 -19.221   7.577  0.00  0.00    +0.203 C 
ATOM     21  O   LIG    1       29.280 -18.832   8.945  0.00  0.00    -0.486 OA
ATOM     22  C   LIG    1       30.257 -18.030   9.471  0.00  0.00    +0.124 A 
ATOM     23  C   LIG    1       31.521 -17.870   8.888  0.00  0.00    -0.003 A 
ATOM     24  C   LIG    1       32.450 -17.014   9.496  0.00  0.00    +0.045 A 
ATOM     25  C   LIG    1       32.119 -16.367  10.681  0.00  0.00    +0.124 A 
ATOM     26  C   LIG    1       30.881 -16.549  11.279  0.00  0.00    +0.042 A 
ATOM     27  F   LIG    1       33.017 -15.553  11.259  0.00  0.00    -0.205 F 
ATOM     28  C   LIG    1       31.881 -18.584   7.620  0.00  0.00    +0.042 C 
ATOM     29  C   LIG    1       29.944 -17.387  10.670  0.00  0.00    +0.049 A 
ATOM     30  C   LIG    1       30.916 -19.733   7.367  0.00  0.00    +0.052 C 
ENDBRANCH  19  20
BRANCH  19  31
ATOM     31  O   LIG    1       28.082 -20.170   5.825  0.00  0.00    -0.387 OA
ATOM     32  H   LIG    1       27.122 -19.979   5.831  0.00  0.00    +0.210 HD
ENDBRANCH  19  31
ENDBRANCH  18  19
ENDBRANCH   1  18
TORSDOF 8
ENDMDL
MODEL 2
REMARK VINA RESULT:      -9.6      2.715      4.084
REMARK  Name = *****
REMARK                            x       y       z     vdW  Elec       q    Type
REMARK                         _______ _______ _______ _____ _____    ______ ____
ROOT
ATOM      1  N   LIG    1       26.296 -21.343   7.647  0.00  0.00    -0.311 NA
ATOM      2  H   LIG    1       26.683 -21.871   6.860  0.00  0.00    +0.122 HD
ENDROOT
BRANCH   1   3
ATOM      3  C   LIG    1       25.072 -20.688   7.136  0.00  0.00    +0.115 C 
BRANCH   3   4
ATOM      4  C   LIG    1       24.729 -21.125   5.690  0.00  0.00    +0.169 C 
BRANCH   4   5
ATOM      5  C   LIG    1       24.325 -22.613   5.609  0.00  0.00    +0.203 C 
ATOM      6  O   LIG    1       25.523 -23.397   5.752  0.00  0.00    -0.486 OA
ATOM      7  C   LIG    1       25.336 -24.737   5.921  0.00  0.00    +0.124 A 
ATOM      8  C   LIG    1       24.112 -25.302   6.299  0.00  0.00    -0.003 A 
ATOM      9  C   LIG    1       24.025 -26.688   6.463  0.00  0.00    +0.045 A 
ATOM     10  C   LIG    1       25.155 -27.484   6.282  0.00  0.00    +0.124 A 
ATOM     11  C   LIG    1       26.377 -26.917   5.930  0.00  0.00    +0.042 A 
ATOM     12  F   LIG    1       25.066 -28.805   6.457  0.00  0.00    -0.205 F 
ATOM     13  C   LIG    1       22.900 -24.442   6.500  0.00  0.00    +0.042 C 
ATOM     14  C   LIG    1       26.466 -25.541   5.750  0.00  0.00    +0.049 A 
ATOM     15  C   LIG    1       23.307 -22.987   6.690  0.00  0.00    +0.052 C 
ENDBRANCH   4   5
BRANCH   4  16
ATOM     16  O   LIG    1       25.853 -20.831   4.844  0.00  0.00    -0.387 OA
ATOM     17  H   LIG    1       26.157 -19.935   5.066  0.00  0.00    +0.210 HD
ENDBRANCH   4  16
ENDBRANCH   3   4
ENDBRANCH   1   3
BRANCH   1  18
ATOM     18  C   LIG    1       27.265 -20.325   8.099  0.00  0.00    +0.115 C 
BRANCH  18  19
ATOM     19  C   LIG    1       28.597 -20.382   7.312  0.00  0.00    +0.169 C 
BRANCH  19  20
ATOM     20  C   LIG    1       29.578 -19.245   7.667  0.00  0.00    +0.203 C 
ATOM     21  O   LIG    1       29.407 -18.904   9.052  0.00  0.00    -0.486 OA
ATOM     22  C   LIG    1       30.352 -18.051   9.557  0.00  0.00    +0.124 A 
ATOM     23  C   LIG    1       31.575 -17.793   8.925  0.00  0.00    -0.003 A 
ATOM     24  C   LIG    1       32.472 -16.891   9.515  0.00  0.00    +0.045 A 
ATOM     25  C   LIG    1       32.153 -16.297  10.730  0.00  0.00    +0.124 A 
ATOM     26  C   LIG    1       30.958 -16.575  11.376  0.00  0.00    +0.042 A 
ATOM     27  F   LIG    1       33.021 -15.439  11.290  0.00  0.00    -0.205 F 
ATOM     28  C   LIG    1       31.923 -18.450   7.623  0.00  0.00    +0.042 C 
ATOM     29  C   LIG    1       30.052 -17.460  10.786  0.00  0.00    +0.049 A 
ATOM     30  C   LIG    1       31.026 -19.655   7.381  0.00  0.00    +0.052 C 
ENDBRANCH  19  20
BRANCH  19  31
ATOM     31  O   LIG    1       28.310 -20.358   5.906  0.00  0.00    -0.387 OA
ATOM     32  H   LIG    1       28.233 -19.410   5.675  0.00  0.00    +0.210 HD
ENDBRANCH  19  31
ENDBRANCH  18  19
ENDBRANCH   1  18
TORSDOF 8
ENDMDL
MODEL 3
REMARK VINA RESULT:      -9.4      5.988      9.678
REMARK  Name = *****
REMARK                            x       y       z     vdW  Elec       q    Type
REMARK                         _______ _______ _______ _____ _____    ______ ____
ROOT
ATOM      1  N   LIG    1       25.051 -26.946   4.922  0.00  0.00    -0.311 NA
ATOM      2  H   LIG    1       24.423 -27.002   4.116  0.00  0.00    +0.122 HD
ENDROOT
BRANCH   1   3
ATOM      3  C   LIG    1       25.285 -28.341   5.355  0.00  0.00    +0.115 C 
BRANCH   3   4
ATOM      4  C   LIG    1       24.191 -28.848   6.327  0.00  0.00    +0.169 C 
BRANCH   4   5
ATOM      5  C   LIG    1       24.786 -29.615   7.529  0.00  0.00    +0.203 C 
ATOM      6  O   LIG    1       25.541 -28.673   8.313  0.00  0.00    -0.486 OA
ATOM      7  C   LIG    1       25.961 -29.122   9.530  0.00  0.00    +0.124 A 
ATOM      8  C   LIG    1       25.424 -30.250  10.163  0.00  0.00    -0.003 A 
ATOM      9  C   LIG    1       25.912 -30.621  11.420  0.00  0.00    +0.045 A 
ATOM     10  C   LIG    1       26.896 -29.852  12.040  0.00  0.00    +0.124 A 
ATOM     11  C   LIG    1       27.410 -28.718  11.420  0.00  0.00    +0.042 A 
ATOM     12  F   LIG    1       27.344 -30.205  13.248  0.00  0.00    -0.205 F 
ATOM     13  C   LIG    1       24.360 -31.069   9.496  0.00  0.00    +0.042 C 
ATOM     14  C   LIG    1       26.941 -28.353  10.162  0.00  0.00    +0.049 A 
ATOM     15  C   LIG    1       23.697 -30.273   8.380  0.00  0.00    +0.052 C 
ENDBRANCH   4   5
BRANCH   4  16
ATOM     16  O   LIG    1       23.261 -29.655   5.588  0.00  0.00    -0.387 OA
ATOM     17  H   LIG    1       22.368 -29.430   5.901  0.00  0.00    +0.210 HD
ENDBRANCH   4  16
ENDBRANCH   3   4
ENDBRANCH   1   3
BRANCH   1  18
ATOM     18  C   LIG    1       24.411 -26.178   6.009  0.00  0.00    +0.115 C 
BRANCH  18  19
ATOM     19  C   LIG    1       25.329 -25.065   6.569  0.00  0.00    +0.169 C 
BRANCH  19  20
ATOM     20  C   LIG    1       24.667 -23.671   6.602  0.00  0.00    +0.203 C 
ATOM     21  O   LIG    1       25.013 -22.967   5.398  0.00  0.00    -0.486 OA
ATOM     22  C   LIG    1       24.331 -21.797   5.198  0.00  0.00    +0.124 A 
ATOM     23  C   LIG    1       23.157 -21.460   5.885  0.00  0.00    -0.003 A 
ATOM     24  C   LIG    1       22.539 -20.230   5.619  0.00  0.00    +0.045 A 
ATOM     25  C   LIG    1       23.076 -19.382   4.657  0.00  0.00    +0.124 A 
ATOM     26  C   LIG    1       24.219 -19.727   3.951  0.00  0.00    +0.042 A 
ATOM     27  F   LIG    1       22.474 -18.209   4.405  0.00  0.00    -0.205 F 
ATOM     28  C   LIG    1       22.572 -22.386   6.909  0.00  0.00    +0.042 C 
ATOM     29  C   LIG    1       24.849 -20.943   4.222  0.00  0.00    +0.049 A 
ATOM     30  C   LIG    1       23.146 -23.785   6.747  0.00  0.00    +0.052 C 
ENDBRANCH  19  20
BRANCH  19  31
ATOM     31  O   LIG    1       26.532 -25.014   5.788  0.00  0.00    -0.387 OA
ATOM     32  H   LIG    1       26.630 -25.911   5.408  0.00  0.00    +0.210 HD
ENDBRANCH  19  31
ENDBRANCH  18  19
ENDBRANCH   1  18
TORSDOF 8
ENDMDL
MODEL 4
REMARK VINA RESULT:      -9.4      5.957      8.938
REMARK  Name = *****
REMARK                            x       y       z     vdW  Elec       q    Type
REMARK                         _______ _______ _______ _____ _____    ______ ____
ROOT
ATOM      1  N   LIG    1       25.081 -27.033   4.850  0.00  0.00    -0.311 NA
ATOM      2  H   LIG    1       25.978 -26.572   4.678  0.00  0.00    +0.122 HD
ENDROOT
BRANCH   1   3
ATOM      3  C   LIG    1       24.408 -26.238   5.899  0.00  0.00    +0.115 C 
BRANCH   3   4
ATOM      4  C   LIG    1       25.343 -25.171   6.521  0.00  0.00    +0.169 C 
BRANCH   4   5
ATOM      5  C   LIG    1       24.667 -23.785   6.618  0.00  0.00    +0.203 C 
ATOM      6  O   LIG    1       25.041 -23.038   5.447  0.00  0.00    -0.486 OA
ATOM      7  C   LIG    1       24.367 -21.869   5.252  0.00  0.00    +0.124 A 
ATOM      8  C   LIG    1       23.160 -21.559   5.893  0.00  0.00    -0.003 A 
ATOM      9  C   LIG    1       22.536 -20.340   5.614  0.00  0.00    +0.045 A 
ATOM     10  C   LIG    1       23.097 -19.466   4.684  0.00  0.00    +0.124 A 
ATOM     11  C   LIG    1       24.283 -19.787   4.030  0.00  0.00    +0.042 A 
ATOM     12  F   LIG    1       22.485 -18.310   4.412  0.00  0.00    -0.205 F 
ATOM     13  C   LIG    1       22.555 -22.505   6.886  0.00  0.00    +0.042 C 
ATOM     14  C   LIG    1       24.918 -20.991   4.315  0.00  0.00    +0.049 A 
ATOM     15  C   LIG    1       23.143 -23.900   6.719  0.00  0.00    +0.052 C 
ENDBRANCH   4   5
BRANCH   4  16
ATOM     16  O   LIG    1       26.555 -25.120   5.753  0.00  0.00    -0.387 OA
ATOM     17  H   LIG    1       26.397 -25.610   4.927  0.00  0.00    +0.210 HD
ENDBRANCH   4  16
ENDBRANCH   3   4
ENDBRANCH   1   3
BRANCH   1  18
ATOM     18  C   LIG    1       25.305 -28.413   5.325  0.00  0.00    +0.115 C 
BRANCH  18  19
ATOM     19  C   LIG    1       24.229 -28.874   6.338  0.00  0.00    +0.169 C 
BRANCH  19  20
ATOM     20  C   LIG    1       24.807 -29.595   7.574  0.00  0.00    +0.203 C 
ATOM     21  O   LIG    1       25.568 -28.650   8.345  0.00  0.00    -0.486 OA
ATOM     22  C   LIG    1       25.969 -29.099   9.575  0.00  0.00    +0.124 A 
ATOM     23  C   LIG    1       25.418 -30.224  10.204  0.00  0.00    -0.003 A 
ATOM     24  C   LIG    1       25.907 -30.613  11.458  0.00  0.00    +0.045 A 
ATOM     25  C   LIG    1       26.901 -29.861  12.074  0.00  0.00    +0.124 A 
ATOM     26  C   LIG    1       27.425 -28.728  11.471  0.00  0.00    +0.042 A 
ATOM     27  F   LIG    1       27.359 -30.238  13.279  0.00  0.00    -0.205 F 
ATOM     28  C   LIG    1       24.334 -31.022   9.543  0.00  0.00    +0.042 C 
ATOM     29  C   LIG    1       26.955 -28.344  10.213  0.00  0.00    +0.049 A 
ATOM     30  C   LIG    1       23.693 -30.217   8.422  0.00  0.00    +0.052 C 
ENDBRANCH  19  20
BRANCH  19  31
ATOM     31  O   LIG    1       23.294 -29.730   5.667  0.00  0.00    -0.387 OA
ATOM     32  H   LIG    1       23.745 -30.595   5.590  0.00  0.00    +0.210 HD
ENDBRANCH  19  31
ENDBRANCH  18  19
ENDBRANCH   1  18
TORSDOF 8
ENDMDL
MODEL 5
REMARK VINA RESULT:      -9.2      5.071      7.617
REMARK  Name = *****
REMARK                            x       y       z     vdW  Elec       q    Type
REMARK                         _______ _______ _______ _____ _____    ______ ____
ROOT
ATOM      1  N   LIG    1       22.902 -24.199   6.553  0.00  0.00    -0.311 NA
ATOM      2  H   LIG    1       22.284 -24.650   7.233  0.00  0.00    +0.122 HD
ENDROOT
BRANCH   1   3
ATOM      3  C   LIG    1       24.164 -24.969   6.573  0.00  0.00    +0.115 C 
BRANCH   3   4
ATOM      4  C   LIG    1       24.295 -25.919   5.357  0.00  0.00    +0.169 C 
BRANCH   4   5
ATOM      5  C   LIG    1       24.917 -27.280   5.741  0.00  0.00    +0.203 C 
ATOM      6  O   LIG    1       25.300 -27.206   7.126  0.00  0.00    -0.486 OA
ATOM      7  C   LIG    1       25.670 -28.386   7.700  0.00  0.00    +0.124 A 
ATOM      8  C   LIG    1       25.371 -29.639   7.149  0.00  0.00    -0.003 A 
ATOM      9  C   LIG    1       25.780 -30.793   7.823  0.00  0.00    +0.045 A 
ATOM     10  C   LIG    1       26.448 -30.689   9.042  0.00  0.00    +0.124 A 
ATOM     11  C   LIG    1       26.723 -29.444   9.600  0.00  0.00    +0.042 A 
ATOM     12  F   LIG    1       26.820 -31.798   9.687  0.00  0.00    -0.205 F 
ATOM     13  C   LIG    1       24.645 -29.747   5.842  0.00  0.00    +0.042 C 
ATOM     14  C   LIG    1       26.333 -28.291   8.926  0.00  0.00    +0.049 A 
ATOM     15  C   LIG    1       23.940 -28.437   5.515  0.00  0.00    +0.052 C 
ENDBRANCH   4   5
BRANCH   4  16
ATOM     16  O   LIG    1       25.058 -25.254   4.337  0.00  0.00    -0.387 OA
ATOM     17  H   LIG    1       24.470 -24.607   3.910  0.00  0.00    +0.210 HD
ENDBRANCH   4  16
ENDBRANCH   3   4
ENDBRANCH   1   3
BRANCH   1  18
ATOM     18  C   LIG    1       23.155 -22.800   6.950  0.00  0.00    +0.115 C 
BRANCH  18  19
ATOM     19  C   LIG    1       23.392 -21.871   5.735  0.00  0.00    +0.169 C 
BRANCH  19  20
ATOM     20  C   LIG    1       24.654 -20.992   5.861  0.00  0.00    +0.203 C 
ATOM     21  O   LIG    1       25.650 -21.719   6.600  0.00  0.00    -0.486 OA
ATOM     22  C   LIG    1       26.893 -21.144   6.613  0.00  0.00    +0.124 A 
ATOM     23  C   LIG    1       27.288 -20.139   5.721  0.00  0.00    -0.003 A 
ATOM     24  C   LIG    1       28.579 -19.602   5.824  0.00  0.00    +0.045 A 
ATOM     25  C   LIG    1       29.456 -20.097   6.782  0.00  0.00    +0.124 A 
ATOM     26  C   LIG    1       29.080 -21.115   7.645  0.00  0.00    +0.042 A 
ATOM     27  F   LIG    1       30.693 -19.581   6.869  0.00  0.00    -0.205 F 
ATOM     28  C   LIG    1       26.343 -19.620   4.677  0.00  0.00    +0.042 C 
ATOM     29  C   LIG    1       27.790 -21.643   7.559  0.00  0.00    +0.049 A 
ATOM     30  C   LIG    1       25.187 -20.589   4.482  0.00  0.00    +0.052 C 
ENDBRANCH  19  20
BRANCH  19  31
ATOM     31  O   LIG    1       22.236 -21.040   5.550  0.00  0.00    -0.387 OA
ATOM     32  H   LIG    1       22.118 -20.571   6.401  0.00  0.00    +0.210 HD
ENDBRANCH  19  31
ENDBRANCH  18  19
ENDBRANCH   1  18
TORSDOF 8
ENDMDL
MODEL 6
REMARK VINA RESULT:      -9.2      6.140      9.548
REMARK  Name = *****
REMARK                            x       y       z     vdW  Elec       q    Type
REMARK                         _______ _______ _______ _____ _____    ______ ____
ROOT
ATOM      1  N   LIG    1       25.887 -29.487   5.391  0.00  0.00    -0.311 NA
ATOM      2  H   LIG    1       26.060 -29.882   4.463  0.00  0.00    +0.122 HD
ENDROOT
BRANCH   1   3
ATOM      3  C   LIG    1       24.812 -30.307   5.991  0.00  0.00    +0.115 C 
BRANCH   3   4
ATOM      4  C   LIG    1       25.367 -31.443   6.886  0.00  0.00    +0.169 C 
BRANCH   4   5
ATOM      5  C   LIG    1       25.250 -31.111   8.390  0.00  0.00    +0.203 C 
ATOM      6  O   LIG    1       26.065 -29.953   8.644  0.00  0.00    -0.486 OA
ATOM      7  C   LIG    1       25.918 -29.386   9.875  0.00  0.00    +0.124 A 
ATOM      8  C   LIG    1       24.825 -29.638  10.714  0.00  0.00    -0.003 A 
ATOM      9  C   LIG    1       24.756 -28.993  11.953  0.00  0.00    +0.045 A 
ATOM     10  C   LIG    1       25.749 -28.088  12.324  0.00  0.00    +0.124 A 
ATOM     11  C   LIG    1       26.821 -27.820  11.478  0.00  0.00    +0.042 A 
ATOM     12  F   LIG    1       25.666 -27.464  13.502  0.00  0.00    -0.205 F 
ATOM     13  C   LIG    1       23.754 -30.606  10.308  0.00  0.00    +0.042 C 
ATOM     14  C   LIG    1       26.904 -28.471  10.251  0.00  0.00    +0.049 A 
ATOM     15  C   LIG    1       23.800 -30.849   8.805  0.00  0.00    +0.052 C 
ENDBRANCH   4   5
BRANCH   4  16
ATOM     16  O   LIG    1       26.726 -31.706   6.503  0.00  0.00    -0.387 OA
ATOM     17  H   LIG    1       27.051 -32.430   7.064  0.00  0.00    +0.210 HD
ENDBRANCH   4  16
ENDBRANCH   3   4
ENDBRANCH   1   3
BRANCH   1  18
ATOM     18  C   LIG    1       25.445 -28.084   5.269  0.00  0.00    +0.115 C 
BRANCH  18  19
ATOM     19  C   LIG    1       26.217 -27.133   6.215  0.00  0.00    +0.169 C 
BRANCH  19  20
ATOM     20  C   LIG    1       25.374 -25.945   6.727  0.00  0.00    +0.203 C 
ATOM     21  O   LIG    1       26.180 -24.756   6.685  0.00  0.00    -0.486 OA
ATOM     22  C   LIG    1       25.501 -23.590   6.918  0.00  0.00    +0.124 A 
ATOM     23  C   LIG    1       24.105 -23.485   6.856  0.00  0.00    -0.003 A 
ATOM     24  C   LIG    1       23.501 -22.249   7.125  0.00  0.00    +0.045 A 
ATOM     25  C   LIG    1       24.292 -21.143   7.413  0.00  0.00    +0.124 A 
ATOM     26  C   LIG    1       25.675 -21.235   7.442  0.00  0.00    +0.042 A 
ATOM     27  F   LIG    1       23.705 -19.962   7.663  0.00  0.00    -0.205 F 
ATOM     28  C   LIG    1       23.256 -24.677   6.528  0.00  0.00    +0.042 C 
ATOM     29  C   LIG    1       26.284 -22.467   7.191  0.00  0.00    +0.049 A 
ATOM     30  C   LIG    1       24.102 -25.770   5.892  0.00  0.00    +0.052 C 
ENDBRANCH  19  20
BRANCH  19  31
ATOM     31  O   LIG    1       27.384 -26.646   5.537  0.00  0.00    -0.387 OA
ATOM     32  H   LIG    1       27.728 -27.412   5.035  0.00  0.00    +0.210 HD
ENDBRANCH  19  31
ENDBRANCH  18  19
ENDBRANCH   1  18
TORSDOF 8
ENDMDL
MODEL 7
REMARK VINA RESULT:      -9.1      4.766      7.057
REMARK  Name = *****
REMARK                            x       y       z     vdW  Elec       q    Type
REMARK                         _______ _______ _______ _____ _____    ______ ____
ROOT
ATOM      1  N   LIG    1       24.788 -23.023   4.959  0.00  0.00    -0.311 NA
ATOM      2  H   LIG    1       24.689 -22.964   3.943  0.00  0.00    +0.122 HD
ENDROOT
BRANCH   1   3
ATOM      3  C   LIG    1       24.604 -24.449   5.306  0.00  0.00    +0.115 C 
BRANCH   3   4
ATOM      4  C   LIG    1       25.836 -25.042   6.034  0.00  0.00    +0.169 C 
BRANCH   4   5
ATOM      5  C   LIG    1       25.731 -26.574   6.207  0.00  0.00    +0.203 C 
ATOM      6  O   LIG    1       26.116 -26.885   7.559  0.00  0.00    -0.486 OA
ATOM      7  C   LIG    1       25.879 -28.166   7.959  0.00  0.00    +0.124 A 
ATOM      8  C   LIG    1       25.010 -29.036   7.288  0.00  0.00    -0.003 A 
ATOM      9  C   LIG    1       24.822 -30.328   7.789  0.00  0.00    +0.045 A 
ATOM     10  C   LIG    1       25.468 -30.724   8.958  0.00  0.00    +0.124 A 
ATOM     11  C   LIG    1       26.313 -29.850   9.637  0.00  0.00    +0.042 A 
ATOM     12  F   LIG    1       25.269 -31.955   9.437  0.00  0.00    -0.205 F 
ATOM     13  C   LIG    1       24.310 -28.603   6.036  0.00  0.00    +0.042 C 
ATOM     14  C   LIG    1       26.517 -28.569   9.135  0.00  0.00    +0.049 A 
ATOM     15  C   LIG    1       24.317 -27.085   5.920  0.00  0.00    +0.052 C 
ENDBRANCH   4   5
BRANCH   4  16
ATOM     16  O   LIG    1       25.989 -24.373   7.296  0.00  0.00    -0.387 OA
ATOM     17  H   LIG    1       25.743 -25.006   7.992  0.00  0.00    +0.210 HD
ENDBRANCH   4  16
ENDBRANCH   3   4
ENDBRANCH   1   3
BRANCH   1  18
ATOM     18  C   LIG    1       23.751 -22.204   5.617  0.00  0.00    +0.115 C 
BRANCH  18  19
ATOM     19  C   LIG    1       24.339 -20.961   6.328  0.00  0.00    +0.169 C 
BRANCH  19  20
ATOM     20  C   LIG    1       25.846 -21.077   6.640  0.00  0.00    +0.203 C 
ATOM     21  O   LIG    1       26.538 -20.006   5.976  0.00  0.00    -0.486 OA
ATOM     22  C   LIG    1       27.854 -19.864   6.329  0.00  0.00    +0.124 A 
ATOM     23  C   LIG    1       28.414 -20.449   7.471  0.00  0.00    -0.003 A 
ATOM     24  C   LIG    1       29.777 -20.256   7.739  0.00  0.00    +0.045 A 
ATOM     25  C   LIG    1       30.541 -19.463   6.891  0.00  0.00    +0.124 A 
ATOM     26  C   LIG    1       29.981 -18.854   5.777  0.00  0.00    +0.042 A 
ATOM     27  F   LIG    1       31.843 -19.279   7.158  0.00  0.00    -0.205 F 
ATOM     28  C   LIG    1       27.583 -21.291   8.393  0.00  0.00    +0.042 C 
ATOM     29  C   LIG    1       28.628 -19.055   5.495  0.00  0.00    +0.049 A 
ATOM     30  C   LIG    1       26.102 -21.037   8.150  0.00  0.00    +0.052 C 
ENDBRANCH  19  20
BRANCH  19  31
ATOM     31  O   LIG    1       23.607 -20.727   7.540  0.00  0.00    -0.387 OA
ATOM     32  H   LIG    1       23.480 -19.757   7.582  0.00  0.00    +0.210 HD
ENDBRANCH  19  31
ENDBRANCH  18  19
ENDBRANCH   1  18
TORSDOF 8
ENDMDL
MODEL 8
REMARK VINA RESULT:      -9.1      6.093      9.346
REMARK  Name = *****
REMARK                            x       y       z     vdW  Elec       q    Type
REMARK                         _______ _______ _______ _____ _____    ______ ____
ROOT
ATOM      1  N   LIG    1       25.790 -29.551   5.402  0.00  0.00    -0.311 NA
ATOM      2  H   LIG    1       26.672 -29.558   5.921  0.00  0.00    +0.122 HD
ENDROOT
BRANCH   1   3
ATOM      3  C   LIG    1       25.441 -28.126   5.211  0.00  0.00    +0.115 C 
BRANCH   3   4
ATOM      4  C   LIG    1       26.234 -27.192   6.159  0.00  0.00    +0.169 C 
BRANCH   4   5
ATOM      5  C   LIG    1       25.365 -26.036   6.702  0.00  0.00    +0.203 C 
ATOM      6  O   LIG    1       26.186 -24.854   6.732  0.00  0.00    -0.486 OA
ATOM      7  C   LIG    1       25.530 -23.686   6.980  0.00  0.00    +0.124 A 
ATOM      8  C   LIG    1       24.142 -23.539   6.857  0.00  0.00    -0.003 A 
ATOM      9  C   LIG    1       23.564 -22.294   7.118  0.00  0.00    +0.045 A 
ATOM     10  C   LIG    1       24.369 -21.210   7.464  0.00  0.00    +0.124 A 
ATOM     11  C   LIG    1       25.750 -21.351   7.563  0.00  0.00    +0.042 A 
ATOM     12  F   LIG    1       23.809 -20.020   7.696  0.00  0.00    -0.205 F 
ATOM     13  C   LIG    1       23.280 -24.706   6.476  0.00  0.00    +0.042 C 
ATOM     14  C   LIG    1       26.330 -22.592   7.320  0.00  0.00    +0.049 A 
ATOM     15  C   LIG    1       24.121 -25.804   5.840  0.00  0.00    +0.052 C 
ENDBRANCH   4   5
BRANCH   4  16
ATOM     16  O   LIG    1       27.391 -26.707   5.461  0.00  0.00    -0.387 OA
ATOM     17  H   LIG    1       27.124 -25.907   4.975  0.00  0.00    +0.210 HD
ENDBRANCH   4  16
ENDBRANCH   3   4
ENDBRANCH   1   3
BRANCH   1  18
ATOM     18  C   LIG    1       24.738 -30.230   6.183  0.00  0.00    +0.115 C 
BRANCH  18  19
ATOM     19  C   LIG    1       25.311 -31.288   7.157  0.00  0.00    +0.169 C 
BRANCH  19  20
ATOM     20  C   LIG    1       25.195 -30.891   8.644  0.00  0.00    +0.203 C 
ATOM     21  O   LIG    1       26.094 -29.799   8.901  0.00  0.00    -0.486 OA
ATOM     22  C   LIG    1       25.950 -29.210  10.129  0.00  0.00    +0.124 A 
ATOM     23  C   LIG    1       24.823 -29.386  10.942  0.00  0.00    -0.003 A 
ATOM     24  C   LIG    1       24.775 -28.751  12.191  0.00  0.00    +0.045 A 
ATOM     25  C   LIG    1       25.825 -27.931  12.588  0.00  0.00    +0.124 A 
ATOM     26  C   LIG    1       26.927 -27.726  11.771  0.00  0.00    +0.042 A 
ATOM     27  F   LIG    1       25.767 -27.321  13.782  0.00  0.00    -0.205 F 
ATOM     28  C   LIG    1       23.685 -30.259  10.503  0.00  0.00    +0.042 C 
ATOM     29  C   LIG    1       26.989 -28.369  10.533  0.00  0.00    +0.049 A 
ATOM     30  C   LIG    1       23.756 -30.507   9.003  0.00  0.00    +0.052 C 
ENDBRANCH  19  20
BRANCH  19  31
ATOM     31  O   LIG    1       26.685 -31.534   6.824  0.00  0.00    -0.387 OA
ATOM     32  H   LIG    1       26.985 -30.727   6.358  0.00  0.00    +0.210 HD
ENDBRANCH  19  31
ENDBRANCH  18  19
ENDBRANCH   1  18
TORSDOF 8
ENDMDL
MODEL 9
REMARK VINA RESULT:      -9.1      6.401      9.991
REMARK  Name = *****
REMARK                            x       y       z     vdW  Elec       q    Type
REMARK                         _______ _______ _______ _____ _____    ______ ____
ROOT
ATOM      1  N   LIG    1       25.119 -26.754   4.817  0.00  0.00    -0.311 NA
ATOM      2  H   LIG    1       26.049 -26.335   4.748  0.00  0.00    +0.122 HD
ENDROOT
BRANCH   1   3
ATOM      3  C   LIG    1       24.436 -26.051   5.925  0.00  0.00    +0.115 C 
BRANCH   3   4
ATOM      4  C   LIG    1       25.340 -24.986   6.593  0.00  0.00    +0.169 C 
BRANCH   4   5
ATOM      5  C   LIG    1       24.668 -23.596   6.643  0.00  0.00    +0.203 C 
ATOM      6  O   LIG    1       25.014 -22.903   5.430  0.00  0.00    -0.486 OA
ATOM      7  C   LIG    1       24.336 -21.743   5.198  0.00  0.00    +0.124 A 
ATOM      8  C   LIG    1       23.146 -21.401   5.854  0.00  0.00    -0.003 A 
ATOM      9  C   LIG    1       22.516 -20.195   5.535  0.00  0.00    +0.045 A 
ATOM     10  C   LIG    1       23.056 -19.366   4.552  0.00  0.00    +0.124 A 
ATOM     11  C   LIG    1       24.225 -19.718   3.885  0.00  0.00    +0.042 A 
ATOM     12  F   LIG    1       22.438 -18.222   4.243  0.00  0.00    -0.205 F 
ATOM     13  C   LIG    1       22.565 -22.300   6.904  0.00  0.00    +0.042 C 
ATOM     14  C   LIG    1       24.865 -20.910   4.209  0.00  0.00    +0.049 A 
ATOM     15  C   LIG    1       23.147 -23.702   6.786  0.00  0.00    +0.052 C 
ENDBRANCH   4   5
BRANCH   4  16
ATOM     16  O   LIG    1       26.594 -24.946   5.895  0.00  0.00    -0.387 OA
ATOM     17  H   LIG    1       27.291 -24.794   6.557  0.00  0.00    +0.210 HD
ENDBRANCH   4  16
ENDBRANCH   3   4
ENDBRANCH   1   3
BRANCH   1  18
ATOM     18  C   LIG    1       25.234 -28.193   5.126  0.00  0.00    +0.115 C 
BRANCH  18  19
ATOM     19  C   LIG    1       24.132 -28.683   6.096  0.00  0.00    +0.169 C 
BRANCH  19  20
ATOM     20  C   LIG    1       24.677 -29.445   7.323  0.00  0.00    +0.203 C 
ATOM     21  O   LIG    1       23.588 -29.707   8.224  0.00  0.00    -0.486 OA
ATOM     22  C   LIG    1       23.886 -30.553   9.258  0.00  0.00    +0.124 A 
ATOM     23  C   LIG    1       25.017 -31.381   9.277  0.00  0.00    -0.003 A 
ATOM     24  C   LIG    1       25.243 -32.203  10.390  0.00  0.00    +0.045 A 
ATOM     25  C   LIG    1       24.329 -32.212  11.437  0.00  0.00    +0.124 A 
ATOM     26  C   LIG    1       23.191 -31.420  11.407  0.00  0.00    +0.042 A 
ATOM     27  F   LIG    1       24.551 -33.008  12.495  0.00  0.00    -0.205 F 
ATOM     28  C   LIG    1       25.991 -31.380   8.137  0.00  0.00    +0.042 C 
ATOM     29  C   LIG    1       22.968 -30.586  10.309  0.00  0.00    +0.049 A 
ATOM     30  C   LIG    1       25.362 -30.749   6.903  0.00  0.00    +0.052 C 
ENDBRANCH  19  20
BRANCH  19  31
ATOM     31  O   LIG    1       23.211 -29.514   5.375  0.00  0.00    -0.387 OA
ATOM     32  H   LIG    1       23.753 -30.244   5.011  0.00  0.00    +0.210 HD
ENDBRANCH  19  31
ENDBRANCH  18  19
ENDBRANCH   1  18
TORSDOF 8
ENDMDL
