MODEL 1
REMARK VINA RESULT:      -8.3      0.000      0.000
REMARK  Name = *****
REMARK                            x       y       z     vdW  Elec       q    Type
REMARK                         _______ _______ _______ _____ _____    ______ ____
ROOT
ATOM      1  C   LIG    1       25.460 -22.917   6.454  0.00  0.00    +0.064 C 
ATOM      2  C   LIG    1       25.756 -21.547   5.732  0.00  0.00    +0.039 C 
ATOM      3  C   LIG    1       26.728 -20.850   6.736  0.00  0.00    -0.002 C 
ATOM      4  C   LIG    1       27.486 -22.039   7.333  0.00  0.00    +0.009 C 
ATOM      5  C   LIG    1       25.990 -20.346   7.988  0.00  0.00    +0.004 C 
ATOM      6  C   LIG    1       25.570 -21.647   8.686  0.00  0.00    +0.005 C 
ATOM      7  C   LIG    1       26.207 -22.738   7.807  0.00  0.00    +0.007 C 
ENDROOT
BRANCH   2   8
ATOM      8  C   LIG    1       24.652 -20.628   5.244  0.00  0.00    -0.043 A 
ATOM      9  C   LIG    1       24.870 -19.834   4.104  0.00  0.00    +0.004 A 
ATOM     10  C   LIG    1       23.889 -18.950   3.644  0.00  0.00    +0.000 A 
ATOM     11  C   LIG    1       22.673 -18.845   4.314  0.00  0.00    +0.000 A 
ATOM     12  C   LIG    1       22.437 -19.625   5.441  0.00  0.00    +0.000 A 
ATOM     13  C   LIG    1       23.421 -20.499   5.900  0.00  0.00    +0.004 A 
ENDBRANCH   2   8
BRANCH   1  14
ATOM     14  N   LIG    1       24.092 -23.418   6.587  0.00  0.00    -0.313 NA
ATOM     15  H   LIG    1       23.753 -23.251   7.533  0.00  0.00    +0.122 HD
BRANCH  14  17
ATOM     16  C   LIG    1       25.013 -25.239   5.213  0.00  0.00    +0.020 C 
ATOM     17  C   LIG    1       24.015 -24.854   6.295  0.00  0.00    +0.077 C 
ENDBRANCH  14  17
ENDBRANCH   1  14
TORSDOF 3
ENDMDL
MODEL 2
REMARK VINA RESULT:      -7.8      1.324      4.555
REMARK  Name = *****
REMARK                            x       y       z     vdW  Elec       q    Type
REMARK                         _______ _______ _______ _____ _____    ______ ____
ROOT
ATOM      1  C   LIG    1       24.924 -21.094   6.398  0.00  0.00    +0.064 C 
ATOM      2  C   LIG    1       24.837 -22.347   7.350  0.00  0.00    +0.039 C 
ATOM      3  C   LIG    1       25.919 -22.018   8.427  0.00  0.00    -0.002 C 
ATOM      4  C   LIG    1       25.846 -20.490   8.504  0.00  0.00    +0.009 C 
ATOM      5  C   LIG    1       27.345 -22.192   7.875  0.00  0.00    +0.004 C 
ATOM      6  C   LIG    1       27.455 -21.058   6.846  0.00  0.00    +0.005 C 
ATOM      7  C   LIG    1       26.120 -20.308   7.006  0.00  0.00    +0.007 C 
ENDROOT
BRANCH   2   8
ATOM      8  C   LIG    1       24.932 -23.771   6.833  0.00  0.00    -0.043 A 
ATOM      9  C   LIG    1       23.754 -24.462   6.496  0.00  0.00    +0.004 A 
ATOM     10  C   LIG    1       23.799 -25.786   6.049  0.00  0.00    +0.000 A 
ATOM     11  C   LIG    1       25.021 -26.443   5.930  0.00  0.00    +0.000 A 
ATOM     12  C   LIG    1       26.198 -25.775   6.256  0.00  0.00    +0.000 A 
ATOM     13  C   LIG    1       26.146 -24.458   6.708  0.00  0.00    +0.004 A 
ENDBRANCH   2   8
BRANCH   1  14
ATOM     14  N   LIG    1       24.990 -21.255   4.945  0.00  0.00    -0.313 NA
ATOM     15  H   LIG    1       25.717 -20.650   4.563  0.00  0.00    +0.122 HD
BRANCH  14  17
ATOM     16  C   LIG    1       22.811 -20.162   5.270  0.00  0.00    +0.020 C 
ATOM     17  C   LIG    1       23.709 -20.927   4.309  0.00  0.00    +0.077 C 
ENDBRANCH  14  17
ENDBRANCH   1  14
TORSDOF 3
ENDMDL
MODEL 3
REMARK VINA RESULT:      -7.5      1.624      3.994
REMARK  Name = *****
REMARK                            x       y       z     vdW  Elec       q    Type
REMARK                         _______ _______ _______ _____ _____    ______ ____
ROOT
ATOM      1  C   LIG    1       25.212 -23.103   7.204  0.00  0.00    +0.064 C 
ATOM      2  C   LIG    1       25.691 -21.678   7.678  0.00  0.00    +0.039 C 
ATOM      3  C   LIG    1       24.470 -20.779   7.301  0.00  0.00    -0.002 C 
ATOM      4  C   LIG    1       23.290 -21.736   7.496  0.00  0.00    +0.009 C 
ATOM      5  C   LIG    1       24.380 -20.546   5.783  0.00  0.00    +0.004 C 
ATOM      6  C   LIG    1       24.026 -21.938   5.243  0.00  0.00    +0.005 C 
ATOM      7  C   LIG    1       23.853 -22.777   6.522  0.00  0.00    +0.007 C 
ENDROOT
BRANCH   2   8
ATOM      8  C   LIG    1       27.019 -21.080   7.252  0.00  0.00    -0.043 A 
ATOM      9  C   LIG    1       28.176 -21.372   7.994  0.00  0.00    +0.004 A 
ATOM     10  C   LIG    1       29.411 -20.812   7.652  0.00  0.00    +0.000 A 
ATOM     11  C   LIG    1       29.511 -19.953   6.561  0.00  0.00    +0.000 A 
ATOM     12  C   LIG    1       28.378 -19.654   5.812  0.00  0.00    +0.000 A 
ATOM     13  C   LIG    1       27.148 -20.208   6.162  0.00  0.00    +0.004 A 
ENDBRANCH   2   8
BRANCH   1  14
ATOM     14  N   LIG    1       26.088 -23.966   6.411  0.00  0.00    -0.313 NA
ATOM     15  H   LIG    1       26.120 -23.634   5.447  0.00  0.00    +0.122 HD
BRANCH  14  17
ATOM     16  C   LIG    1       25.368 -25.855   5.012  0.00  0.00    +0.020 C 
ATOM     17  C   LIG    1       25.627 -25.359   6.426  0.00  0.00    +0.077 C 
ENDBRANCH  14  17
ENDBRANCH   1  14
TORSDOF 3
ENDMDL
MODEL 4
REMARK VINA RESULT:      -7.5      1.560      3.134
REMARK  Name = *****
REMARK                            x       y       z     vdW  Elec       q    Type
REMARK                         _______ _______ _______ _____ _____    ______ ____
ROOT
ATOM      1  C   LIG    1       26.597 -21.077   7.055  0.00  0.00    +0.064 C 
ATOM      2  C   LIG    1       25.064 -20.710   7.089  0.00  0.00    +0.039 C 
ATOM      3  C   LIG    1       24.434 -21.987   7.730  0.00  0.00    -0.002 C 
ATOM      4  C   LIG    1       25.542 -22.454   8.680  0.00  0.00    +0.009 C 
ATOM      5  C   LIG    1       24.411 -23.168   6.744  0.00  0.00    +0.004 C 
ATOM      6  C   LIG    1       25.899 -23.504   6.576  0.00  0.00    +0.005 C 
ATOM      7  C   LIG    1       26.589 -22.547   7.564  0.00  0.00    +0.007 C 
ENDROOT
BRANCH   2   8
ATOM      8  C   LIG    1       24.312 -20.233   5.860  0.00  0.00    -0.043 A 
ATOM      9  C   LIG    1       25.010 -20.053   4.653  0.00  0.00    +0.004 A 
ATOM     10  C   LIG    1       24.357 -19.583   3.509  0.00  0.00    +0.000 A 
ATOM     11  C   LIG    1       22.998 -19.286   3.551  0.00  0.00    +0.000 A 
ATOM     12  C   LIG    1       22.290 -19.462   4.735  0.00  0.00    +0.000 A 
ATOM     13  C   LIG    1       22.946 -19.923   5.875  0.00  0.00    +0.004 A 
ENDBRANCH   2   8
BRANCH   1  14
ATOM     14  N   LIG    1       27.395 -20.866   5.847  0.00  0.00    -0.313 NA
ATOM     15  H   LIG    1       27.775 -21.755   5.525  0.00  0.00    +0.122 HD
BRANCH  14  17
ATOM     16  C   LIG    1       28.759 -19.777   7.580  0.00  0.00    +0.020 C 
ATOM     17  C   LIG    1       28.499 -19.930   6.089  0.00  0.00    +0.077 C 
ENDBRANCH  14  17
ENDBRANCH   1  14
TORSDOF 3
ENDMDL
MODEL 5
REMARK VINA RESULT:      -7.4      2.119      4.600
REMARK  Name = *****
REMARK                            x       y       z     vdW  Elec       q    Type
REMARK                         _______ _______ _______ _____ _____    ______ ____
ROOT
ATOM      1  C   LIG    1       25.805 -21.749   5.878  0.00  0.00    +0.064 C 
ATOM      2  C   LIG    1       27.071 -21.872   6.809  0.00  0.00    +0.039 C 
ATOM      3  C   LIG    1       26.426 -22.018   8.224  0.00  0.00    -0.002 C 
ATOM      4  C   LIG    1       25.131 -22.774   7.914  0.00  0.00    +0.009 C 
ATOM      5  C   LIG    1       25.846 -20.685   8.727  0.00  0.00    +0.004 C 
ATOM      6  C   LIG    1       24.664 -20.445   7.777  0.00  0.00    +0.005 C 
ATOM      7  C   LIG    1       24.645 -21.719   6.913  0.00  0.00    +0.007 C 
ENDROOT
BRANCH   2   8
ATOM      8  C   LIG    1       28.207 -20.866   6.778  0.00  0.00    -0.043 A 
ATOM      9  C   LIG    1       29.274 -21.003   7.684  0.00  0.00    +0.004 A 
ATOM     10  C   LIG    1       30.321 -20.077   7.709  0.00  0.00    +0.000 A 
ATOM     11  C   LIG    1       30.321 -18.999   6.828  0.00  0.00    +0.000 A 
ATOM     12  C   LIG    1       29.277 -18.848   5.921  0.00  0.00    +0.000 A 
ATOM     13  C   LIG    1       28.231 -19.770   5.907  0.00  0.00    +0.004 A 
ENDBRANCH   2   8
BRANCH   1  14
ATOM     14  N   LIG    1       25.722 -20.707   4.855  0.00  0.00    -0.313 NA
ATOM     15  H   LIG    1       25.781 -19.788   5.292  0.00  0.00    +0.122 HD
BRANCH  14  17
ATOM     16  C   LIG    1       23.919 -19.412   3.796  0.00  0.00    +0.020 C 
ATOM     17  C   LIG    1       24.469 -20.798   4.096  0.00  0.00    +0.077 C 
ENDBRANCH  14  17
ENDBRANCH   1  14
TORSDOF 3
ENDMDL
MODEL 6
REMARK VINA RESULT:      -7.4      1.414      4.187
REMARK  Name = *****
REMARK                            x       y       z     vdW  Elec       q    Type
REMARK                         _______ _______ _______ _____ _____    ______ ____
ROOT
ATOM      1  C   LIG    1       23.935 -22.103   5.417  0.00  0.00    +0.064 C 
ATOM      2  C   LIG    1       24.394 -20.834   6.231  0.00  0.00    +0.039 C 
ATOM      3  C   LIG    1       23.675 -19.675   5.469  0.00  0.00    -0.002 C 
ATOM      4  C   LIG    1       22.384 -20.351   4.995  0.00  0.00    +0.009 C 
ATOM      5  C   LIG    1       24.340 -19.386   4.112  0.00  0.00    +0.004 C 
ATOM      6  C   LIG    1       24.025 -20.649   3.298  0.00  0.00    +0.005 C 
ATOM      7  C   LIG    1       23.130 -21.464   4.249  0.00  0.00    +0.007 C 
ENDROOT
BRANCH   2   8
ATOM      8  C   LIG    1       25.854 -20.534   6.519  0.00  0.00    -0.043 A 
ATOM      9  C   LIG    1       26.309 -20.542   7.850  0.00  0.00    +0.004 A 
ATOM     10  C   LIG    1       27.639 -20.238   8.157  0.00  0.00    +0.000 A 
ATOM     11  C   LIG    1       28.537 -19.922   7.141  0.00  0.00    +0.000 A 
ATOM     12  C   LIG    1       28.106 -19.913   5.818  0.00  0.00    +0.000 A 
ATOM     13  C   LIG    1       26.777 -20.209   5.518  0.00  0.00    +0.004 A 
ENDBRANCH   2   8
BRANCH   1  14
ATOM     14  N   LIG    1       24.901 -23.116   4.994  0.00  0.00    -0.313 NA
ATOM     15  H   LIG    1       24.720 -23.384   4.027  0.00  0.00    +0.122 HD
BRANCH  14  17
ATOM     16  C   LIG    1       25.872 -24.237   6.956  0.00  0.00    +0.020 C 
ATOM     17  C   LIG    1       24.836 -24.310   5.845  0.00  0.00    +0.077 C 
ENDBRANCH  14  17
ENDBRANCH   1  14
TORSDOF 3
ENDMDL
MODEL 7
REMARK VINA RESULT:      -7.3      1.824      4.972
REMARK  Name = *****
REMARK                            x       y       z     vdW  Elec       q    Type
REMARK                         _______ _______ _______ _____ _____    ______ ____
ROOT
ATOM      1  C   LIG    1       25.660 -21.398   5.970  0.00  0.00    +0.064 C 
ATOM      2  C   LIG    1       24.834 -22.585   5.344  0.00  0.00    +0.039 C 
ATOM      3  C   LIG    1       23.369 -22.211   5.739  0.00  0.00    -0.002 C 
ATOM      4  C   LIG    1       23.409 -20.680   5.716  0.00  0.00    +0.009 C 
ATOM      5  C   LIG    1       23.102 -22.451   7.235  0.00  0.00    +0.004 C 
ATOM      6  C   LIG    1       23.977 -21.389   7.914  0.00  0.00    +0.005 C 
ATOM      7  C   LIG    1       24.559 -20.601   6.726  0.00  0.00    +0.007 C 
ENDROOT
BRANCH   2   8
ATOM      8  C   LIG    1       25.165 -24.041   5.615  0.00  0.00    -0.043 A 
ATOM      9  C   LIG    1       24.935 -24.999   4.612  0.00  0.00    +0.004 A 
ATOM     10  C   LIG    1       25.196 -26.354   4.836  0.00  0.00    +0.000 A 
ATOM     11  C   LIG    1       25.692 -26.776   6.067  0.00  0.00    +0.000 A 
ATOM     12  C   LIG    1       25.929 -25.843   7.072  0.00  0.00    +0.000 A 
ATOM     13  C   LIG    1       25.660 -24.494   6.845  0.00  0.00    +0.004 A 
ENDBRANCH   2   8
BRANCH   1  14
ATOM     14  N   LIG    1       26.864 -21.654   6.762  0.00  0.00    -0.313 NA
ATOM     15  H   LIG    1       26.608 -22.076   7.654  0.00  0.00    +0.122 HD
BRANCH  14  17
ATOM     16  C   LIG    1       28.093 -19.804   5.706  0.00  0.00    +0.020 C 
ATOM     17  C   LIG    1       27.614 -20.418   7.013  0.00  0.00    +0.077 C 
ENDBRANCH  14  17
ENDBRANCH   1  14
TORSDOF 3
ENDMDL
MODEL 8
REMARK VINA RESULT:      -7.2      1.728      4.384
REMARK  Name = *****
REMARK                            x       y       z     vdW  Elec       q    Type
REMARK                         _______ _______ _______ _____ _____    ______ ____
ROOT
ATOM      1  C   LIG    1       24.858 -21.945   5.262  0.00  0.00    +0.064 C 
ATOM      2  C   LIG    1       25.843 -22.212   6.463  0.00  0.00    +0.039 C 
ATOM      3  C   LIG    1       24.869 -22.257   7.683  0.00  0.00    -0.002 C 
ATOM      4  C   LIG    1       23.601 -22.851   7.063  0.00  0.00    +0.009 C 
ATOM      5  C   LIG    1       24.356 -20.856   8.056  0.00  0.00    +0.004 C 
ATOM      6  C   LIG    1       23.470 -20.485   6.859  0.00  0.00    +0.005 C 
ATOM      7  C   LIG    1       23.499 -21.758   5.994  0.00  0.00    +0.007 C 
ENDROOT
BRANCH   2   8
ATOM      8  C   LIG    1       27.069 -21.354   6.718  0.00  0.00    -0.043 A 
ATOM      9  C   LIG    1       27.346 -20.275   5.860  0.00  0.00    +0.004 A 
ATOM     10  C   LIG    1       28.485 -19.484   6.043  0.00  0.00    +0.000 A 
ATOM     11  C   LIG    1       29.365 -19.756   7.087  0.00  0.00    +0.000 A 
ATOM     12  C   LIG    1       29.106 -20.817   7.949  0.00  0.00    +0.000 A 
ATOM     13  C   LIG    1       27.974 -21.607   7.757  0.00  0.00    +0.004 A 
ENDBRANCH   2   8
BRANCH   1  14
ATOM     14  N   LIG    1       25.149 -20.915   4.265  0.00  0.00    -0.313 NA
ATOM     15  H   LIG    1       25.534 -20.090   4.723  0.00  0.00    +0.122 HD
BRANCH  14  17
ATOM     16  C   LIG    1       23.721 -19.029   3.591  0.00  0.00    +0.020 C 
ATOM     17  C   LIG    1       23.943 -20.532   3.521  0.00  0.00    +0.077 C 
ENDBRANCH  14  17
ENDBRANCH   1  14
TORSDOF 3
ENDMDL
MODEL 9
REMARK VINA RESULT:      -7.1      1.453      4.312
REMARK  Name = *****
REMARK                            x       y       z     vdW  Elec       q    Type
REMARK                         _______ _______ _______ _____ _____    ______ ____
ROOT
ATOM      1  C   LIG    1       25.933 -20.452   6.249  0.00  0.00    +0.064 C 
ATOM      2  C   LIG    1       25.414 -21.490   7.315  0.00  0.00    +0.039 C 
ATOM      3  C   LIG    1       26.548 -21.456   8.388  0.00  0.00    -0.002 C 
ATOM      4  C   LIG    1       27.020 -20.000   8.314  0.00  0.00    +0.009 C 
ATOM      5  C   LIG    1       27.817 -22.175   7.901  0.00  0.00    +0.004 C 
ATOM      6  C   LIG    1       28.316 -21.264   6.771  0.00  0.00    +0.005 C 
ATOM      7  C   LIG    1       27.334 -20.080   6.815  0.00  0.00    +0.007 C 
ENDROOT
BRANCH   2   8
ATOM      8  C   LIG    1       24.996 -22.901   6.943  0.00  0.00    -0.043 A 
ATOM      9  C   LIG    1       23.628 -23.207   6.829  0.00  0.00    +0.004 A 
ATOM     10  C   LIG    1       23.205 -24.504   6.521  0.00  0.00    +0.000 A 
ATOM     11  C   LIG    1       24.139 -25.516   6.321  0.00  0.00    +0.000 A 
ATOM     12  C   LIG    1       25.497 -25.232   6.425  0.00  0.00    +0.000 A 
ATOM     13  C   LIG    1       25.914 -23.939   6.740  0.00  0.00    +0.004 A 
ENDBRANCH   2   8
BRANCH   1  14
ATOM     14  N   LIG    1       25.931 -20.773   4.822  0.00  0.00    -0.313 NA
ATOM     15  H   LIG    1       26.868 -20.652   4.439  0.00  0.00    +0.122 HD
BRANCH  14  17
ATOM     16  C   LIG    1       23.600 -20.003   4.681  0.00  0.00    +0.020 C 
ATOM     17  C   LIG    1       24.995 -19.920   4.080  0.00  0.00    +0.077 C 
ENDBRANCH  14  17
ENDBRANCH   1  14
TORSDOF 3
ENDMDL
