MODEL 1
REMARK VINA RESULT:      -4.9      0.000      0.000
REMARK  Name = *****
REMARK                            x       y       z     vdW  Elec       q    Type
REMARK                         _______ _______ _______ _____ _____    ______ ____
ROOT
ATOM      1  O   LIG    1       24.613 -18.206   3.322  0.00  0.00    -0.454 OA
ENDROOT
BRANCH   1   2
ATOM      2  C   LIG    1       24.418 -19.492   3.979  0.00  0.00    +0.123 C 
ATOM      3  C   LIG    1       24.076 -20.505   2.867  0.00  0.00    +0.057 C 
BRANCH   2   5
ATOM      4  C   LIG    1       22.063 -18.513   4.476  0.00  0.00    +0.008 C 
ATOM      5  C   LIG    1       23.193 -19.429   4.949  0.00  0.00    +0.045 C 
ENDBRANCH   2   5
BRANCH   2   6
ATOM      6  C   LIG    1       25.715 -19.946   4.743  0.00  0.00    +0.131 C 
BRANCH   6   7
ATOM      7  N   LIG    1       25.629 -20.282   6.195  0.00  0.00    -0.305 NA
ATOM      8  C   LIG    1       26.972 -20.284   6.790  0.00  0.00    +0.104 C 
ATOM      9  C   LIG    1       24.990 -21.571   6.462  0.00  0.00    +0.104 C 
ENDBRANCH   6   7
ENDBRANCH   2   6
ENDBRANCH   1   2
BRANCH   1  10
ATOM     10  C   LIG    1       25.770 -17.522   3.472  0.00  0.00    +0.340 C 
ATOM     11  O   LIG    1       26.901 -17.993   3.608  0.00  0.00    -0.245 OA
BRANCH  10  12
ATOM     12  C   LIG    1       25.509 -16.069   3.537  0.00  0.00    +0.059 A 
ATOM     13  C   LIG    1       24.251 -15.636   3.980  0.00  0.00    +0.015 A 
ATOM     14  C   LIG    1       23.951 -14.276   4.029  0.00  0.00    +0.001 A 
ATOM     15  C   LIG    1       24.909 -13.341   3.638  0.00  0.00    +0.000 A 
ATOM     16  C   LIG    1       26.168 -13.763   3.205  0.00  0.00    +0.001 A 
ATOM     17  C   LIG    1       26.470 -15.123   3.154  0.00  0.00    +0.015 A 
ENDBRANCH  10  12
ENDBRANCH   1  10
TORSDOF 6
ENDMDL
MODEL 2
REMARK VINA RESULT:      -4.9      2.377      5.758
REMARK  Name = *****
REMARK                            x       y       z     vdW  Elec       q    Type
REMARK                         _______ _______ _______ _____ _____    ______ ____
ROOT
ATOM      1  O   LIG    1       24.543 -15.819   3.678  0.00  0.00    -0.454 OA
ENDROOT
BRANCH   1   2
ATOM      2  C   LIG    1       25.185 -14.512   3.636  0.00  0.00    +0.123 C 
ATOM      3  C   LIG    1       24.278 -13.553   4.432  0.00  0.00    +0.057 C 
BRANCH   2   5
ATOM      4  C   LIG    1       24.556 -12.639   1.948  0.00  0.00    +0.008 C 
ATOM      5  C   LIG    1       25.252 -13.984   2.166  0.00  0.00    +0.045 C 
ENDBRANCH   2   5
BRANCH   2   6
ATOM      6  C   LIG    1       26.619 -14.559   4.279  0.00  0.00    +0.131 C 
BRANCH   6   7
ATOM      7  N   LIG    1       27.382 -13.289   4.459  0.00  0.00    -0.305 NA
ATOM      8  C   LIG    1       28.609 -13.322   3.651  0.00  0.00    +0.104 C 
ATOM      9  C   LIG    1       27.739 -13.011   5.851  0.00  0.00    +0.104 C 
ENDBRANCH   6   7
ENDBRANCH   2   6
ENDBRANCH   1   2
BRANCH   1  10
ATOM     10  C   LIG    1       25.256 -16.948   3.460  0.00  0.00    +0.340 C 
ATOM     11  O   LIG    1       26.386 -17.032   2.974  0.00  0.00    -0.245 OA
BRANCH  10  12
ATOM     12  C   LIG    1       24.460 -18.142   3.814  0.00  0.00    +0.059 A 
ATOM     13  C   LIG    1       23.131 -17.960   4.224  0.00  0.00    +0.015 A 
ATOM     14  C   LIG    1       22.354 -19.055   4.596  0.00  0.00    +0.001 A 
ATOM     15  C   LIG    1       22.900 -20.338   4.555  0.00  0.00    +0.000 A 
ATOM     16  C   LIG    1       24.218 -20.528   4.139  0.00  0.00    +0.001 A 
ATOM     17  C   LIG    1       24.999 -19.434   3.767  0.00  0.00    +0.015 A 
ENDBRANCH  10  12
ENDBRANCH   1  10
TORSDOF 6
ENDMDL
MODEL 3
REMARK VINA RESULT:      -4.8      0.558      1.449
REMARK  Name = *****
REMARK                            x       y       z     vdW  Elec       q    Type
REMARK                         _______ _______ _______ _____ _____    ______ ____
ROOT
ATOM      1  O   LIG    1       24.475 -18.203   3.319  0.00  0.00    -0.454 OA
ENDROOT
BRANCH   1   2
ATOM      2  C   LIG    1       24.221 -19.472   3.989  0.00  0.00    +0.123 C 
ATOM      3  C   LIG    1       24.387 -20.572   2.921  0.00  0.00    +0.057 C 
BRANCH   2   5
ATOM      4  C   LIG    1       22.030 -18.180   4.522  0.00  0.00    +0.008 C 
ATOM      5  C   LIG    1       22.744 -19.532   4.499  0.00  0.00    +0.045 C 
ENDBRANCH   2   5
BRANCH   2   6
ATOM      6  C   LIG    1       25.231 -19.707   5.170  0.00  0.00    +0.131 C 
BRANCH   6   7
ATOM      7  N   LIG    1       25.171 -20.984   5.941  0.00  0.00    -0.305 NA
ATOM      8  C   LIG    1       24.227 -20.851   7.059  0.00  0.00    +0.104 C 
ATOM      9  C   LIG    1       26.468 -21.415   6.464  0.00  0.00    +0.104 C 
ENDBRANCH   6   7
ENDBRANCH   2   6
ENDBRANCH   1   2
BRANCH   1  10
ATOM     10  C   LIG    1       25.660 -17.568   3.467  0.00  0.00    +0.340 C 
ATOM     11  O   LIG    1       26.772 -18.087   3.589  0.00  0.00    -0.245 OA
BRANCH  10  12
ATOM     12  C   LIG    1       25.459 -16.106   3.551  0.00  0.00    +0.059 A 
ATOM     13  C   LIG    1       26.521 -15.265   3.189  0.00  0.00    +0.015 A 
ATOM     14  C   LIG    1       26.385 -13.881   3.281  0.00  0.00    +0.001 A 
ATOM     15  C   LIG    1       25.185 -13.332   3.731  0.00  0.00    +0.000 A 
ATOM     16  C   LIG    1       24.120 -14.162   4.084  0.00  0.00    +0.001 A 
ATOM     17  C   LIG    1       24.253 -15.547   3.995  0.00  0.00    +0.015 A 
ENDBRANCH  10  12
ENDBRANCH   1  10
TORSDOF 6
ENDMDL
MODEL 4
REMARK VINA RESULT:      -4.7      1.247      1.919
REMARK  Name = *****
REMARK                            x       y       z     vdW  Elec       q    Type
REMARK                         _______ _______ _______ _____ _____    ______ ____
ROOT
ATOM      1  O   LIG    1       24.317 -19.052   3.658  0.00  0.00    -0.454 OA
ENDROOT
BRANCH   1   2
ATOM      2  C   LIG    1       24.433 -20.272   4.447  0.00  0.00    +0.123 C 
ATOM      3  C   LIG    1       23.742 -21.386   3.634  0.00  0.00    +0.057 C 
BRANCH   2   5
ATOM      4  C   LIG    1       22.987 -21.412   6.280  0.00  0.00    +0.008 C 
ATOM      5  C   LIG    1       23.656 -20.124   5.796  0.00  0.00    +0.045 C 
ENDBRANCH   2   5
BRANCH   2   6
ATOM      6  C   LIG    1       25.938 -20.645   4.705  0.00  0.00    +0.131 C 
BRANCH   6   7
ATOM      7  N   LIG    1       26.556 -20.322   6.025  0.00  0.00    -0.305 NA
ATOM      8  C   LIG    1       27.879 -19.717   5.825  0.00  0.00    +0.104 C 
ATOM      9  C   LIG    1       26.693 -21.482   6.908  0.00  0.00    +0.104 C 
ENDBRANCH   6   7
ENDBRANCH   2   6
ENDBRANCH   1   2
BRANCH   1  10
ATOM     10  C   LIG    1       23.428 -18.091   3.997  0.00  0.00    +0.340 C 
ATOM     11  O   LIG    1       22.234 -18.242   4.261  0.00  0.00    -0.245 OA
BRANCH  10  12
ATOM     12  C   LIG    1       24.059 -16.755   3.937  0.00  0.00    +0.059 A 
ATOM     13  C   LIG    1       23.307 -15.643   4.341  0.00  0.00    +0.015 A 
ATOM     14  C   LIG    1       23.853 -14.363   4.272  0.00  0.00    +0.001 A 
ATOM     15  C   LIG    1       25.154 -14.188   3.803  0.00  0.00    +0.000 A 
ATOM     16  C   LIG    1       25.913 -15.291   3.408  0.00  0.00    +0.001 A 
ATOM     17  C   LIG    1       25.370 -16.574   3.474  0.00  0.00    +0.015 A 
ENDBRANCH  10  12
ENDBRANCH   1  10
TORSDOF 6
ENDMDL
MODEL 5
REMARK VINA RESULT:      -4.6      2.737      6.482
REMARK  Name = *****
REMARK                            x       y       z     vdW  Elec       q    Type
REMARK                         _______ _______ _______ _____ _____    ______ ____
ROOT
ATOM      1  O   LIG    1       24.920 -16.011   3.612  0.00  0.00    -0.454 OA
ENDROOT
BRANCH   1   2
ATOM      2  C   LIG    1       25.357 -14.621   3.632  0.00  0.00    +0.123 C 
ATOM      3  C   LIG    1       26.489 -14.502   2.592  0.00  0.00    +0.057 C 
BRANCH   2   5
ATOM      4  C   LIG    1       27.329 -13.578   4.963  0.00  0.00    +0.008 C 
ATOM      5  C   LIG    1       25.961 -14.258   5.027  0.00  0.00    +0.045 C 
ENDBRANCH   2   5
BRANCH   2   6
ATOM      6  C   LIG    1       24.179 -13.647   3.261  0.00  0.00    +0.131 C 
BRANCH   6   7
ATOM      7  N   LIG    1       24.447 -12.182   3.154  0.00  0.00    -0.305 NA
ATOM      8  C   LIG    1       23.605 -11.447   4.107  0.00  0.00    +0.104 C 
ATOM      9  C   LIG    1       24.226 -11.642   1.812  0.00  0.00    +0.104 C 
ENDBRANCH   6   7
ENDBRANCH   2   6
ENDBRANCH   1   2
BRANCH   1  10
ATOM     10  C   LIG    1       23.693 -16.357   4.063  0.00  0.00    +0.340 C 
ATOM     11  O   LIG    1       22.791 -15.598   4.422  0.00  0.00    -0.245 OA
BRANCH  10  12
ATOM     12  C   LIG    1       23.570 -17.827   4.157  0.00  0.00    +0.059 A 
ATOM     13  C   LIG    1       24.611 -18.617   3.649  0.00  0.00    +0.015 A 
ATOM     14  C   LIG    1       24.523 -20.007   3.691  0.00  0.00    +0.001 A 
ATOM     15  C   LIG    1       23.396 -20.614   4.243  0.00  0.00    +0.000 A 
ATOM     16  C   LIG    1       22.360 -19.835   4.760  0.00  0.00    +0.001 A 
ATOM     17  C   LIG    1       22.444 -18.443   4.719  0.00  0.00    +0.015 A 
ENDBRANCH  10  12
ENDBRANCH   1  10
TORSDOF 6
ENDMDL
MODEL 6
REMARK VINA RESULT:      -4.4      2.617      5.869
REMARK  Name = *****
REMARK                            x       y       z     vdW  Elec       q    Type
REMARK                         _______ _______ _______ _____ _____    ______ ____
ROOT
ATOM      1  O   LIG    1       24.706 -15.257   3.665  0.00  0.00    -0.454 OA
ENDROOT
BRANCH   1   2
ATOM      2  C   LIG    1       24.958 -13.826   3.554  0.00  0.00    +0.123 C 
ATOM      3  C   LIG    1       24.682 -13.224   4.947  0.00  0.00    +0.057 C 
BRANCH   2   5
ATOM      4  C   LIG    1       24.242 -11.702   2.240  0.00  0.00    +0.008 C 
ATOM      5  C   LIG    1       23.952 -13.171   2.552  0.00  0.00    +0.045 C 
ENDBRANCH   2   5
BRANCH   2   6
ATOM      6  C   LIG    1       26.443 -13.538   3.125  0.00  0.00    +0.131 C 
BRANCH   6   7
ATOM      7  N   LIG    1       27.548 -13.802   4.093  0.00  0.00    -0.305 NA
ATOM      8  C   LIG    1       28.740 -13.031   3.716  0.00  0.00    +0.104 C 
ATOM      9  C   LIG    1       27.911 -15.216   4.196  0.00  0.00    +0.104 C 
ENDBRANCH   6   7
ENDBRANCH   2   6
ENDBRANCH   1   2
BRANCH   1  10
ATOM     10  C   LIG    1       23.576 -15.717   4.247  0.00  0.00    +0.340 C 
ATOM     11  O   LIG    1       22.715 -15.054   4.828  0.00  0.00    -0.245 OA
BRANCH  10  12
ATOM     12  C   LIG    1       23.518 -17.192   4.174  0.00  0.00    +0.059 A 
ATOM     13  C   LIG    1       22.361 -17.839   4.632  0.00  0.00    +0.015 A 
ATOM     14  C   LIG    1       22.277 -19.229   4.609  0.00  0.00    +0.001 A 
ATOM     15  C   LIG    1       23.347 -19.981   4.126  0.00  0.00    +0.000 A 
ATOM     16  C   LIG    1       24.499 -19.345   3.659  0.00  0.00    +0.001 A 
ATOM     17  C   LIG    1       24.587 -17.954   3.682  0.00  0.00    +0.015 A 
ENDBRANCH  10  12
ENDBRANCH   1  10
TORSDOF 6
ENDMDL
MODEL 7
REMARK VINA RESULT:      -3.9      2.821      5.474
REMARK  Name = *****
REMARK                            x       y       z     vdW  Elec       q    Type
REMARK                         _______ _______ _______ _____ _____    ______ ____
ROOT
ATOM      1  O   LIG    1       24.466 -19.740   5.455  0.00  0.00    -0.454 OA
ENDROOT
BRANCH   1   2
ATOM      2  C   LIG    1       23.804 -20.064   4.198  0.00  0.00    +0.123 C 
ATOM      3  C   LIG    1       24.028 -21.571   3.961  0.00  0.00    +0.057 C 
BRANCH   2   5
ATOM      4  C   LIG    1       25.444 -18.195   3.447  0.00  0.00    +0.008 C 
ATOM      5  C   LIG    1       24.477 -19.297   3.013  0.00  0.00    +0.045 C 
ENDBRANCH   2   5
BRANCH   2   6
ATOM      6  C   LIG    1       22.264 -19.751   4.265  0.00  0.00    +0.131 C 
BRANCH   6   7
ATOM      7  N   LIG    1       21.752 -18.472   3.691  0.00  0.00    -0.305 NA
ATOM      8  C   LIG    1       21.960 -17.375   4.646  0.00  0.00    +0.104 C 
ATOM      9  C   LIG    1       20.336 -18.520   3.325  0.00  0.00    +0.104 C 
ENDBRANCH   6   7
ENDBRANCH   2   6
ENDBRANCH   1   2
BRANCH   1  10
ATOM     10  C   LIG    1       24.965 -20.717   6.245  0.00  0.00    +0.340 C 
ATOM     11  O   LIG    1       24.328 -21.559   6.881  0.00  0.00    -0.245 OA
BRANCH  10  12
ATOM     12  C   LIG    1       26.437 -20.613   6.331  0.00  0.00    +0.059 A 
ATOM     13  C   LIG    1       27.067 -19.528   5.706  0.00  0.00    +0.015 A 
ATOM     14  C   LIG    1       28.455 -19.407   5.736  0.00  0.00    +0.001 A 
ATOM     15  C   LIG    1       29.220 -20.368   6.396  0.00  0.00    +0.000 A 
ATOM     16  C   LIG    1       28.600 -21.447   7.029  0.00  0.00    +0.001 A 
ATOM     17  C   LIG    1       27.212 -21.572   7.000  0.00  0.00    +0.015 A 
ENDBRANCH  10  12
ENDBRANCH   1  10
TORSDOF 6
ENDMDL
MODEL 8
REMARK VINA RESULT:      -2.7      1.502      2.558
REMARK  Name = *****
REMARK                            x       y       z     vdW  Elec       q    Type
REMARK                         _______ _______ _______ _____ _____    ______ ____
ROOT
ATOM      1  O   LIG    1       23.729 -17.467   4.088  0.00  0.00    -0.454 OA
ENDROOT
BRANCH   1   2
ATOM      2  C   LIG    1       22.978 -18.708   4.224  0.00  0.00    +0.123 C 
ATOM      3  C   LIG    1       21.610 -18.467   3.554  0.00  0.00    +0.057 C 
BRANCH   2   5
ATOM      4  C   LIG    1       22.734 -20.514   6.076  0.00  0.00    +0.008 C 
ATOM      5  C   LIG    1       22.714 -19.024   5.732  0.00  0.00    +0.045 C 
ENDBRANCH   2   5
BRANCH   2   6
ATOM      6  C   LIG    1       23.720 -19.905   3.523  0.00  0.00    +0.131 C 
BRANCH   6   7
ATOM      7  N   LIG    1       25.212 -19.938   3.517  0.00  0.00    -0.305 NA
ATOM      8  C   LIG    1       25.709 -20.410   4.816  0.00  0.00    +0.104 C 
ATOM      9  C   LIG    1       25.826 -18.644   3.216  0.00  0.00    +0.104 C 
ENDBRANCH   6   7
ENDBRANCH   2   6
ENDBRANCH   1   2
BRANCH   1  10
ATOM     10  C   LIG    1       23.191 -16.287   4.474  0.00  0.00    +0.340 C 
ATOM     11  O   LIG    1       22.116 -16.113   5.049  0.00  0.00    -0.245 OA
BRANCH  10  12
ATOM     12  C   LIG    1       24.043 -15.161   4.038  0.00  0.00    +0.059 A 
ATOM     13  C   LIG    1       23.536 -13.859   4.148  0.00  0.00    +0.015 A 
ATOM     14  C   LIG    1       24.293 -12.770   3.720  0.00  0.00    +0.001 A 
ATOM     15  C   LIG    1       25.564 -12.978   3.185  0.00  0.00    +0.000 A 
ATOM     16  C   LIG    1       26.081 -14.270   3.081  0.00  0.00    +0.001 A 
ATOM     17  C   LIG    1       25.325 -15.362   3.506  0.00  0.00    +0.015 A 
ENDBRANCH  10  12
ENDBRANCH   1  10
TORSDOF 6
ENDMDL
MODEL 9
REMARK VINA RESULT:      -2.6      1.299      2.738
REMARK  Name = *****
REMARK                            x       y       z     vdW  Elec       q    Type
REMARK                         _______ _______ _______ _____ _____    ______ ____
ROOT
ATOM      1  O   LIG    1       24.644 -17.862   3.794  0.00  0.00    -0.454 OA
ENDROOT
BRANCH   1   2
ATOM      2  C   LIG    1       24.830 -19.280   4.073  0.00  0.00    +0.123 C 
ATOM      3  C   LIG    1       26.315 -19.462   4.448  0.00  0.00    +0.057 C 
BRANCH   2   5
ATOM      4  C   LIG    1       24.135 -21.570   3.062  0.00  0.00    +0.008 C 
ATOM      5  C   LIG    1       24.564 -20.128   2.787  0.00  0.00    +0.045 C 
ENDBRANCH   2   5
BRANCH   2   6
ATOM      6  C   LIG    1       23.911 -19.755   5.257  0.00  0.00    +0.131 C 
BRANCH   6   7
ATOM      7  N   LIG    1       22.450 -19.451   5.218  0.00  0.00    -0.305 NA
ATOM      8  C   LIG    1       21.695 -20.658   4.858  0.00  0.00    +0.104 C 
ATOM      9  C   LIG    1       22.100 -18.377   4.287  0.00  0.00    +0.104 C 
ENDBRANCH   6   7
ENDBRANCH   2   6
ENDBRANCH   1   2
BRANCH   1  10
ATOM     10  C   LIG    1       25.688 -17.088   3.420  0.00  0.00    +0.340 C 
ATOM     11  O   LIG    1       26.816 -17.466   3.096  0.00  0.00    -0.245 OA
BRANCH  10  12
ATOM     12  C   LIG    1       25.335 -15.656   3.520  0.00  0.00    +0.059 A 
ATOM     13  C   LIG    1       26.236 -14.710   3.012  0.00  0.00    +0.015 A 
ATOM     14  C   LIG    1       25.957 -13.348   3.113  0.00  0.00    +0.001 A 
ATOM     15  C   LIG    1       24.775 -12.926   3.719  0.00  0.00    +0.000 A 
ATOM     16  C   LIG    1       23.867 -13.862   4.218  0.00  0.00    +0.001 A 
ATOM     17  C   LIG    1       24.144 -15.226   4.120  0.00  0.00    +0.015 A 
ENDBRANCH  10  12
ENDBRANCH   1  10
TORSDOF 6
ENDMDL
