MODEL 1
REMARK VINA RESULT:      -7.6      0.000      0.000
REMARK  Name = *****
REMARK                            x       y       z     vdW  Elec       q    Type
REMARK                         _______ _______ _______ _____ _____    ______ ____
ROOT
ATOM      1  C   LIG    1       27.204 -21.407   6.866  0.00  0.00    +0.080 A 
ATOM      2  C   LIG    1       26.828 -20.596   5.783  0.00  0.00    +0.134 A 
ATOM      3  C   LIG    1       27.663 -19.519   5.416  0.00  0.00    +0.071 A 
ATOM      4  C   LIG    1       28.849 -19.213   6.112  0.00  0.00    +0.053 A 
ATOM      5  C   LIG    1       29.246 -20.089   7.127  0.00  0.00    +0.110 A 
ATOM      6  C   LIG    1       28.432 -21.163   7.498  0.00  0.00    +0.045 A 
ENDROOT
BRANCH   1   9
ATOM      7  N   LIG    1       26.191 -23.650   6.678  0.00  0.00    -0.310 N 
ATOM      8  H   LIG    1       26.660 -23.728   5.782  0.00  0.00    +0.149 HD
ATOM      9  C   LIG    1       26.426 -22.542   7.454  0.00  0.00    +0.248 C 
ATOM     10  O   LIG    1       25.964 -22.431   8.588  0.00  0.00    -0.270 OA
BRANCH   7  11
ATOM     11  C   LIG    1       25.289 -24.710   7.123  0.00  0.00    +0.123 C 
BRANCH  11  13
ATOM     12  N   LIG    1       25.396 -27.261   7.264  0.00  0.00    -0.298 NA
ATOM     13  C   LIG    1       25.518 -26.057   6.401  0.00  0.00    +0.074 C 
ATOM     14  C   LIG    1       24.419 -26.305   5.368  0.00  0.00    +0.021 C 
ATOM     15  C   LIG    1       24.496 -27.790   5.094  0.00  0.00    +0.017 C 
ATOM     16  C   LIG    1       25.082 -28.385   6.366  0.00  0.00    +0.085 C 
BRANCH  12  18
ATOM     17  C   LIG    1       26.394 -28.521   9.192  0.00  0.00    +0.020 C 
ATOM     18  C   LIG    1       26.612 -27.519   8.054  0.00  0.00    +0.081 C 
ENDBRANCH  12  18
ENDBRANCH  11  13
ENDBRANCH   7  11
ENDBRANCH   1   9
BRANCH   4  19
ATOM     19  N   LIG    1       29.678 -18.199   5.602  0.00  0.00    -0.356 N 
ATOM     20  H   LIG    1       30.650 -18.475   5.484  0.00  0.00    +0.142 HD
ATOM     21  H   LIG    1       29.339 -17.788   4.729  0.00  0.00    +0.142 HD
ENDBRANCH   4  19
BRANCH   5  22
ATOM     22  S   LIG    1       30.729 -19.839   8.067  0.00  0.00    -0.002 S 
ATOM     23  O   LIG    1       31.825 -19.640   7.146  0.00  0.00    -0.169 OA
ATOM     24  O   LIG    1       30.768 -20.923   9.046  0.00  0.00    -0.169 OA
BRANCH  22  25
ATOM     25  C   LIG    1       30.454 -18.314   8.932  0.00  0.00    +0.168 C 
ATOM     26  C   LIG    1       31.726 -17.500   9.020  0.00  0.00    +0.028 C 
ENDBRANCH  22  25
ENDBRANCH   5  22
BRANCH   2  27
ATOM     27  O   LIG    1       25.647 -20.874   5.138  0.00  0.00    -0.494 OA
ATOM     28  C   LIG    1       25.257 -19.955   4.115  0.00  0.00    +0.277 C 
ENDBRANCH   2  27
TORSDOF 8
ENDMDL
MODEL 2
REMARK VINA RESULT:      -7.4      3.320      5.130
REMARK  Name = *****
REMARK                            x       y       z     vdW  Elec       q    Type
REMARK                         _______ _______ _______ _____ _____    ______ ____
ROOT
ATOM      1  C   LIG    1       28.281 -20.197   6.544  0.00  0.00    +0.080 A 
ATOM      2  C   LIG    1       28.057 -21.446   7.147  0.00  0.00    +0.134 A 
ATOM      3  C   LIG    1       28.939 -21.881   8.160  0.00  0.00    +0.071 A 
ATOM      4  C   LIG    1       30.050 -21.120   8.572  0.00  0.00    +0.053 A 
ATOM      5  C   LIG    1       30.198 -19.843   8.020  0.00  0.00    +0.110 A 
ATOM      6  C   LIG    1       29.330 -19.396   7.019  0.00  0.00    +0.045 A 
ENDROOT
BRANCH   1   9
ATOM      7  N   LIG    1       26.391 -20.243   4.958  0.00  0.00    -0.310 N 
ATOM      8  H   LIG    1       26.039 -21.035   5.484  0.00  0.00    +0.149 HD
ATOM      9  C   LIG    1       27.513 -19.594   5.410  0.00  0.00    +0.248 C 
ATOM     10  O   LIG    1       27.935 -18.572   4.873  0.00  0.00    -0.270 OA
BRANCH   7  11
ATOM     11  C   LIG    1       25.702 -19.810   3.745  0.00  0.00    +0.123 C 
BRANCH  11  13
ATOM     12  N   LIG    1       23.644 -20.293   5.185  0.00  0.00    -0.298 NA
ATOM     13  C   LIG    1       24.161 -19.835   3.869  0.00  0.00    +0.074 C 
ATOM     14  C   LIG    1       23.594 -18.418   3.789  0.00  0.00    +0.021 C 
ATOM     15  C   LIG    1       22.204 -18.542   4.372  0.00  0.00    +0.017 C 
ATOM     16  C   LIG    1       22.287 -19.734   5.315  0.00  0.00    +0.085 C 
BRANCH  12  18
ATOM     17  C   LIG    1       22.870 -22.258   6.542  0.00  0.00    +0.020 C 
ATOM     18  C   LIG    1       23.642 -21.760   5.316  0.00  0.00    +0.081 C 
ENDBRANCH  12  18
ENDBRANCH  11  13
ENDBRANCH   7  11
ENDBRANCH   1   9
BRANCH   4  19
ATOM     19  N   LIG    1       30.801 -21.576   9.669  0.00  0.00    -0.356 N 
ATOM     20  H   LIG    1       31.503 -20.917   9.996  0.00  0.00    +0.142 HD
ATOM     21  H   LIG    1       30.231 -21.880  10.461  0.00  0.00    +0.142 HD
ENDBRANCH   4  19
BRANCH   5  22
ATOM     22  S   LIG    1       31.536 -18.768   8.465  0.00  0.00    -0.002 S 
ATOM     23  O   LIG    1       32.249 -18.405   7.262  0.00  0.00    -0.169 OA
ATOM     24  O   LIG    1       32.228 -19.428   9.569  0.00  0.00    -0.169 OA
BRANCH  22  25
ATOM     25  C   LIG    1       30.742 -17.310   9.094  0.00  0.00    +0.168 C 
ATOM     26  C   LIG    1       30.312 -17.500  10.531  0.00  0.00    +0.028 C 
ENDBRANCH  22  25
ENDBRANCH   5  22
BRANCH   2  27
ATOM     27  O   LIG    1       26.997 -22.202   6.709  0.00  0.00    -0.494 OA
ATOM     28  C   LIG    1       26.194 -22.808   7.724  0.00  0.00    +0.277 C 
ENDBRANCH   2  27
TORSDOF 8
ENDMDL
MODEL 3
REMARK VINA RESULT:      -7.2      2.872      7.746
REMARK  Name = *****
REMARK                            x       y       z     vdW  Elec       q    Type
REMARK                         _______ _______ _______ _____ _____    ______ ____
ROOT
ATOM      1  C   LIG    1       25.448 -23.025   7.471  0.00  0.00    +0.080 A 
ATOM      2  C   LIG    1       24.081 -22.842   7.207  0.00  0.00    +0.134 A 
ATOM      3  C   LIG    1       23.384 -23.844   6.497  0.00  0.00    +0.071 A 
ATOM      4  C   LIG    1       24.016 -25.010   6.022  0.00  0.00    +0.053 A 
ATOM      5  C   LIG    1       25.354 -25.208   6.375  0.00  0.00    +0.110 A 
ATOM      6  C   LIG    1       26.057 -24.227   7.082  0.00  0.00    +0.045 A 
ENDROOT
BRANCH   1   9
ATOM      7  N   LIG    1       27.626 -21.872   7.605  0.00  0.00    -0.310 N 
ATOM      8  H   LIG    1       27.843 -22.292   6.707  0.00  0.00    +0.149 HD
ATOM      9  C   LIG    1       26.374 -22.056   8.136  0.00  0.00    +0.248 C 
ATOM     10  O   LIG    1       26.018 -21.497   9.172  0.00  0.00    -0.270 OA
BRANCH   7  11
ATOM     11  C   LIG    1       28.638 -21.084   8.304  0.00  0.00    +0.123 C 
BRANCH  11  13
ATOM     12  N   LIG    1       30.422 -19.519   7.351  0.00  0.00    -0.298 NA
ATOM     13  C   LIG    1       28.976 -19.750   7.600  0.00  0.00    +0.074 C 
ATOM     14  C   LIG    1       28.411 -19.735   6.180  0.00  0.00    +0.021 C 
ATOM     15  C   LIG    1       29.183 -18.634   5.486  0.00  0.00    +0.017 C 
ATOM     16  C   LIG    1       30.504 -18.560   6.237  0.00  0.00    +0.085 C 
BRANCH  12  18
ATOM     17  C   LIG    1       30.416 -17.870   9.245  0.00  0.00    +0.020 C 
ATOM     18  C   LIG    1       31.134 -19.028   8.544  0.00  0.00    +0.081 C 
ENDBRANCH  12  18
ENDBRANCH  11  13
ENDBRANCH   7  11
ENDBRANCH   1   9
BRANCH   4  19
ATOM     19  N   LIG    1       23.219 -26.006   5.431  0.00  0.00    -0.356 N 
ATOM     20  H   LIG    1       22.886 -26.713   6.083  0.00  0.00    +0.142 HD
ATOM     21  H   LIG    1       22.427 -25.640   4.900  0.00  0.00    +0.142 HD
ENDBRANCH   4  19
BRANCH   5  22
ATOM     22  S   LIG    1       26.266 -26.642   5.866  0.00  0.00    -0.002 S 
ATOM     23  O   LIG    1       27.677 -26.339   5.951  0.00  0.00    -0.169 OA
ATOM     24  O   LIG    1       25.672 -27.064   4.601  0.00  0.00    -0.169 OA
BRANCH  22  25
ATOM     25  C   LIG    1       25.892 -27.865   7.096  0.00  0.00    +0.168 C 
ATOM     26  C   LIG    1       24.892 -28.873   6.576  0.00  0.00    +0.028 C 
ENDBRANCH  22  25
ENDBRANCH   5  22
BRANCH   2  27
ATOM     27  O   LIG    1       23.482 -21.682   7.636  0.00  0.00    -0.494 OA
ATOM     28  C   LIG    1       23.220 -20.700   6.631  0.00  0.00    +0.277 C 
ENDBRANCH   2  27
TORSDOF 8
ENDMDL
MODEL 4
REMARK VINA RESULT:      -7.0      3.407      7.220
REMARK  Name = *****
REMARK                            x       y       z     vdW  Elec       q    Type
REMARK                         _______ _______ _______ _____ _____    ______ ____
ROOT
ATOM      1  C   LIG    1       26.331 -19.859   5.048  0.00  0.00    +0.080 A 
ATOM      2  C   LIG    1       25.500 -19.362   4.031  0.00  0.00    +0.134 A 
ATOM      3  C   LIG    1       24.176 -19.845   3.937  0.00  0.00    +0.071 A 
ATOM      4  C   LIG    1       23.667 -20.825   4.810  0.00  0.00    +0.053 A 
ATOM      5  C   LIG    1       24.485 -21.237   5.866  0.00  0.00    +0.110 A 
ATOM      6  C   LIG    1       25.796 -20.764   5.977  0.00  0.00    +0.045 A 
ENDROOT
BRANCH   1   9
ATOM      7  N   LIG    1       28.538 -20.403   6.008  0.00  0.00    -0.310 N 
ATOM      8  H   LIG    1       28.143 -21.300   6.269  0.00  0.00    +0.149 HD
ATOM      9  C   LIG    1       27.775 -19.534   5.270  0.00  0.00    +0.248 C 
ATOM     10  O   LIG    1       28.226 -18.474   4.842  0.00  0.00    -0.270 OA
BRANCH   7  11
ATOM     11  C   LIG    1       29.899 -20.061   6.415  0.00  0.00    +0.123 C 
BRANCH  11  13
ATOM     12  N   LIG    1       31.400 -19.759   8.463  0.00  0.00    -0.298 NA
ATOM     13  C   LIG    1       30.022 -19.695   7.912  0.00  0.00    +0.074 C 
ATOM     14  C   LIG    1       29.667 -18.225   8.135  0.00  0.00    +0.021 C 
ATOM     15  C   LIG    1       30.259 -17.903   9.489  0.00  0.00    +0.017 C 
ATOM     16  C   LIG    1       31.416 -18.879   9.644  0.00  0.00    +0.085 C 
BRANCH  12  18
ATOM     17  C   LIG    1       30.701 -21.957   9.455  0.00  0.00    +0.020 C 
ATOM     18  C   LIG    1       31.814 -21.131   8.802  0.00  0.00    +0.081 C 
ENDBRANCH  12  18
ENDBRANCH  11  13
ENDBRANCH   7  11
ENDBRANCH   1   9
BRANCH   4  19
ATOM     19  N   LIG    1       22.304 -21.157   4.717  0.00  0.00    -0.356 N 
ATOM     20  H   LIG    1       22.107 -22.149   4.833  0.00  0.00    +0.142 HD
ATOM     21  H   LIG    1       21.704 -20.620   5.348  0.00  0.00    +0.142 HD
ENDBRANCH   4  19
BRANCH   5  22
ATOM     22  S   LIG    1       23.962 -22.446   7.054  0.00  0.00    -0.002 S 
ATOM     23  O   LIG    1       23.202 -23.463   6.364  0.00  0.00    -0.169 OA
ATOM     24  O   LIG    1       23.369 -21.693   8.156  0.00  0.00    -0.169 OA
BRANCH  22  25
ATOM     25  C   LIG    1       25.471 -23.183   7.628  0.00  0.00    +0.168 C 
ATOM     26  C   LIG    1       25.783 -24.452   6.866  0.00  0.00    +0.028 C 
ENDBRANCH  22  25
ENDBRANCH   5  22
BRANCH   2  27
ATOM     27  O   LIG    1       26.018 -18.438   3.157  0.00  0.00    -0.494 OA
ATOM     28  C   LIG    1       25.567 -17.092   3.323  0.00  0.00    +0.277 C 
ENDBRANCH   2  27
TORSDOF 8
ENDMDL
MODEL 5
REMARK VINA RESULT:      -6.9      5.677      8.907
REMARK  Name = *****
REMARK                            x       y       z     vdW  Elec       q    Type
REMARK                         _______ _______ _______ _____ _____    ______ ____
ROOT
ATOM      1  C   LIG    1       25.968 -29.006   8.850  0.00  0.00    +0.080 A 
ATOM      2  C   LIG    1       25.178 -30.120   8.522  0.00  0.00    +0.134 A 
ATOM      3  C   LIG    1       24.419 -30.090   7.332  0.00  0.00    +0.071 A 
ATOM      4  C   LIG    1       24.405 -28.973   6.474  0.00  0.00    +0.053 A 
ATOM      5  C   LIG    1       25.268 -27.916   6.777  0.00  0.00    +0.110 A 
ATOM      6  C   LIG    1       26.030 -27.933   7.949  0.00  0.00    +0.045 A 
ENDROOT
BRANCH   1   9
ATOM      7  N   LIG    1       26.314 -27.950  11.054  0.00  0.00    -0.310 N 
ATOM      8  H   LIG    1       25.377 -27.573  10.960  0.00  0.00    +0.149 HD
ATOM      9  C   LIG    1       26.780 -28.812  10.092  0.00  0.00    +0.248 C 
ATOM     10  O   LIG    1       27.867 -29.377  10.196  0.00  0.00    -0.270 OA
BRANCH   7  11
ATOM     11  C   LIG    1       27.138 -27.577  12.201  0.00  0.00    +0.123 C 
BRANCH  11  13
ATOM     12  N   LIG    1       26.508 -25.316  13.214  0.00  0.00    -0.298 NA
ATOM     13  C   LIG    1       26.365 -26.793  13.286  0.00  0.00    +0.074 C 
ATOM     14  C   LIG    1       24.858 -26.969  13.104  0.00  0.00    +0.021 C 
ATOM     15  C   LIG    1       24.255 -25.828  13.893  0.00  0.00    +0.017 C 
ATOM     16  C   LIG    1       25.330 -24.752  13.897  0.00  0.00    +0.085 C 
BRANCH  12  18
ATOM     17  C   LIG    1       27.581 -24.242  15.214  0.00  0.00    +0.020 C 
ATOM     18  C   LIG    1       27.765 -24.835  13.813  0.00  0.00    +0.081 C 
ENDBRANCH  12  18
ENDBRANCH  11  13
ENDBRANCH   7  11
ENDBRANCH   1   9
BRANCH   4  19
ATOM     19  N   LIG    1       23.716 -29.079   5.253  0.00  0.00    -0.356 N 
ATOM     20  H   LIG    1       22.879 -29.656   5.296  0.00  0.00    +0.142 HD
ATOM     21  H   LIG    1       23.481 -28.178   4.833  0.00  0.00    +0.142 HD
ENDBRANCH   4  19
BRANCH   5  22
ATOM     22  S   LIG    1       25.372 -26.459   5.771  0.00  0.00    -0.002 S 
ATOM     23  O   LIG    1       24.046 -26.142   5.291  0.00  0.00    -0.169 OA
ATOM     24  O   LIG    1       26.464 -26.699   4.832  0.00  0.00    -0.169 OA
BRANCH  22  25
ATOM     25  C   LIG    1       25.870 -25.179   6.894  0.00  0.00    +0.168 C 
ATOM     26  C   LIG    1       24.948 -23.983   6.802  0.00  0.00    +0.028 C 
ENDBRANCH  22  25
ENDBRANCH   5  22
BRANCH   2  27
ATOM     27  O   LIG    1       25.163 -31.188   9.387  0.00  0.00    -0.494 OA
ATOM     28  C   LIG    1       25.974 -32.307   9.020  0.00  0.00    +0.277 C 
ENDBRANCH   2  27
TORSDOF 8
ENDMDL
MODEL 6
REMARK VINA RESULT:      -6.7      3.114      8.552
REMARK  Name = *****
REMARK                            x       y       z     vdW  Elec       q    Type
REMARK                         _______ _______ _______ _____ _____    ______ ____
ROOT
ATOM      1  C   LIG    1       28.347 -20.114   7.368  0.00  0.00    +0.080 A 
ATOM      2  C   LIG    1       28.319 -19.634   6.048  0.00  0.00    +0.134 A 
ATOM      3  C   LIG    1       27.148 -19.818   5.281  0.00  0.00    +0.071 A 
ATOM      4  C   LIG    1       26.015 -20.487   5.783  0.00  0.00    +0.053 A 
ATOM      5  C   LIG    1       26.036 -20.874   7.127  0.00  0.00    +0.110 A 
ATOM      6  C   LIG    1       27.187 -20.694   7.901  0.00  0.00    +0.045 A 
ENDROOT
BRANCH   1   9
ATOM      7  N   LIG    1       29.990 -18.867   8.724  0.00  0.00    -0.310 N 
ATOM      8  H   LIG    1       29.469 -18.030   8.488  0.00  0.00    +0.149 HD
ATOM      9  C   LIG    1       29.508 -20.085   8.311  0.00  0.00    +0.248 C 
ATOM     10  O   LIG    1       30.040 -21.142   8.645  0.00  0.00    -0.270 OA
BRANCH   7  11
ATOM     11  C   LIG    1       31.226 -18.762   9.495  0.00  0.00    +0.123 C 
BRANCH  11  13
ATOM     12  N   LIG    1       32.374 -17.224  11.185  0.00  0.00    -0.298 NA
ATOM     13  C   LIG    1       31.546 -17.322   9.955  0.00  0.00    +0.074 C 
ATOM     14  C   LIG    1       32.431 -16.616   8.929  0.00  0.00    +0.021 C 
ATOM     15  C   LIG    1       33.025 -15.452   9.691  0.00  0.00    +0.017 C 
ATOM     16  C   LIG    1       33.024 -15.904  11.144  0.00  0.00    +0.085 C 
BRANCH  12  18
ATOM     17  C   LIG    1       32.238 -16.772  13.651  0.00  0.00    +0.020 C 
ATOM     18  C   LIG    1       31.586 -17.404  12.417  0.00  0.00    +0.081 C 
ENDBRANCH  12  18
ENDBRANCH  11  13
ENDBRANCH   7  11
ENDBRANCH   1   9
BRANCH   4  19
ATOM     19  N   LIG    1       24.853 -20.517   4.991  0.00  0.00    -0.356 N 
ATOM     20  H   LIG    1       24.236 -21.301   5.188  0.00  0.00    +0.142 HD
ATOM     21  H   LIG    1       24.313 -19.650   5.019  0.00  0.00    +0.142 HD
ENDBRANCH   4  19
BRANCH   5  22
ATOM     22  S   LIG    1       24.670 -21.703   7.896  0.00  0.00    -0.002 S 
ATOM     23  O   LIG    1       23.477 -20.918   7.673  0.00  0.00    -0.169 OA
ATOM     24  O   LIG    1       25.108 -22.020   9.252  0.00  0.00    -0.169 OA
BRANCH  22  25
ATOM     25  C   LIG    1       24.506 -23.220   6.991  0.00  0.00    +0.168 C 
ATOM     26  C   LIG    1       25.744 -24.078   7.136  0.00  0.00    +0.028 C 
ENDBRANCH  22  25
ENDBRANCH   5  22
BRANCH   2  27
ATOM     27  O   LIG    1       29.444 -19.022   5.551  0.00  0.00    -0.494 OA
ATOM     28  C   LIG    1       29.265 -17.702   5.033  0.00  0.00    +0.277 C 
ENDBRANCH   2  27
TORSDOF 8
ENDMDL
MODEL 7
REMARK VINA RESULT:      -6.6      1.360      2.165
REMARK  Name = *****
REMARK                            x       y       z     vdW  Elec       q    Type
REMARK                         _______ _______ _______ _____ _____    ______ ____
ROOT
ATOM      1  C   LIG    1       27.517 -20.891   7.174  0.00  0.00    +0.080 A 
ATOM      2  C   LIG    1       27.220 -20.304   5.932  0.00  0.00    +0.134 A 
ATOM      3  C   LIG    1       28.061 -19.280   5.445  0.00  0.00    +0.071 A 
ATOM      4  C   LIG    1       29.172 -18.807   6.170  0.00  0.00    +0.053 A 
ATOM      5  C   LIG    1       29.497 -19.468   7.358  0.00  0.00    +0.110 A 
ATOM      6  C   LIG    1       28.677 -20.488   7.852  0.00  0.00    +0.045 A 
ENDROOT
BRANCH   1   9
ATOM      7  N   LIG    1       26.666 -23.199   7.373  0.00  0.00    -0.310 N 
ATOM      8  H   LIG    1       27.275 -23.433   6.597  0.00  0.00    +0.149 HD
ATOM      9  C   LIG    1       26.714 -21.929   7.893  0.00  0.00    +0.248 C 
ATOM     10  O   LIG    1       26.072 -21.610   8.891  0.00  0.00    -0.270 OA
BRANCH   7  11
ATOM     11  C   LIG    1       25.761 -24.208   7.918  0.00  0.00    +0.123 C 
BRANCH  11  13
ATOM     12  N   LIG    1       24.969 -24.458   5.500  0.00  0.00    -0.298 NA
ATOM     13  C   LIG    1       25.099 -25.092   6.837  0.00  0.00    +0.074 C 
ATOM     14  C   LIG    1       25.979 -26.302   6.523  0.00  0.00    +0.021 C 
ATOM     15  C   LIG    1       25.468 -26.793   5.186  0.00  0.00    +0.017 C 
ATOM     16  C   LIG    1       24.870 -25.559   4.526  0.00  0.00    +0.085 C 
BRANCH  12  18
ATOM     17  C   LIG    1       22.847 -23.680   6.593  0.00  0.00    +0.020 C 
ATOM     18  C   LIG    1       23.813 -23.549   5.411  0.00  0.00    +0.081 C 
ENDBRANCH  12  18
ENDBRANCH  11  13
ENDBRANCH   7  11
ENDBRANCH   1   9
BRANCH   4  19
ATOM     19  N   LIG    1       30.021 -17.871   5.554  0.00  0.00    -0.356 N 
ATOM     20  H   LIG    1       30.395 -17.168   6.187  0.00  0.00    +0.142 HD
ATOM     21  H   LIG    1       30.790 -18.293   5.029  0.00  0.00    +0.142 HD
ENDBRANCH   4  19
BRANCH   5  22
ATOM     22  S   LIG    1       30.883 -18.995   8.359  0.00  0.00    -0.002 S 
ATOM     23  O   LIG    1       31.999 -18.714   7.486  0.00  0.00    -0.169 OA
ATOM     24  O   LIG    1       30.990 -20.014   9.399  0.00  0.00    -0.169 OA
BRANCH  22  25
ATOM     25  C   LIG    1       30.382 -17.471   9.117  0.00  0.00    +0.168 C 
ATOM     26  C   LIG    1       30.410 -17.577  10.626  0.00  0.00    +0.028 C 
ENDBRANCH  22  25
ENDBRANCH   5  22
BRANCH   2  27
ATOM     27  O   LIG    1       26.109 -20.741   5.252  0.00  0.00    -0.494 OA
ATOM     28  C   LIG    1       25.573 -19.841   4.280  0.00  0.00    +0.277 C 
ENDBRANCH   2  27
TORSDOF 8
ENDMDL
MODEL 8
REMARK VINA RESULT:      -6.5      3.303      7.554
REMARK  Name = *****
REMARK                            x       y       z     vdW  Elec       q    Type
REMARK                         _______ _______ _______ _____ _____    ______ ____
ROOT
ATOM      1  C   LIG    1       25.133 -20.960   5.595  0.00  0.00    +0.080 A 
ATOM      2  C   LIG    1       23.814 -20.477   5.604  0.00  0.00    +0.134 A 
ATOM      3  C   LIG    1       22.757 -21.385   5.830  0.00  0.00    +0.071 A 
ATOM      4  C   LIG    1       22.975 -22.764   6.022  0.00  0.00    +0.053 A 
ATOM      5  C   LIG    1       24.300 -23.203   6.098  0.00  0.00    +0.110 A 
ATOM      6  C   LIG    1       25.358 -22.315   5.881  0.00  0.00    +0.045 A 
ENDROOT
BRANCH   1   9
ATOM      7  N   LIG    1       27.454 -20.323   6.140  0.00  0.00    -0.310 N 
ATOM      8  H   LIG    1       27.428 -21.045   6.851  0.00  0.00    +0.149 HD
ATOM      9  C   LIG    1       26.376 -20.180   5.303  0.00  0.00    +0.248 C 
ATOM     10  O   LIG    1       26.382 -19.388   4.362  0.00  0.00    -0.270 OA
BRANCH   7  11
ATOM     11  C   LIG    1       28.627 -19.460   6.020  0.00  0.00    +0.123 C 
BRANCH  11  13
ATOM     12  N   LIG    1       29.803 -19.200   8.276  0.00  0.00    -0.298 NA
ATOM     13  C   LIG    1       29.792 -19.870   6.950  0.00  0.00    +0.074 C 
ATOM     14  C   LIG    1       29.668 -21.341   7.347  0.00  0.00    +0.021 C 
ATOM     15  C   LIG    1       30.552 -21.470   8.568  0.00  0.00    +0.017 C 
ATOM     16  C   LIG    1       30.572 -20.076   9.177  0.00  0.00    +0.085 C 
BRANCH  12  18
ATOM     17  C   LIG    1       30.397 -17.141   9.584  0.00  0.00    +0.020 C 
ATOM     18  C   LIG    1       30.372 -17.842   8.222  0.00  0.00    +0.081 C 
ENDBRANCH  12  18
ENDBRANCH  11  13
ENDBRANCH   7  11
ENDBRANCH   1   9
BRANCH   4  19
ATOM     19  N   LIG    1       21.875 -23.572   6.359  0.00  0.00    -0.356 N 
ATOM     20  H   LIG    1       21.246 -23.155   7.041  0.00  0.00    +0.142 HD
ATOM     21  H   LIG    1       21.333 -23.888   5.551  0.00  0.00    +0.142 HD
ENDBRANCH   4  19
BRANCH   5  22
ATOM     22  S   LIG    1       24.720 -24.906   6.360  0.00  0.00    -0.002 S 
ATOM     23  O   LIG    1       23.514 -25.626   6.701  0.00  0.00    -0.169 OA
ATOM     24  O   LIG    1       25.864 -24.900   7.268  0.00  0.00    -0.169 OA
BRANCH  22  25
ATOM     25  C   LIG    1       25.269 -25.477   4.772  0.00  0.00    +0.168 C 
ATOM     26  C   LIG    1       25.989 -26.802   4.887  0.00  0.00    +0.028 C 
ENDBRANCH  22  25
ENDBRANCH   5  22
BRANCH   2  27
ATOM     27  O   LIG    1       23.608 -19.138   5.373  0.00  0.00    -0.494 OA
ATOM     28  C   LIG    1       22.762 -18.815   4.267  0.00  0.00    +0.277 C 
ENDBRANCH   2  27
TORSDOF 8
ENDMDL
MODEL 9
REMARK VINA RESULT:      -6.5      4.769      8.943
REMARK  Name = *****
REMARK                            x       y       z     vdW  Elec       q    Type
REMARK                         _______ _______ _______ _____ _____    ______ ____
ROOT
ATOM      1  C   LIG    1       25.392 -28.954   7.450  0.00  0.00    +0.080 A 
ATOM      2  C   LIG    1       25.147 -30.295   7.112  0.00  0.00    +0.134 A 
ATOM      3  C   LIG    1       25.365 -31.294   8.086  0.00  0.00    +0.071 A 
ATOM      4  C   LIG    1       25.843 -30.997   9.377  0.00  0.00    +0.053 A 
ATOM      5  C   LIG    1       25.993 -29.649   9.716  0.00  0.00    +0.110 A 
ATOM      6  C   LIG    1       25.776 -28.648   8.764  0.00  0.00    +0.045 A 
ENDROOT
BRANCH   1   9
ATOM      7  N   LIG    1       26.066 -26.664   6.824  0.00  0.00    -0.310 N 
ATOM      8  H   LIG    1       26.773 -26.732   7.548  0.00  0.00    +0.149 HD
ATOM      9  C   LIG    1       25.295 -27.766   6.546  0.00  0.00    +0.248 C 
ATOM     10  O   LIG    1       24.489 -27.779   5.619  0.00  0.00    -0.270 OA
BRANCH   7  11
ATOM     11  C   LIG    1       25.888 -25.411   6.095  0.00  0.00    +0.123 C 
BRANCH  11  13
ATOM     12  N   LIG    1       25.360 -22.948   6.534  0.00  0.00    -0.298 NA
ATOM     13  C   LIG    1       25.052 -24.363   6.864  0.00  0.00    +0.074 C 
ATOM     14  C   LIG    1       23.579 -24.459   6.471  0.00  0.00    +0.021 C 
ATOM     15  C   LIG    1       22.990 -23.138   6.914  0.00  0.00    +0.017 C 
ATOM     16  C   LIG    1       24.162 -22.168   6.889  0.00  0.00    +0.085 C 
BRANCH  12  18
ATOM     17  C   LIG    1       26.241 -21.438   8.337  0.00  0.00    +0.020 C 
ATOM     18  C   LIG    1       26.559 -22.449   7.230  0.00  0.00    +0.081 C 
ENDBRANCH  12  18
ENDBRANCH  11  13
ENDBRANCH   7  11
ENDBRANCH   1   9
BRANCH   4  19
ATOM     19  N   LIG    1       25.915 -32.040  10.317  0.00  0.00    -0.356 N 
ATOM     20  H   LIG    1       26.859 -32.378  10.493  0.00  0.00    +0.142 HD
ATOM     21  H   LIG    1       25.465 -31.823  11.209  0.00  0.00    +0.142 HD
ENDBRANCH   4  19
BRANCH   5  22
ATOM     22  S   LIG    1       26.563 -29.131  11.313  0.00  0.00    -0.002 S 
ATOM     23  O   LIG    1       26.976 -27.749  11.224  0.00  0.00    -0.169 OA
ATOM     24  O   LIG    1       27.501 -30.160  11.756  0.00  0.00    -0.169 OA
BRANCH  22  25
ATOM     25  C   LIG    1       25.121 -29.207  12.344  0.00  0.00    +0.168 C 
ATOM     26  C   LIG    1       24.775 -27.843  12.900  0.00  0.00    +0.028 C 
ENDBRANCH  22  25
ENDBRANCH   5  22
BRANCH   2  27
ATOM     27  O   LIG    1       24.723 -30.580   5.837  0.00  0.00    -0.494 OA
ATOM     28  C   LIG    1       25.653 -31.278   5.005  0.00  0.00    +0.277 C 
ENDBRANCH   2  27
TORSDOF 8
ENDMDL
