MODEL 1
REMARK VINA RESULT:       7.5      0.000      0.000
REMARK  Name = *****
REMARK                            x       y       z     vdW  Elec       q    Type
REMARK                         _______ _______ _______ _____ _____    ______ ____
ROOT
ATOM      1  C   LIG    1       25.612 -13.880   4.565  0.00  0.00    +0.001 C 
ATOM      2  C   LIG    1       25.215 -14.899   3.428  0.00  0.00    +0.000 C 
ATOM      3  C   LIG    1       25.161 -14.038   2.101  0.00  0.00    +0.014 C 
ATOM      4  C   LIG    1       23.757 -15.300   3.739  0.00  0.00    +0.001 C 
ATOM      5  C   LIG    1       23.461 -16.577   4.564  0.00  0.00    -0.004 C 
ATOM      6  C   LIG    1       24.883 -17.842   4.603  0.00  0.00    +0.001 C 
ATOM      7  C   LIG    1       26.216 -17.275   4.070  0.00  0.00    +0.036 C 
ATOM      8  C   LIG    1       24.395 -19.512   4.030  0.00  0.00    -0.026 C 
ATOM      9  C   LIG    1       25.253 -20.050   2.900  0.00  0.00    +0.012 C 
ATOM     10  C   LIG    1       22.712 -20.283   3.980  0.00  0.00    -0.002 C 
ATOM     11  C   LIG    1       22.535 -21.088   5.236  0.00  0.00    +0.035 C 
ATOM     12  C   LIG    1       22.855 -20.067   6.273  0.00  0.00    +0.115 C 
ATOM     13  C   LIG    1       22.872 -18.676   5.574  0.00  0.00    +0.032 C 
ATOM     14  C   LIG    1       21.297 -19.004   3.869  0.00  0.00    +0.004 C 
ATOM     15  C   LIG    1       23.419 -18.601   3.671  0.00  0.00    +0.009 C 
ATOM     16  C   LIG    1       21.764 -17.189   3.988  0.00  0.00    +0.004 C 
ATOM     17  C   LIG    1       23.137 -14.067   4.423  0.00  0.00    +0.005 C 
ATOM     18  C   LIG    1       26.164 -16.087   3.119  0.00  0.00    +0.121 C 
ATOM     19  C   LIG    1       24.281 -13.171   4.893  0.00  0.00    +0.005 C 
ENDROOT
BRANCH   1  21
ATOM     20  C   LIG    1       26.322 -13.327   7.012  0.00  0.00    +0.008 C 
ATOM     21  C   LIG    1       26.440 -14.281   5.828  0.00  0.00    -0.010 C 
BRANCH  21  22
ATOM     22  C   LIG    1       27.953 -14.439   5.465  0.00  0.00    +0.015 C 
BRANCH  22  23
ATOM     23  C   LIG    1       28.306 -13.960   4.053  0.00  0.00    +0.121 C 
BRANCH  23  24
ATOM     24  C   LIG    1       28.627 -12.494   4.014  0.00  0.00    +0.305 C 
ATOM     25  O   LIG    1       29.194 -11.856   4.892  0.00  0.00    -0.251 OA
BRANCH  24  26
ATOM     26  O   LIG    1       28.234 -11.894   2.878  0.00  0.00    -0.481 OA
ATOM     27  H   LIG    1       27.700 -11.132   3.186  0.00  0.00    +0.295 HD
ENDBRANCH  24  26
ENDBRANCH  23  24
ENDBRANCH  22  23
ENDBRANCH  21  22
ENDBRANCH   1  21
BRANCH  12  28
ATOM     28  O   LIG    1       24.131 -20.329   6.850  0.00  0.00    -0.392 OA
ATOM     29  H   LIG    1       24.669 -19.526   6.739  0.00  0.00    +0.210 HD
ENDBRANCH  12  28
BRANCH  18  30
ATOM     30  O   LIG    1       25.907 -16.628   1.815  0.00  0.00    -0.391 OA
ATOM     31  H   LIG    1       26.399 -17.459   1.721  0.00  0.00    +0.210 HD
ENDBRANCH  18  30
TORSDOF 7
ENDMDL
MODEL 2
REMARK VINA RESULT:       8.6      1.994      6.920
REMARK  Name = *****
REMARK                            x       y       z     vdW  Elec       q    Type
REMARK                         _______ _______ _______ _____ _____    ______ ____
ROOT
ATOM      1  C   LIG    1       24.671 -20.133   4.657  0.00  0.00    +0.001 C 
ATOM      2  C   LIG    1       24.227 -19.083   3.567  0.00  0.00    +0.000 C 
ATOM      3  C   LIG    1       23.792 -19.947   2.314  0.00  0.00    +0.014 C 
ATOM      4  C   LIG    1       25.525 -18.356   3.157  0.00  0.00    +0.001 C 
ATOM      5  C   LIG    1       25.918 -17.023   3.840  0.00  0.00    -0.004 C 
ATOM      6  C   LIG    1       24.477 -16.109   4.683  0.00  0.00    +0.001 C 
ATOM      7  C   LIG    1       23.207 -16.977   4.824  0.00  0.00    +0.036 C 
ATOM      8  C   LIG    1       24.253 -14.389   4.094  0.00  0.00    -0.026 C 
ATOM      9  C   LIG    1       22.856 -14.090   3.583  0.00  0.00    +0.012 C 
ATOM     10  C   LIG    1       25.484 -13.261   3.293  0.00  0.00    -0.002 C 
ATOM     11  C   LIG    1       26.090 -12.402   4.366  0.00  0.00    +0.035 C 
ATOM     12  C   LIG    1       26.550 -13.439   5.333  0.00  0.00    +0.115 C 
ATOM     13  C   LIG    1       26.478 -14.817   4.611  0.00  0.00    +0.032 C 
ATOM     14  C   LIG    1       26.887 -14.192   2.390  0.00  0.00    +0.004 C 
ATOM     15  C   LIG    1       25.086 -15.067   3.224  0.00  0.00    +0.009 C 
ATOM     16  C   LIG    1       26.933 -16.061   2.562  0.00  0.00    +0.004 C 
ATOM     17  C   LIG    1       26.645 -19.398   3.337  0.00  0.00    +0.005 C 
ATOM     18  C   LIG    1       23.026 -18.149   3.869  0.00  0.00    +0.121 C 
ATOM     19  C   LIG    1       26.103 -20.515   4.227  0.00  0.00    +0.005 C 
ENDROOT
BRANCH   1  21
ATOM     20  C   LIG    1       25.633 -20.478   7.056  0.00  0.00    +0.008 C 
ATOM     21  C   LIG    1       24.519 -19.893   6.194  0.00  0.00    -0.010 C 
BRANCH  21  22
ATOM     22  C   LIG    1       23.150 -20.454   6.704  0.00  0.00    +0.015 C 
BRANCH  22  23
ATOM     23  C   LIG    1       22.486 -21.442   5.740  0.00  0.00    +0.121 C 
BRANCH  23  24
ATOM     24  C   LIG    1       21.499 -20.771   4.830  0.00  0.00    +0.305 C 
ATOM     25  O   LIG    1       21.076 -19.626   4.943  0.00  0.00    -0.251 OA
BRANCH  24  26
ATOM     26  O   LIG    1       21.092 -21.553   3.816  0.00  0.00    -0.481 OA
ATOM     27  H   LIG    1       21.409 -22.446   4.066  0.00  0.00    +0.295 HD
ENDBRANCH  24  26
ENDBRANCH  23  24
ENDBRANCH  22  23
ENDBRANCH  21  22
ENDBRANCH   1  21
BRANCH  12  28
ATOM     28  O   LIG    1       25.708 -13.455   6.482  0.00  0.00    -0.392 OA
ATOM     29  H   LIG    1       25.656 -14.377   6.789  0.00  0.00    +0.210 HD
ENDBRANCH  12  28
BRANCH  18  30
ATOM     30  O   LIG    1       22.480 -17.600   2.660  0.00  0.00    -0.391 OA
ATOM     31  H   LIG    1       21.608 -17.223   2.857  0.00  0.00    +0.210 HD
ENDBRANCH  18  30
TORSDOF 7
ENDMDL
MODEL 3
REMARK VINA RESULT:       9.6      2.309      6.275
REMARK  Name = *****
REMARK                            x       y       z     vdW  Elec       q    Type
REMARK                         _______ _______ _______ _____ _____    ______ ____
ROOT
ATOM      1  C   LIG    1       24.264 -20.562   4.524  0.00  0.00    +0.001 C 
ATOM      2  C   LIG    1       23.747 -19.415   3.573  0.00  0.00    +0.000 C 
ATOM      3  C   LIG    1       23.097 -20.162   2.339  0.00  0.00    +0.014 C 
ATOM      4  C   LIG    1       25.023 -18.731   3.037  0.00  0.00    +0.001 C 
ATOM      5  C   LIG    1       25.586 -17.473   3.744  0.00  0.00    -0.004 C 
ATOM      6  C   LIG    1       24.329 -16.545   4.831  0.00  0.00    +0.001 C 
ATOM      7  C   LIG    1       23.038 -17.351   5.088  0.00  0.00    +0.036 C 
ATOM      8  C   LIG    1       24.139 -14.778   4.388  0.00  0.00    -0.026 C 
ATOM      9  C   LIG    1       22.708 -14.368   4.091  0.00  0.00    +0.012 C 
ATOM     10  C   LIG    1       25.322 -13.664   3.500  0.00  0.00    -0.002 C 
ATOM     11  C   LIG    1       26.117 -12.917   4.533  0.00  0.00    +0.035 C 
ATOM     12  C   LIG    1       26.634 -14.044   5.360  0.00  0.00    +0.115 C 
ATOM     13  C   LIG    1       26.381 -15.361   4.569  0.00  0.00    +0.032 C 
ATOM     14  C   LIG    1       26.531 -14.602   2.357  0.00  0.00    +0.004 C 
ATOM     15  C   LIG    1       24.805 -15.436   3.371  0.00  0.00    +0.009 C 
ATOM     16  C   LIG    1       26.482 -16.479   2.402  0.00  0.00    +0.004 C 
ATOM     17  C   LIG    1       26.090 -19.842   2.997  0.00  0.00    +0.005 C 
ATOM     18  C   LIG    1       22.659 -18.440   4.095  0.00  0.00    +0.121 C 
ATOM     19  C   LIG    1       25.600 -20.989   3.880  0.00  0.00    +0.005 C 
ENDROOT
BRANCH   1  21
ATOM     20  C   LIG    1       23.157 -19.694   6.720  0.00  0.00    +0.008 C 
ATOM     21  C   LIG    1       24.333 -20.424   6.079  0.00  0.00    -0.010 C 
BRANCH  21  22
ATOM     22  C   LIG    1       25.655 -19.707   6.508  0.00  0.00    +0.015 C 
BRANCH  22  23
ATOM     23  C   LIG    1       26.724 -20.654   7.062  0.00  0.00    +0.121 C 
BRANCH  23  24
ATOM     24  C   LIG    1       28.079 -20.388   6.474  0.00  0.00    +0.305 C 
ATOM     25  O   LIG    1       28.358 -19.498   5.678  0.00  0.00    -0.251 OA
BRANCH  24  26
ATOM     26  O   LIG    1       29.025 -21.235   6.911  0.00  0.00    -0.481 OA
ATOM     27  H   LIG    1       28.994 -21.140   7.887  0.00  0.00    +0.295 HD
ENDBRANCH  24  26
ENDBRANCH  23  24
ENDBRANCH  22  23
ENDBRANCH  21  22
ENDBRANCH   1  21
BRANCH  12  28
ATOM     28  O   LIG    1       25.953 -14.096   6.609  0.00  0.00    -0.392 OA
ATOM     29  H   LIG    1       26.628 -14.054   7.309  0.00  0.00    +0.210 HD
ENDBRANCH  12  28
BRANCH  18  30
ATOM     30  O   LIG    1       21.993 -17.778   3.009  0.00  0.00    -0.391 OA
ATOM     31  H   LIG    1       22.652 -17.284   2.496  0.00  0.00    +0.210 HD
ENDBRANCH  18  30
TORSDOF 7
ENDMDL
