MODEL 1
REMARK VINA RESULT:      -7.2      0.000      0.000
REMARK  Name = *****
REMARK                            x       y       z     vdW  Elec       q    Type
REMARK                         _______ _______ _______ _____ _____    ______ ____
ROOT
ATOM      1  C   LIG    1       26.805 -20.276   5.774  0.00  0.00    +0.166 C 
ENDROOT
BRANCH   1   2
ATOM      2  O   LIG    1       26.352 -19.953   7.096  0.00  0.00    -0.280 OA
BRANCH   2   3
ATOM      3  P   LIG    1       26.853 -20.709   8.404  0.00  0.00    +0.473 P 
ATOM      4  O   LIG    1       25.970 -20.955   9.567  0.00  0.00    -0.228 OA
BRANCH   3   5
ATOM      5  O   LIG    1       27.917 -21.812   7.963  0.00  0.00    -0.303 OA
ATOM      6  H   LIG    1       28.024 -22.452   8.684  0.00  0.00    +0.222 HD
ENDBRANCH   3   5
BRANCH   3   7
ATOM      7  O   LIG    1       27.974 -19.731   9.012  0.00  0.00    -0.303 OA
ATOM      8  H   LIG    1       28.608 -20.370   9.410  0.00  0.00    +0.222 HD
ENDBRANCH   3   7
ENDBRANCH   2   3
ENDBRANCH   1   2
BRANCH   1   9
ATOM      9  C   LIG    1       28.081 -19.335   5.511  0.00  0.00    +0.111 C 
BRANCH   9  10
ATOM     10  N   LIG    1       29.413 -19.882   5.863  0.00  0.00    -0.275 N 
ATOM     11  H   LIG    1       29.800 -20.655   5.337  0.00  0.00    +0.152 HD
ATOM     12  C   LIG    1       30.368 -19.314   6.665  0.00  0.00    +0.401 C 
ATOM     13  O   LIG    1       31.548 -19.681   6.584  0.00  0.00    -0.227 OA
BRANCH  12  14
ATOM     14  O   LIG    1       29.889 -18.423   7.556  0.00  0.00    -0.445 OA
BRANCH  14  15
ATOM     15  C   LIG    1       30.848 -17.735   8.397  0.00  0.00    +0.206 C 
ATOM     16  C   LIG    1       31.685 -18.742   9.193  0.00  0.00    +0.204 C 
ATOM     17  O   LIG    1       31.654 -18.319  10.566  0.00  0.00    -0.376 OA
ATOM     18  C   LIG    1       30.375 -17.713  10.746  0.00  0.00    +0.163 C 
ATOM     19  C   LIG    1       30.147 -16.922   9.475  0.00  0.00    +0.075 C 
ENDBRANCH  14  15
ENDBRANCH  12  14
ENDBRANCH   9  10
BRANCH   9  20
ATOM     20  C   LIG    1       28.042 -18.382   4.214  0.00  0.00    +0.060 C 
BRANCH  20  21
ATOM     21  C   LIG    1       27.347 -17.023   4.106  0.00  0.00    -0.045 A 
ATOM     22  C   LIG    1       28.003 -15.823   4.487  0.00  0.00    +0.003 A 
ATOM     23  C   LIG    1       27.435 -14.554   4.238  0.00  0.00    +0.000 A 
ATOM     24  C   LIG    1       26.227 -14.451   3.558  0.00  0.00    +0.000 A 
ATOM     25  C   LIG    1       25.571 -15.613   3.180  0.00  0.00    +0.000 A 
ATOM     26  C   LIG    1       26.116 -16.873   3.466  0.00  0.00    +0.003 A 
ENDBRANCH  20  21
ENDBRANCH   9  20
ENDBRANCH   1   9
BRANCH   1  27
ATOM     27  C   LIG    1       25.649 -20.164   4.752  0.00  0.00    +0.143 C 
BRANCH  27  28
ATOM     28  N   LIG    1       24.134 -20.146   5.248  0.00  0.00    -0.174 NA
BRANCH  28  29
ATOM     29  S   LIG    1       23.432 -21.580   5.969  0.00  0.00    +0.061 S 
ATOM     30  O   LIG    1       22.206 -21.930   5.346  0.00  0.00    -0.153 OA
ATOM     31  O   LIG    1       23.418 -21.238   7.403  0.00  0.00    -0.153 OA
BRANCH  29  32
ATOM     32  C   LIG    1       24.542 -23.054   5.915  0.00  0.00    +0.106 A 
ATOM     33  C   LIG    1       25.098 -23.581   7.066  0.00  0.00    +0.030 A 
ATOM     34  C   LIG    1       25.828 -24.763   7.114  0.00  0.00    +0.024 A 
ATOM     35  C   LIG    1       25.672 -25.666   6.081  0.00  0.00    +0.025 A 
ATOM     36  C   LIG    1       25.164 -25.185   4.876  0.00  0.00    +0.024 A 
ATOM     37  C   LIG    1       24.667 -23.855   4.753  0.00  0.00    +0.030 A 
BRANCH  35  38
ATOM     38  N   LIG    1       26.149 -26.975   6.218  0.00  0.00    -0.358 N 
ATOM     39  H   LIG    1       25.430 -27.618   6.547  0.00  0.00    +0.142 HD
ATOM     40  H   LIG    1       26.544 -27.316   5.345  0.00  0.00    +0.142 HD
ENDBRANCH  35  38
ENDBRANCH  29  32
ENDBRANCH  28  29
BRANCH  28  41
ATOM     41  C   LIG    1       23.409 -19.238   4.281  0.00  0.00    +0.112 C 
BRANCH  41  43
ATOM     42  C   LIG    1       22.350 -16.912   4.632  0.00  0.00    +0.008 C 
ATOM     43  C   LIG    1       22.162 -18.438   4.659  0.00  0.00    -0.002 C 
ATOM     44  C   LIG    1       21.066 -18.747   3.630  0.00  0.00    +0.008 C 
ENDBRANCH  41  43
ENDBRANCH  28  41
ENDBRANCH  27  28
ENDBRANCH   1  27
TORSDOF 17
ENDMDL
MODEL 2
REMARK VINA RESULT:      -6.7      2.787      8.200
REMARK  Name = *****
REMARK                            x       y       z     vdW  Elec       q    Type
REMARK                         _______ _______ _______ _____ _____    ______ ____
ROOT
ATOM      1  C   LIG    1       27.038 -20.770   6.094  0.00  0.00    +0.166 C 
ENDROOT
BRANCH   1   2
ATOM      2  O   LIG    1       26.496 -20.195   7.291  0.00  0.00    -0.280 OA
BRANCH   2   3
ATOM      3  P   LIG    1       25.861 -21.055   8.469  0.00  0.00    +0.473 P 
ATOM      4  O   LIG    1       24.451 -21.505   8.455  0.00  0.00    -0.228 OA
BRANCH   3   5
ATOM      5  O   LIG    1       26.998 -22.010   9.053  0.00  0.00    -0.303 OA
ATOM      6  H   LIG    1       27.855 -21.740   8.686  0.00  0.00    +0.222 HD
ENDBRANCH   3   5
BRANCH   3   7
ATOM      7  O   LIG    1       25.905 -20.068   9.738  0.00  0.00    -0.303 OA
ATOM      8  H   LIG    1       25.708 -19.197   9.324  0.00  0.00    +0.222 HD
ENDBRANCH   3   7
ENDBRANCH   2   3
ENDBRANCH   1   2
BRANCH   1   9
ATOM      9  C   LIG    1       26.156 -22.084   5.807  0.00  0.00    +0.111 C 
BRANCH   9  10
ATOM     10  N   LIG    1       26.241 -23.187   6.793  0.00  0.00    -0.275 N 
ATOM     11  H   LIG    1       26.283 -22.982   7.783  0.00  0.00    +0.152 HD
ATOM     12  C   LIG    1       26.001 -24.520   6.584  0.00  0.00    +0.401 C 
ATOM     13  O   LIG    1       25.747 -25.265   7.540  0.00  0.00    -0.227 OA
BRANCH  12  14
ATOM     14  O   LIG    1       26.145 -24.918   5.304  0.00  0.00    -0.445 OA
BRANCH  14  15
ATOM     15  C   LIG    1       25.200 -25.891   4.794  0.00  0.00    +0.206 C 
ATOM     16  C   LIG    1       24.131 -26.204   5.847  0.00  0.00    +0.204 C 
ATOM     17  O   LIG    1       24.051 -27.635   5.950  0.00  0.00    -0.376 OA
ATOM     18  C   LIG    1       25.373 -28.106   5.692  0.00  0.00    +0.163 C 
ATOM     19  C   LIG    1       25.873 -27.236   4.558  0.00  0.00    +0.075 C 
ENDBRANCH  14  15
ENDBRANCH  12  14
ENDBRANCH   9  10
BRANCH   9  20
ATOM     20  C   LIG    1       24.716 -21.872   5.123  0.00  0.00    +0.060 C 
BRANCH  20  21
ATOM     21  C   LIG    1       24.012 -20.534   4.881  0.00  0.00    -0.045 A 
ATOM     22  C   LIG    1       24.446 -19.640   3.867  0.00  0.00    +0.003 A 
ATOM     23  C   LIG    1       23.708 -18.485   3.529  0.00  0.00    +0.000 A 
ATOM     24  C   LIG    1       22.496 -18.223   4.155  0.00  0.00    +0.000 A 
ATOM     25  C   LIG    1       22.057 -19.084   5.151  0.00  0.00    +0.000 A 
ATOM     26  C   LIG    1       22.813 -20.207   5.515  0.00  0.00    +0.003 A 
ENDBRANCH  20  21
ENDBRANCH   9  20
ENDBRANCH   1   9
BRANCH   1  27
ATOM     27  C   LIG    1       28.564 -20.984   6.226  0.00  0.00    +0.143 C 
BRANCH  27  28
ATOM     28  N   LIG    1       29.373 -20.299   7.415  0.00  0.00    -0.174 NA
BRANCH  28  29
ATOM     29  S   LIG    1       30.376 -18.898   7.097  0.00  0.00    +0.061 S 
ATOM     30  O   LIG    1       29.764 -18.019   6.166  0.00  0.00    -0.153 OA
ATOM     31  O   LIG    1       31.669 -19.510   6.737  0.00  0.00    -0.153 OA
BRANCH  29  32
ATOM     32  C   LIG    1       30.794 -17.928   8.610  0.00  0.00    +0.106 A 
ATOM     33  C   LIG    1       29.988 -17.959   9.733  0.00  0.00    +0.030 A 
ATOM     34  C   LIG    1       30.313 -17.366  10.948  0.00  0.00    +0.024 A 
ATOM     35  C   LIG    1       31.639 -17.074  11.195  0.00  0.00    +0.025 A 
ATOM     36  C   LIG    1       32.493 -16.977  10.100  0.00  0.00    +0.024 A 
ATOM     37  C   LIG    1       32.064 -17.324   8.785  0.00  0.00    +0.030 A 
BRANCH  35  38
ATOM     38  N   LIG    1       32.054 -16.750  12.493  0.00  0.00    -0.358 N 
ATOM     39  H   LIG    1       33.012 -17.044  12.679  0.00  0.00    +0.142 HD
ATOM     40  H   LIG    1       31.957 -15.753  12.672  0.00  0.00    +0.142 HD
ENDBRANCH  35  38
ENDBRANCH  29  32
ENDBRANCH  28  29
BRANCH  28  41
ATOM     41  C   LIG    1       29.763 -21.431   8.337  0.00  0.00    +0.112 C 
BRANCH  41  43
ATOM     42  C   LIG    1       31.077 -21.738  10.536  0.00  0.00    +0.008 C 
ATOM     43  C   LIG    1       31.130 -21.527   9.014  0.00  0.00    -0.002 C 
ATOM     44  C   LIG    1       31.860 -22.752   8.443  0.00  0.00    +0.008 C 
ENDBRANCH  41  43
ENDBRANCH  28  41
ENDBRANCH  27  28
ENDBRANCH   1  27
TORSDOF 17
ENDMDL
MODEL 3
REMARK VINA RESULT:      -6.6      8.074     11.910
REMARK  Name = *****
REMARK                            x       y       z     vdW  Elec       q    Type
REMARK                         _______ _______ _______ _____ _____    ______ ____
ROOT
ATOM      1  C   LIG    1       26.268 -29.960   9.814  0.00  0.00    +0.166 C 
ENDROOT
BRANCH   1   2
ATOM      2  O   LIG    1       26.967 -28.965  10.574  0.00  0.00    -0.280 OA
BRANCH   2   3
ATOM      3  P   LIG    1       27.860 -29.300  11.848  0.00  0.00    +0.473 P 
ATOM      4  O   LIG    1       27.429 -30.259  12.891  0.00  0.00    -0.228 OA
BRANCH   3   5
ATOM      5  O   LIG    1       29.392 -29.232  11.411  0.00  0.00    -0.303 OA
ATOM      6  H   LIG    1       29.503 -29.712  10.575  0.00  0.00    +0.222 HD
ENDBRANCH   3   5
BRANCH   3   7
ATOM      7  O   LIG    1       27.927 -27.910  12.652  0.00  0.00    -0.303 OA
ATOM      8  H   LIG    1       27.543 -28.160  13.523  0.00  0.00    +0.222 HD
ENDBRANCH   3   7
ENDBRANCH   2   3
ENDBRANCH   1   2
BRANCH   1   9
ATOM      9  C   LIG    1       25.885 -29.252   8.422  0.00  0.00    +0.111 C 
BRANCH   9  10
ATOM     10  N   LIG    1       24.615 -29.662   7.778  0.00  0.00    -0.275 N 
ATOM     11  H   LIG    1       23.730 -29.331   8.140  0.00  0.00    +0.152 HD
ATOM     12  C   LIG    1       24.447 -30.245   6.549  0.00  0.00    +0.401 C 
ATOM     13  O   LIG    1       23.347 -30.199   5.982  0.00  0.00    -0.227 OA
BRANCH  12  14
ATOM     14  O   LIG    1       25.531 -30.905   6.093  0.00  0.00    -0.445 OA
BRANCH  14  15
ATOM     15  C   LIG    1       25.500 -32.353   6.138  0.00  0.00    +0.206 C 
ATOM     16  C   LIG    1       25.097 -32.840   7.534  0.00  0.00    +0.204 C 
ATOM     17  O   LIG    1       26.065 -33.825   7.930  0.00  0.00    -0.376 OA
ATOM     18  C   LIG    1       27.291 -33.414   7.327  0.00  0.00    +0.163 C 
ATOM     19  C   LIG    1       26.894 -32.936   5.946  0.00  0.00    +0.075 C 
ENDBRANCH  14  15
ENDBRANCH  12  14
ENDBRANCH   9  10
BRANCH   9  20
ATOM     20  C   LIG    1       26.283 -27.703   8.247  0.00  0.00    +0.060 C 
BRANCH  20  21
ATOM     21  C   LIG    1       26.027 -26.831   7.015  0.00  0.00    -0.045 A 
ATOM     22  C   LIG    1       26.020 -27.381   5.707  0.00  0.00    +0.003 A 
ATOM     23  C   LIG    1       25.624 -26.622   4.584  0.00  0.00    +0.000 A 
ATOM     24  C   LIG    1       25.177 -25.317   4.746  0.00  0.00    +0.000 A 
ATOM     25  C   LIG    1       25.179 -24.761   6.017  0.00  0.00    +0.000 A 
ATOM     26  C   LIG    1       25.614 -25.504   7.125  0.00  0.00    +0.003 A 
ENDBRANCH  20  21
ENDBRANCH   9  20
ENDBRANCH   1   9
BRANCH   1  27
ATOM     27  C   LIG    1       25.093 -30.552  10.627  0.00  0.00    +0.143 C 
BRANCH  27  28
ATOM     28  N   LIG    1       23.938 -29.603  11.180  0.00  0.00    -0.174 NA
BRANCH  28  29
ATOM     29  S   LIG    1       24.038 -28.961  12.808  0.00  0.00    +0.061 S 
ATOM     30  O   LIG    1       24.960 -27.885  12.888  0.00  0.00    -0.153 OA
ATOM     31  O   LIG    1       24.301 -30.171  13.609  0.00  0.00    -0.153 OA
BRANCH  29  32
ATOM     32  C   LIG    1       22.419 -28.378  13.474  0.00  0.00    +0.106 A 
ATOM     33  C   LIG    1       21.726 -27.340  12.879  0.00  0.00    +0.030 A 
ATOM     34  C   LIG    1       20.444 -26.942  13.244  0.00  0.00    +0.024 A 
ATOM     35  C   LIG    1       19.659 -27.839  13.940  0.00  0.00    +0.025 A 
ATOM     36  C   LIG    1       20.303 -28.879  14.605  0.00  0.00    +0.024 A 
ATOM     37  C   LIG    1       21.700 -29.116  14.446  0.00  0.00    +0.030 A 
BRANCH  35  38
ATOM     38  N   LIG    1       18.285 -27.606  14.077  0.00  0.00    -0.358 N 
ATOM     39  H   LIG    1       17.843 -28.260  14.722  0.00  0.00    +0.142 HD
ATOM     40  H   LIG    1       18.101 -26.651  14.373  0.00  0.00    +0.142 HD
ENDBRANCH  35  38
ENDBRANCH  29  32
ENDBRANCH  28  29
BRANCH  28  41
ATOM     41  C   LIG    1       22.665 -30.111  10.544  0.00  0.00    +0.112 C 
BRANCH  41  43
ATOM     42  C   LIG    1       20.253 -30.630  11.299  0.00  0.00    +0.008 C 
ATOM     43  C   LIG    1       21.718 -31.094  11.233  0.00  0.00    -0.002 C 
ATOM     44  C   LIG    1       21.712 -32.399  10.424  0.00  0.00    +0.008 C 
ENDBRANCH  41  43
ENDBRANCH  28  41
ENDBRANCH  27  28
ENDBRANCH   1  27
TORSDOF 17
ENDMDL
MODEL 4
REMARK VINA RESULT:      -6.6      8.250     12.565
REMARK  Name = *****
REMARK                            x       y       z     vdW  Elec       q    Type
REMARK                         _______ _______ _______ _____ _____    ______ ____
ROOT
ATOM      1  C   LIG    1       24.155 -30.487   9.277  0.00  0.00    +0.166 C 
ENDROOT
BRANCH   1   2
ATOM      2  O   LIG    1       24.201 -31.914   9.133  0.00  0.00    -0.280 OA
BRANCH   2   3
ATOM      3  P   LIG    1       23.341 -32.716   8.061  0.00  0.00    +0.473 P 
ATOM      4  O   LIG    1       22.157 -33.522   8.434  0.00  0.00    -0.228 OA
BRANCH   3   5
ATOM      5  O   LIG    1       23.343 -31.884   6.701  0.00  0.00    -0.303 OA
ATOM      6  H   LIG    1       22.563 -31.307   6.683  0.00  0.00    +0.222 HD
ENDBRANCH   3   5
BRANCH   3   7
ATOM      7  O   LIG    1       24.360 -33.824   7.497  0.00  0.00    -0.303 OA
ATOM      8  H   LIG    1       23.796 -34.310   6.853  0.00  0.00    +0.222 HD
ENDBRANCH   3   7
ENDBRANCH   2   3
ENDBRANCH   1   2
BRANCH   1   9
ATOM      9  C   LIG    1       25.585 -29.954   8.769  0.00  0.00    +0.111 C 
BRANCH   9  10
ATOM     10  N   LIG    1       25.902 -30.127   7.332  0.00  0.00    -0.275 N 
ATOM     11  H   LIG    1       26.463 -30.912   7.026  0.00  0.00    +0.152 HD
ATOM     12  C   LIG    1       25.313 -29.507   6.261  0.00  0.00    +0.401 C 
ATOM     13  O   LIG    1       25.406 -29.997   5.128  0.00  0.00    -0.227 OA
BRANCH  12  14
ATOM     14  O   LIG    1       24.727 -28.328   6.555  0.00  0.00    -0.445 OA
BRANCH  14  15
ATOM     15  C   LIG    1       24.930 -27.231   5.630  0.00  0.00    +0.206 C 
ATOM     16  C   LIG    1       26.386 -26.755   5.670  0.00  0.00    +0.204 C 
ATOM     17  O   LIG    1       26.356 -25.328   5.827  0.00  0.00    -0.376 OA
ATOM     18  C   LIG    1       25.192 -25.058   6.605  0.00  0.00    +0.163 C 
ATOM     19  C   LIG    1       24.141 -26.001   6.058  0.00  0.00    +0.075 C 
ENDBRANCH  14  15
ENDBRANCH  12  14
ENDBRANCH   9  10
BRANCH   9  20
ATOM     20  C   LIG    1       26.158 -28.615   9.452  0.00  0.00    +0.060 C 
BRANCH  20  21
ATOM     21  C   LIG    1       26.893 -28.521  10.791  0.00  0.00    -0.045 A 
ATOM     22  C   LIG    1       26.513 -27.575  11.780  0.00  0.00    +0.003 A 
ATOM     23  C   LIG    1       27.073 -27.590  13.076  0.00  0.00    +0.000 A 
ATOM     24  C   LIG    1       27.984 -28.577  13.432  0.00  0.00    +0.000 A 
ATOM     25  C   LIG    1       28.370 -29.508  12.478  0.00  0.00    +0.000 A 
ATOM     26  C   LIG    1       27.843 -29.465  11.179  0.00  0.00    +0.003 A 
ENDBRANCH  20  21
ENDBRANCH   9  20
ENDBRANCH   1   9
BRANCH   1  27
ATOM     27  C   LIG    1       23.748 -30.090  10.715  0.00  0.00    +0.143 C 
BRANCH  27  28
ATOM     28  N   LIG    1       22.878 -31.082  11.609  0.00  0.00    -0.174 NA
BRANCH  28  29
ATOM     29  S   LIG    1       21.148 -30.844  11.750  0.00  0.00    +0.061 S 
ATOM     30  O   LIG    1       20.492 -32.026  12.183  0.00  0.00    -0.153 OA
ATOM     31  O   LIG    1       20.797 -30.292  10.428  0.00  0.00    -0.153 OA
BRANCH  29  32
ATOM     32  C   LIG    1       20.680 -29.477  12.897  0.00  0.00    +0.106 A 
ATOM     33  C   LIG    1       21.042 -28.166  12.644  0.00  0.00    +0.030 A 
ATOM     34  C   LIG    1       20.609 -27.075  13.390  0.00  0.00    +0.024 A 
ATOM     35  C   LIG    1       19.473 -27.224  14.159  0.00  0.00    +0.025 A 
ATOM     36  C   LIG    1       19.085 -28.519  14.492  0.00  0.00    +0.024 A 
ATOM     37  C   LIG    1       19.730 -29.659  13.932  0.00  0.00    +0.030 A 
BRANCH  35  38
ATOM     38  N   LIG    1       18.837 -26.095  14.692  0.00  0.00    -0.358 N 
ATOM     39  H   LIG    1       18.879 -26.072  15.711  0.00  0.00    +0.142 HD
ATOM     40  H   LIG    1       19.228 -25.237  14.311  0.00  0.00    +0.142 HD
ENDBRANCH  35  38
ENDBRANCH  29  32
ENDBRANCH  28  29
BRANCH  28  41
ATOM     41  C   LIG    1       23.778 -31.477  12.757  0.00  0.00    +0.112 C 
BRANCH  41  43
ATOM     42  C   LIG    1       24.117 -29.473  14.345  0.00  0.00    +0.008 C 
ATOM     43  C   LIG    1       24.765 -30.514  13.417  0.00  0.00    -0.002 C 
ATOM     44  C   LIG    1       25.714 -31.335  14.302  0.00  0.00    +0.008 C 
ENDBRANCH  41  43
ENDBRANCH  28  41
ENDBRANCH  27  28
ENDBRANCH   1  27
TORSDOF 17
ENDMDL
MODEL 5
REMARK VINA RESULT:      -6.5      7.797     12.123
REMARK  Name = *****
REMARK                            x       y       z     vdW  Elec       q    Type
REMARK                         _______ _______ _______ _____ _____    ______ ____
ROOT
ATOM      1  C   LIG    1       26.012 -29.533  10.084  0.00  0.00    +0.166 C 
ENDROOT
BRANCH   1   2
ATOM      2  O   LIG    1       26.362 -30.924  10.082  0.00  0.00    -0.280 OA
BRANCH   2   3
ATOM      3  P   LIG    1       25.314 -32.094  10.338  0.00  0.00    +0.473 P 
ATOM      4  O   LIG    1       24.242 -32.427   9.373  0.00  0.00    -0.228 OA
BRANCH   3   5
ATOM      5  O   LIG    1       26.055 -33.256  11.140  0.00  0.00    -0.303 OA
ATOM      6  H   LIG    1       26.234 -33.993  10.534  0.00  0.00    +0.222 HD
ENDBRANCH   3   5
BRANCH   3   7
ATOM      7  O   LIG    1       24.488 -31.600  11.626  0.00  0.00    -0.303 OA
ATOM      8  H   LIG    1       24.396 -32.434  12.141  0.00  0.00    +0.222 HD
ENDBRANCH   3   7
ENDBRANCH   2   3
ENDBRANCH   1   2
BRANCH   1   9
ATOM      9  C   LIG    1       25.821 -29.132   8.539  0.00  0.00    +0.111 C 
BRANCH   9  10
ATOM     10  N   LIG    1       24.584 -29.595   7.865  0.00  0.00    -0.275 N 
ATOM     11  H   LIG    1       23.678 -29.317   8.219  0.00  0.00    +0.152 HD
ATOM     12  C   LIG    1       24.467 -30.158   6.621  0.00  0.00    +0.401 C 
ATOM     13  O   LIG    1       23.375 -30.158   6.037  0.00  0.00    -0.227 OA
BRANCH  12  14
ATOM     14  O   LIG    1       25.591 -30.751   6.170  0.00  0.00    -0.445 OA
BRANCH  14  15
ATOM     15  C   LIG    1       25.696 -32.189   6.319  0.00  0.00    +0.206 C 
ATOM     16  C   LIG    1       27.095 -32.578   6.808  0.00  0.00    +0.204 C 
ATOM     17  O   LIG    1       27.569 -33.618   5.937  0.00  0.00    -0.376 OA
ATOM     18  C   LIG    1       26.995 -33.333   4.662  0.00  0.00    +0.163 C 
ATOM     19  C   LIG    1       25.581 -32.888   4.972  0.00  0.00    +0.075 C 
ENDBRANCH  14  15
ENDBRANCH  12  14
ENDBRANCH   9  10
BRANCH   9  20
ATOM     20  C   LIG    1       26.366 -27.690   8.078  0.00  0.00    +0.060 C 
BRANCH  20  21
ATOM     21  C   LIG    1       25.824 -26.839   6.927  0.00  0.00    -0.045 A 
ATOM     22  C   LIG    1       25.457 -25.481   7.118  0.00  0.00    +0.003 A 
ATOM     23  C   LIG    1       25.113 -24.644   6.034  0.00  0.00    +0.000 A 
ATOM     24  C   LIG    1       25.178 -25.126   4.732  0.00  0.00    +0.000 A 
ATOM     25  C   LIG    1       25.533 -26.452   4.526  0.00  0.00    +0.000 A 
ATOM     26  C   LIG    1       25.832 -27.292   5.608  0.00  0.00    +0.003 A 
ENDBRANCH  20  21
ENDBRANCH   9  20
ENDBRANCH   1   9
BRANCH   1  27
ATOM     27  C   LIG    1       27.044 -28.705  10.884  0.00  0.00    +0.143 C 
BRANCH  27  28
ATOM     28  N   LIG    1       26.920 -28.575  12.468  0.00  0.00    -0.174 NA
BRANCH  28  29
ATOM     29  S   LIG    1       26.127 -27.180  13.172  0.00  0.00    +0.061 S 
ATOM     30  O   LIG    1       26.387 -26.001  12.426  0.00  0.00    -0.153 OA
ATOM     31  O   LIG    1       26.578 -27.235  14.575  0.00  0.00    -0.153 OA
BRANCH  29  32
ATOM     32  C   LIG    1       24.298 -27.368  13.326  0.00  0.00    +0.106 A 
ATOM     33  C   LIG    1       23.486 -26.294  13.639  0.00  0.00    +0.030 A 
ATOM     34  C   LIG    1       22.096 -26.335  13.637  0.00  0.00    +0.024 A 
ATOM     35  C   LIG    1       21.476 -27.341  12.922  0.00  0.00    +0.025 A 
ATOM     36  C   LIG    1       22.227 -28.474  12.621  0.00  0.00    +0.024 A 
ATOM     37  C   LIG    1       23.626 -28.536  12.889  0.00  0.00    +0.030 A 
BRANCH  35  38
ATOM     38  N   LIG    1       20.105 -27.263  12.650  0.00  0.00    -0.358 N 
ATOM     39  H   LIG    1       19.537 -27.641  13.408  0.00  0.00    +0.142 HD
ATOM     40  H   LIG    1       19.823 -26.306  12.451  0.00  0.00    +0.142 HD
ENDBRANCH  35  38
ENDBRANCH  29  32
ENDBRANCH  28  29
BRANCH  28  41
ATOM     41  C   LIG    1       28.177 -29.208  13.020  0.00  0.00    +0.112 C 
BRANCH  41  43
ATOM     42  C   LIG    1       28.639 -29.869  15.470  0.00  0.00    +0.008 C 
ATOM     43  C   LIG    1       28.163 -30.312  14.076  0.00  0.00    -0.002 C 
ATOM     44  C   LIG    1       26.713 -30.784  14.255  0.00  0.00    +0.008 C 
ENDBRANCH  41  43
ENDBRANCH  28  41
ENDBRANCH  27  28
ENDBRANCH   1  27
TORSDOF 17
ENDMDL
MODEL 6
REMARK VINA RESULT:      -6.5      8.746     12.298
REMARK  Name = *****
REMARK                            x       y       z     vdW  Elec       q    Type
REMARK                         _______ _______ _______ _____ _____    ______ ____
ROOT
ATOM      1  C   LIG    1       25.052 -30.541   9.976  0.00  0.00    +0.166 C 
ENDROOT
BRANCH   1   2
ATOM      2  O   LIG    1       23.705 -30.174   9.648  0.00  0.00    -0.280 OA
BRANCH   2   3
ATOM      3  P   LIG    1       22.455 -31.133   9.869  0.00  0.00    +0.473 P 
ATOM      4  O   LIG    1       21.169 -30.649  10.422  0.00  0.00    -0.228 OA
BRANCH   3   5
ATOM      5  O   LIG    1       22.463 -32.233   8.715  0.00  0.00    -0.303 OA
ATOM      6  H   LIG    1       21.959 -31.898   7.957  0.00  0.00    +0.222 HD
ENDBRANCH   3   5
BRANCH   3   7
ATOM      7  O   LIG    1       22.954 -32.170  10.993  0.00  0.00    -0.303 OA
ATOM      8  H   LIG    1       23.359 -31.568  11.659  0.00  0.00    +0.222 HD
ENDBRANCH   3   7
ENDBRANCH   2   3
ENDBRANCH   1   2
BRANCH   1   9
ATOM      9  C   LIG    1       25.387 -29.776  11.349  0.00  0.00    +0.111 C 
BRANCH   9  10
ATOM     10  N   LIG    1       25.196 -30.530  12.611  0.00  0.00    -0.275 N 
ATOM     11  H   LIG    1       25.853 -31.253  12.877  0.00  0.00    +0.152 HD
ATOM     12  C   LIG    1       24.372 -30.217  13.660  0.00  0.00    +0.401 C 
ATOM     13  O   LIG    1       24.572 -30.707  14.779  0.00  0.00    -0.227 OA
BRANCH  12  14
ATOM     14  O   LIG    1       23.330 -29.425  13.332  0.00  0.00    -0.445 OA
BRANCH  14  15
ATOM     15  C   LIG    1       23.084 -28.264  14.164  0.00  0.00    +0.206 C 
ATOM     16  C   LIG    1       21.667 -28.311  14.747  0.00  0.00    +0.204 C 
ATOM     17  O   LIG    1       21.064 -27.034  14.487  0.00  0.00    -0.376 OA
ATOM     18  C   LIG    1       21.626 -26.596  13.250  0.00  0.00    +0.163 C 
ATOM     19  C   LIG    1       23.086 -26.987  13.336  0.00  0.00    +0.075 C 
ENDBRANCH  14  15
ENDBRANCH  12  14
ENDBRANCH   9  10
BRANCH   9  20
ATOM     20  C   LIG    1       26.621 -28.744  11.337  0.00  0.00    +0.060 C 
BRANCH  20  21
ATOM     21  C   LIG    1       27.035 -27.809  12.476  0.00  0.00    -0.045 A 
ATOM     22  C   LIG    1       26.640 -26.445  12.497  0.00  0.00    +0.003 A 
ATOM     23  C   LIG    1       26.877 -25.621  13.619  0.00  0.00    +0.000 A 
ATOM     24  C   LIG    1       27.463 -26.148  14.762  0.00  0.00    +0.000 A 
ATOM     25  C   LIG    1       27.858 -27.478  14.760  0.00  0.00    +0.000 A 
ATOM     26  C   LIG    1       27.661 -28.284  13.629  0.00  0.00    +0.003 A 
ENDBRANCH  20  21
ENDBRANCH   9  20
ENDBRANCH   1   9
BRANCH   1  27
ATOM     27  C   LIG    1       26.004 -30.266   8.788  0.00  0.00    +0.143 C 
BRANCH  27  28
ATOM     28  N   LIG    1       25.832 -31.060   7.417  0.00  0.00    -0.174 NA
BRANCH  28  29
ATOM     29  S   LIG    1       24.916 -30.350   6.104  0.00  0.00    +0.061 S 
ATOM     30  O   LIG    1       23.530 -30.635   6.221  0.00  0.00    -0.153 OA
ATOM     31  O   LIG    1       25.635 -30.843   4.914  0.00  0.00    -0.153 OA
BRANCH  29  32
ATOM     32  C   LIG    1       25.114 -28.520   5.968  0.00  0.00    +0.106 A 
ATOM     33  C   LIG    1       26.026 -27.956   5.095  0.00  0.00    +0.030 A 
ATOM     34  C   LIG    1       26.130 -26.593   4.844  0.00  0.00    +0.024 A 
ATOM     35  C   LIG    1       25.050 -25.790   5.151  0.00  0.00    +0.025 A 
ATOM     36  C   LIG    1       24.122 -26.281   6.066  0.00  0.00    +0.024 A 
ATOM     37  C   LIG    1       24.185 -27.621   6.547  0.00  0.00    +0.030 A 
BRANCH  35  38
ATOM     38  N   LIG    1       24.990 -24.480   4.660  0.00  0.00    -0.358 N 
ATOM     39  H   LIG    1       24.577 -24.433   3.729  0.00  0.00    +0.142 HD
ATOM     40  H   LIG    1       24.479 -23.872   5.295  0.00  0.00    +0.142 HD
ENDBRANCH  35  38
ENDBRANCH  29  32
ENDBRANCH  28  29
BRANCH  28  41
ATOM     41  C   LIG    1       25.769 -32.519   7.807  0.00  0.00    +0.112 C 
BRANCH  41  43
ATOM     42  C   LIG    1       27.840 -33.044   6.361  0.00  0.00    +0.008 C 
ATOM     43  C   LIG    1       26.848 -33.534   7.430  0.00  0.00    -0.002 C 
ATOM     44  C   LIG    1       27.688 -33.825   8.683  0.00  0.00    +0.008 C 
ENDBRANCH  41  43
ENDBRANCH  28  41
ENDBRANCH  27  28
ENDBRANCH   1  27
TORSDOF 17
ENDMDL
MODEL 7
REMARK VINA RESULT:      -6.4      8.155     12.424
REMARK  Name = *****
REMARK                            x       y       z     vdW  Elec       q    Type
REMARK                         _______ _______ _______ _____ _____    ______ ____
ROOT
ATOM      1  C   LIG    1       24.075 -30.040   9.705  0.00  0.00    +0.166 C 
ENDROOT
BRANCH   1   2
ATOM      2  O   LIG    1       23.313 -30.802   8.758  0.00  0.00    -0.280 OA
BRANCH   2   3
ATOM      3  P   LIG    1       23.567 -32.345   8.465  0.00  0.00    +0.473 P 
ATOM      4  O   LIG    1       24.847 -33.016   8.787  0.00  0.00    -0.228 OA
BRANCH   3   5
ATOM      5  O   LIG    1       22.188 -33.120   8.665  0.00  0.00    -0.303 OA
ATOM      6  H   LIG    1       22.348 -34.074   8.586  0.00  0.00    +0.222 HD
ENDBRANCH   3   5
BRANCH   3   7
ATOM      7  O   LIG    1       23.506 -32.452   6.862  0.00  0.00    -0.303 OA
ATOM      8  H   LIG    1       22.536 -32.471   6.696  0.00  0.00    +0.222 HD
ENDBRANCH   3   7
ENDBRANCH   2   3
ENDBRANCH   1   2
BRANCH   1   9
ATOM      9  C   LIG    1       25.511 -29.807   9.019  0.00  0.00    +0.111 C 
BRANCH   9  10
ATOM     10  N   LIG    1       25.623 -30.085   7.567  0.00  0.00    -0.275 N 
ATOM     11  H   LIG    1       26.008 -30.964   7.246  0.00  0.00    +0.152 HD
ATOM     12  C   LIG    1       25.020 -29.415   6.535  0.00  0.00    +0.401 C 
ATOM     13  O   LIG    1       24.896 -29.956   5.428  0.00  0.00    -0.227 OA
BRANCH  12  14
ATOM     14  O   LIG    1       24.672 -28.144   6.824  0.00  0.00    -0.445 OA
BRANCH  14  15
ATOM     15  C   LIG    1       24.897 -27.140   5.804  0.00  0.00    +0.206 C 
ATOM     16  C   LIG    1       26.368 -26.710   5.787  0.00  0.00    +0.204 C 
ATOM     17  O   LIG    1       26.386 -25.274   5.818  0.00  0.00    -0.376 OA
ATOM     18  C   LIG    1       25.240 -24.899   6.581  0.00  0.00    +0.163 C 
ATOM     19  C   LIG    1       24.154 -25.852   6.130  0.00  0.00    +0.075 C 
ENDBRANCH  14  15
ENDBRANCH  12  14
ENDBRANCH   9  10
BRANCH   9  20
ATOM     20  C   LIG    1       26.399 -28.581   9.562  0.00  0.00    +0.060 C 
BRANCH  20  21
ATOM     21  C   LIG    1       27.015 -28.452  10.958  0.00  0.00    -0.045 A 
ATOM     22  C   LIG    1       26.716 -27.350  11.801  0.00  0.00    +0.003 A 
ATOM     23  C   LIG    1       27.147 -27.306  13.145  0.00  0.00    +0.000 A 
ATOM     24  C   LIG    1       27.837 -28.379  13.693  0.00  0.00    +0.000 A 
ATOM     25  C   LIG    1       28.140 -29.465  12.883  0.00  0.00    +0.000 A 
ATOM     26  C   LIG    1       27.748 -29.488  11.537  0.00  0.00    +0.003 A 
ENDBRANCH  20  21
ENDBRANCH   9  20
ENDBRANCH   1   9
BRANCH   1  27
ATOM     27  C   LIG    1       24.082 -30.728  11.090  0.00  0.00    +0.143 C 
BRANCH  27  28
ATOM     28  N   LIG    1       22.855 -30.539  12.089  0.00  0.00    -0.174 NA
BRANCH  28  29
ATOM     29  S   LIG    1       23.088 -29.709  13.614  0.00  0.00    +0.061 S 
ATOM     30  O   LIG    1       24.388 -29.147  13.709  0.00  0.00    -0.153 OA
ATOM     31  O   LIG    1       22.694 -30.736  14.596  0.00  0.00    -0.153 OA
BRANCH  29  32
ATOM     32  C   LIG    1       21.861 -28.365  13.920  0.00  0.00    +0.106 A 
ATOM     33  C   LIG    1       21.423 -27.541  12.899  0.00  0.00    +0.030 A 
ATOM     34  C   LIG    1       20.405 -26.603  13.031  0.00  0.00    +0.024 A 
ATOM     35  C   LIG    1       19.515 -26.751  14.076  0.00  0.00    +0.025 A 
ATOM     36  C   LIG    1       19.918 -27.528  15.159  0.00  0.00    +0.024 A 
ATOM     37  C   LIG    1       21.129 -28.280  15.130  0.00  0.00    +0.030 A 
BRANCH  35  38
ATOM     38  N   LIG    1       18.321 -26.020  14.088  0.00  0.00    -0.358 N 
ATOM     39  H   LIG    1       17.757 -26.186  13.255  0.00  0.00    +0.142 HD
ATOM     40  H   LIG    1       17.775 -26.220  14.922  0.00  0.00    +0.142 HD
ENDBRANCH  35  38
ENDBRANCH  29  32
ENDBRANCH  28  29
BRANCH  28  41
ATOM     41  C   LIG    1       22.005 -31.778  11.916  0.00  0.00    +0.112 C 
BRANCH  41  43
ATOM     42  C   LIG    1       19.665 -31.286  12.883  0.00  0.00    +0.008 C 
ATOM     43  C   LIG    1       20.498 -31.731  11.669  0.00  0.00    -0.002 C 
ATOM     44  C   LIG    1       20.226 -30.695  10.568  0.00  0.00    +0.008 C 
ENDBRANCH  41  43
ENDBRANCH  28  41
ENDBRANCH  27  28
ENDBRANCH   1  27
TORSDOF 17
ENDMDL
MODEL 8
REMARK VINA RESULT:      -6.3      2.506      7.721
REMARK  Name = *****
REMARK                            x       y       z     vdW  Elec       q    Type
REMARK                         _______ _______ _______ _____ _____    ______ ____
ROOT
ATOM      1  C   LIG    1       26.951 -20.199   6.379  0.00  0.00    +0.166 C 
ENDROOT
BRANCH   1   2
ATOM      2  O   LIG    1       26.439 -21.193   7.278  0.00  0.00    -0.280 OA
BRANCH   2   3
ATOM      3  P   LIG    1       25.611 -20.846   8.592  0.00  0.00    +0.473 P 
ATOM      4  O   LIG    1       26.175 -20.038   9.697  0.00  0.00    -0.228 OA
BRANCH   3   5
ATOM      5  O   LIG    1       24.079 -20.677   8.181  0.00  0.00    -0.303 OA
ATOM      6  H   LIG    1       23.633 -21.534   8.269  0.00  0.00    +0.222 HD
ENDBRANCH   3   5
BRANCH   3   7
ATOM      7  O   LIG    1       25.367 -22.275   9.286  0.00  0.00    -0.303 OA
ATOM      8  H   LIG    1       25.271 -22.867   8.506  0.00  0.00    +0.222 HD
ENDBRANCH   3   7
ENDBRANCH   2   3
ENDBRANCH   1   2
BRANCH   1   9
ATOM      9  C   LIG    1       26.019 -20.277   5.072  0.00  0.00    +0.111 C 
BRANCH   9  10
ATOM     10  N   LIG    1       24.571 -20.511   5.283  0.00  0.00    -0.275 N 
ATOM     11  H   LIG    1       23.946 -19.731   5.436  0.00  0.00    +0.152 HD
ATOM     12  C   LIG    1       23.861 -21.658   5.037  0.00  0.00    +0.401 C 
ATOM     13  O   LIG    1       22.630 -21.613   4.905  0.00  0.00    -0.227 OA
BRANCH  12  14
ATOM     14  O   LIG    1       24.604 -22.783   5.038  0.00  0.00    -0.445 OA
BRANCH  14  15
ATOM     15  C   LIG    1       24.641 -23.560   6.260  0.00  0.00    +0.206 C 
ATOM     16  C   LIG    1       25.909 -24.420   6.313  0.00  0.00    +0.204 C 
ATOM     17  O   LIG    1       25.494 -25.758   6.633  0.00  0.00    -0.376 OA
ATOM     18  C   LIG    1       24.206 -25.906   6.039  0.00  0.00    +0.163 C 
ATOM     19  C   LIG    1       23.514 -24.583   6.293  0.00  0.00    +0.075 C 
ENDBRANCH  14  15
ENDBRANCH  12  14
ENDBRANCH   9  10
BRANCH   9  20
ATOM     20  C   LIG    1       26.394 -19.313   3.839  0.00  0.00    +0.060 C 
BRANCH  20  21
ATOM     21  C   LIG    1       26.411 -17.782   3.854  0.00  0.00    -0.045 A 
ATOM     22  C   LIG    1       27.599 -17.057   4.131  0.00  0.00    +0.003 A 
ATOM     23  C   LIG    1       27.663 -15.654   3.986  0.00  0.00    +0.000 A 
ATOM     24  C   LIG    1       26.563 -14.949   3.513  0.00  0.00    +0.000 A 
ATOM     25  C   LIG    1       25.392 -15.642   3.239  0.00  0.00    +0.000 A 
ATOM     26  C   LIG    1       25.318 -17.030   3.425  0.00  0.00    +0.003 A 
ENDBRANCH  20  21
ENDBRANCH   9  20
ENDBRANCH   1   9
BRANCH   1  27
ATOM     27  C   LIG    1       28.468 -20.391   6.150  0.00  0.00    +0.143 C 
BRANCH  27  28
ATOM     28  N   LIG    1       29.503 -20.109   7.330  0.00  0.00    -0.174 NA
BRANCH  28  29
ATOM     29  S   LIG    1       30.547 -18.704   7.261  0.00  0.00    +0.061 S 
ATOM     30  O   LIG    1       29.928 -17.628   6.572  0.00  0.00    -0.153 OA
ATOM     31  O   LIG    1       31.795 -19.264   6.710  0.00  0.00    -0.153 OA
BRANCH  29  32
ATOM     32  C   LIG    1       31.075 -18.092   8.920  0.00  0.00    +0.106 A 
ATOM     33  C   LIG    1       32.218 -17.331   9.078  0.00  0.00    +0.030 A 
ATOM     34  C   LIG    1       32.599 -16.727  10.271  0.00  0.00    +0.024 A 
ATOM     35  C   LIG    1       31.632 -16.526  11.236  0.00  0.00    +0.025 A 
ATOM     36  C   LIG    1       30.477 -17.301  11.161  0.00  0.00    +0.024 A 
ATOM     37  C   LIG    1       30.219 -18.151  10.047  0.00  0.00    +0.030 A 
BRANCH  35  38
ATOM     38  N   LIG    1       31.889 -15.676  12.318  0.00  0.00    -0.358 N 
ATOM     39  H   LIG    1       31.164 -15.728  13.033  0.00  0.00    +0.142 HD
ATOM     40  H   LIG    1       32.798 -15.872  12.732  0.00  0.00    +0.142 HD
ENDBRANCH  35  38
ENDBRANCH  29  32
ENDBRANCH  28  29
BRANCH  28  41
ATOM     41  C   LIG    1       29.944 -21.473   7.808  0.00  0.00    +0.112 C 
BRANCH  41  43
ATOM     42  C   LIG    1       30.517 -22.075  10.250  0.00  0.00    +0.008 C 
ATOM     43  C   LIG    1       31.036 -21.680   8.858  0.00  0.00    -0.002 C 
ATOM     44  C   LIG    1       31.930 -22.840   8.395  0.00  0.00    +0.008 C 
ENDBRANCH  41  43
ENDBRANCH  28  41
ENDBRANCH  27  28
ENDBRANCH   1  27
TORSDOF 17
ENDMDL
MODEL 9
REMARK VINA RESULT:      -6.3      8.667     12.649
REMARK  Name = *****
REMARK                            x       y       z     vdW  Elec       q    Type
REMARK                         _______ _______ _______ _____ _____    ______ ____
ROOT
ATOM      1  C   LIG    1       25.620 -30.491  10.671  0.00  0.00    +0.166 C 
ENDROOT
BRANCH   1   2
ATOM      2  O   LIG    1       26.798 -30.412  11.486  0.00  0.00    -0.280 OA
BRANCH   2   3
ATOM      3  P   LIG    1       27.503 -29.041  11.879  0.00  0.00    +0.473 P 
ATOM      4  O   LIG    1       27.240 -27.776  11.157  0.00  0.00    -0.228 OA
BRANCH   3   5
ATOM      5  O   LIG    1       27.715 -29.028  13.460  0.00  0.00    -0.303 OA
ATOM      6  H   LIG    1       28.076 -28.166  13.722  0.00  0.00    +0.222 HD
ENDBRANCH   3   5
BRANCH   3   7
ATOM      7  O   LIG    1       29.060 -29.304  11.576  0.00  0.00    -0.303 OA
ATOM      8  H   LIG    1       29.275 -30.016  12.221  0.00  0.00    +0.222 HD
ENDBRANCH   3   7
ENDBRANCH   2   3
ENDBRANCH   1   2
BRANCH   1   9
ATOM      9  C   LIG    1       26.133 -30.345   9.154  0.00  0.00    +0.111 C 
BRANCH   9  10
ATOM     10  N   LIG    1       27.113 -31.345   8.669  0.00  0.00    -0.275 N 
ATOM     11  H   LIG    1       28.102 -31.129   8.668  0.00  0.00    +0.152 HD
ATOM     12  C   LIG    1       26.910 -32.682   8.449  0.00  0.00    +0.401 C 
ATOM     13  O   LIG    1       27.872 -33.460   8.404  0.00  0.00    -0.227 OA
BRANCH  12  14
ATOM     14  O   LIG    1       25.624 -33.019   8.219  0.00  0.00    -0.445 OA
BRANCH  14  15
ATOM     15  C   LIG    1       25.314 -33.649   6.951  0.00  0.00    +0.206 C 
ATOM     16  C   LIG    1       25.721 -32.741   5.785  0.00  0.00    +0.204 C 
ATOM     17  O   LIG    1       24.589 -32.658   4.904  0.00  0.00    -0.376 OA
ATOM     18  C   LIG    1       23.445 -32.750   5.751  0.00  0.00    +0.163 C 
ATOM     19  C   LIG    1       23.811 -33.807   6.772  0.00  0.00    +0.075 C 
ENDBRANCH  14  15
ENDBRANCH  12  14
ENDBRANCH   9  10
BRANCH   9  20
ATOM     20  C   LIG    1       25.071 -29.826   8.062  0.00  0.00    +0.060 C 
BRANCH  20  21
ATOM     21  C   LIG    1       25.190 -28.563   7.206  0.00  0.00    -0.045 A 
ATOM     22  C   LIG    1       24.307 -28.315   6.123  0.00  0.00    +0.003 A 
ATOM     23  C   LIG    1       24.303 -27.083   5.434  0.00  0.00    +0.000 A 
ATOM     24  C   LIG    1       25.142 -26.053   5.842  0.00  0.00    +0.000 A 
ATOM     25  C   LIG    1       26.014 -26.277   6.897  0.00  0.00    +0.000 A 
ATOM     26  C   LIG    1       26.046 -27.517   7.552  0.00  0.00    +0.003 A 
ENDBRANCH  20  21
ENDBRANCH   9  20
ENDBRANCH   1   9
BRANCH   1  27
ATOM     27  C   LIG    1       24.556 -29.470  11.136  0.00  0.00    +0.143 C 
BRANCH  27  28
ATOM     28  N   LIG    1       23.407 -29.908  12.149  0.00  0.00    -0.174 NA
BRANCH  28  29
ATOM     29  S   LIG    1       23.368 -29.242  13.769  0.00  0.00    +0.061 S 
ATOM     30  O   LIG    1       24.610 -28.650  14.120  0.00  0.00    -0.153 OA
ATOM     31  O   LIG    1       22.886 -30.384  14.569  0.00  0.00    -0.153 OA
BRANCH  29  32
ATOM     32  C   LIG    1       22.043 -27.984  14.020  0.00  0.00    +0.106 A 
ATOM     33  C   LIG    1       21.379 -27.411  12.951  0.00  0.00    +0.030 A 
ATOM     34  C   LIG    1       20.284 -26.564  13.071  0.00  0.00    +0.024 A 
ATOM     35  C   LIG    1       19.565 -26.592  14.249  0.00  0.00    +0.025 A 
ATOM     36  C   LIG    1       20.198 -27.110  15.377  0.00  0.00    +0.024 A 
ATOM     37  C   LIG    1       21.474 -27.739  15.294  0.00  0.00    +0.030 A 
BRANCH  35  38
ATOM     38  N   LIG    1       18.305 -25.985  14.315  0.00  0.00    -0.358 N 
ATOM     39  H   LIG    1       17.671 -26.329  13.596  0.00  0.00    +0.142 HD
ATOM     40  H   LIG    1       17.885 -26.106  15.234  0.00  0.00    +0.142 HD
ENDBRANCH  35  38
ENDBRANCH  29  32
ENDBRANCH  28  29
BRANCH  28  41
ATOM     41  C   LIG    1       23.112 -31.353  11.817  0.00  0.00    +0.112 C 
BRANCH  41  43
ATOM     42  C   LIG    1       20.809 -30.710  10.849  0.00  0.00    +0.008 C 
ATOM     43  C   LIG    1       21.887 -31.795  11.017  0.00  0.00    -0.002 C 
ATOM     44  C   LIG    1       22.347 -32.156   9.597  0.00  0.00    +0.008 C 
ENDBRANCH  41  43
ENDBRANCH  28  41
ENDBRANCH  27  28
ENDBRANCH   1  27
TORSDOF 17
ENDMDL
