MODEL 1
REMARK VINA RESULT:      -8.5      0.000      0.000
REMARK  Name = *****
REMARK                            x       y       z     vdW  Elec       q    Type
REMARK                         _______ _______ _______ _____ _____    ______ ____
ROOT
ATOM      1  C   LIG    1       27.633 -20.148   7.590  0.00  0.00    +0.160 C 
ENDROOT
BRANCH   1   2
ATOM      2  C   LIG    1       26.490 -20.699   8.449  0.00  0.00    +0.033 C 
BRANCH   2   3
ATOM      3  C   LIG    1       25.185 -20.853   7.659  0.00  0.00    +0.037 C 
BRANCH   3   8
ATOM      4 CL   LIG    1       24.167 -26.592   6.088  0.00  0.00    -0.084 Cl
ATOM      5  C   LIG    1       24.465 -24.951   6.515  0.00  0.00    +0.041 A 
ATOM      6  C   LIG    1       25.762 -24.517   6.744  0.00  0.00    +0.020 A 
ATOM      7  C   LIG    1       26.006 -23.187   7.101  0.00  0.00    +0.005 A 
ATOM      8  C   LIG    1       24.935 -22.284   7.239  0.00  0.00    -0.047 A 
ATOM      9  C   LIG    1       23.635 -22.737   6.999  0.00  0.00    +0.005 A 
ATOM     10  C   LIG    1       23.390 -24.064   6.634  0.00  0.00    +0.020 A 
ENDBRANCH   3   8
ENDBRANCH   2   3
ENDBRANCH   1   2
BRANCH   1  11
ATOM     11  O   LIG    1       28.819 -19.998   8.374  0.00  0.00    -0.380 OA
BRANCH  11  12
ATOM     12  C   LIG    1       29.985 -20.511   7.706  0.00  0.00    +0.161 C 
BRANCH  12  13
ATOM     13  C   LIG    1       30.850 -19.322   7.276  0.00  0.00    +0.043 C 
BRANCH  13  14
ATOM     14  C   LIG    1       31.685 -18.674   8.398  0.00  0.00    +0.086 C 
BRANCH  14  15
ATOM     15  N   LIG    1       31.356 -17.278   8.724  0.00  0.00    -0.302 NA
ATOM     16  C   LIG    1       30.177 -17.090   9.576  0.00  0.00    +0.084 C 
ATOM     17  C   LIG    1       30.379 -17.454  11.046  0.00  0.00    +0.015 C 
ATOM     18  C   LIG    1       31.595 -16.769  11.655  0.00  0.00    +0.002 C 
ATOM     19  C   LIG    1       32.822 -16.809  10.748  0.00  0.00    +0.015 C 
ATOM     20  C   LIG    1       32.498 -16.529   9.275  0.00  0.00    +0.084 C 
ENDBRANCH  14  15
ENDBRANCH  13  14
ENDBRANCH  12  13
ENDBRANCH  11  12
ENDBRANCH   1  11
TORSDOF 8
ENDMDL
MODEL 2
REMARK VINA RESULT:      -8.3      2.684      3.267
REMARK  Name = *****
REMARK                            x       y       z     vdW  Elec       q    Type
REMARK                         _______ _______ _______ _____ _____    ______ ____
ROOT
ATOM      1  C   LIG    1       28.533 -20.517   7.177  0.00  0.00    +0.160 C 
ENDROOT
BRANCH   1   2
ATOM      2  C   LIG    1       27.014 -20.462   7.369  0.00  0.00    +0.033 C 
BRANCH   2   3
ATOM      3  C   LIG    1       26.266 -21.370   6.386  0.00  0.00    +0.037 C 
BRANCH   3   8
ATOM      4 CL   LIG    1       21.529 -18.528   3.953  0.00  0.00    -0.084 Cl
ATOM      5  C   LIG    1       22.870 -19.358   4.641  0.00  0.00    +0.041 A 
ATOM      6  C   LIG    1       22.746 -19.978   5.876  0.00  0.00    +0.020 A 
ATOM      7  C   LIG    1       23.837 -20.644   6.442  0.00  0.00    +0.005 A 
ATOM      8  C   LIG    1       25.071 -20.682   5.766  0.00  0.00    -0.047 A 
ATOM      9  C   LIG    1       25.177 -20.058   4.520  0.00  0.00    +0.005 A 
ATOM     10  C   LIG    1       24.085 -19.399   3.949  0.00  0.00    +0.020 A 
ENDBRANCH   3   8
ENDBRANCH   2   3
ENDBRANCH   1   2
BRANCH   1  11
ATOM     11  O   LIG    1       29.190 -20.653   8.440  0.00  0.00    -0.380 OA
BRANCH  11  12
ATOM     12  C   LIG    1       30.624 -20.628   8.315  0.00  0.00    +0.161 C 
BRANCH  12  13
ATOM     13  C   LIG    1       31.016 -19.339   7.587  0.00  0.00    +0.043 C 
BRANCH  13  14
ATOM     14  C   LIG    1       31.982 -18.416   8.354  0.00  0.00    +0.086 C 
BRANCH  14  15
ATOM     15  N   LIG    1       31.446 -17.103   8.745  0.00  0.00    -0.302 NA
ATOM     16  C   LIG    1       30.216 -17.136   9.542  0.00  0.00    +0.084 C 
ATOM     17  C   LIG    1       30.401 -17.567  10.996  0.00  0.00    +0.015 C 
ATOM     18  C   LIG    1       31.480 -16.765  11.711  0.00  0.00    +0.002 C 
ATOM     19  C   LIG    1       32.740 -16.575  10.870  0.00  0.00    +0.015 C 
ATOM     20  C   LIG    1       32.447 -16.244   9.401  0.00  0.00    +0.084 C 
ENDBRANCH  14  15
ENDBRANCH  13  14
ENDBRANCH  12  13
ENDBRANCH  11  12
ENDBRANCH   1  11
TORSDOF 8
ENDMDL
MODEL 3
REMARK VINA RESULT:      -8.2      4.377      8.874
REMARK  Name = *****
REMARK                            x       y       z     vdW  Elec       q    Type
REMARK                         _______ _______ _______ _____ _____    ______ ____
ROOT
ATOM      1  C   LIG    1       28.886 -20.822   7.632  0.00  0.00    +0.160 C 
ENDROOT
BRANCH   1   2
ATOM      2  C   LIG    1       30.245 -20.121   7.715  0.00  0.00    +0.033 C 
BRANCH   2   3
ATOM      3  C   LIG    1       30.126 -18.596   7.613  0.00  0.00    +0.037 C 
BRANCH   3   8
ATOM      4 CL   LIG    1       32.576 -15.883  12.417  0.00  0.00    -0.084 Cl
ATOM      5  C   LIG    1       31.865 -16.638  11.044  0.00  0.00    +0.041 A 
ATOM      6  C   LIG    1       30.570 -17.131  11.113  0.00  0.00    +0.020 A 
ATOM      7  C   LIG    1       29.994 -17.754  10.001  0.00  0.00    +0.005 A 
ATOM      8  C   LIG    1       30.728 -17.892   8.808  0.00  0.00    -0.047 A 
ATOM      9  C   LIG    1       32.029 -17.385   8.754  0.00  0.00    +0.005 A 
ATOM     10  C   LIG    1       32.603 -16.755   9.861  0.00  0.00    +0.020 A 
ENDBRANCH   3   8
ENDBRANCH   2   3
ENDBRANCH   1   2
BRANCH   1  11
ATOM     11  O   LIG    1       27.898 -20.080   8.352  0.00  0.00    -0.380 OA
BRANCH  11  12
ATOM     12  C   LIG    1       26.559 -20.407   7.937  0.00  0.00    +0.161 C 
BRANCH  12  13
ATOM     13  C   LIG    1       26.637 -21.091   6.569  0.00  0.00    +0.043 C 
BRANCH  13  14
ATOM     14  C   LIG    1       26.028 -20.295   5.398  0.00  0.00    +0.086 C 
BRANCH  14  15
ATOM     15  N   LIG    1       24.934 -20.954   4.670  0.00  0.00    -0.302 NA
ATOM     16  C   LIG    1       23.787 -21.361   5.488  0.00  0.00    +0.084 C 
ATOM     17  C   LIG    1       22.882 -20.218   5.945  0.00  0.00    +0.015 C 
ATOM     18  C   LIG    1       22.429 -19.334   4.791  0.00  0.00    +0.002 C 
ATOM     19  C   LIG    1       23.557 -18.992   3.821  0.00  0.00    +0.015 C 
ATOM     20  C   LIG    1       24.470 -20.183   3.504  0.00  0.00    +0.084 C 
ENDBRANCH  14  15
ENDBRANCH  13  14
ENDBRANCH  12  13
ENDBRANCH  11  12
ENDBRANCH   1  11
TORSDOF 8
ENDMDL
MODEL 4
REMARK VINA RESULT:      -8.0      4.334      8.662
REMARK  Name = *****
REMARK                            x       y       z     vdW  Elec       q    Type
REMARK                         _______ _______ _______ _____ _____    ______ ____
ROOT
ATOM      1  C   LIG    1       28.081 -21.397   7.689  0.00  0.00    +0.160 C 
ENDROOT
BRANCH   1   2
ATOM      2  C   LIG    1       28.426 -19.973   7.242  0.00  0.00    +0.033 C 
BRANCH   2   3
ATOM      3  C   LIG    1       29.937 -19.753   7.101  0.00  0.00    +0.037 C 
BRANCH   3   8
ATOM      4 CL   LIG    1       32.132 -16.024  11.310  0.00  0.00    -0.084 Cl
ATOM      5  C   LIG    1       31.495 -17.070  10.101  0.00  0.00    +0.041 A 
ATOM      6  C   LIG    1       30.177 -17.495  10.173  0.00  0.00    +0.020 A 
ATOM      7  C   LIG    1       29.659 -18.353   9.197  0.00  0.00    +0.005 A 
ATOM      8  C   LIG    1       30.477 -18.797   8.141  0.00  0.00    -0.047 A 
ATOM      9  C   LIG    1       31.801 -18.355   8.080  0.00  0.00    +0.005 A 
ATOM     10  C   LIG    1       32.317 -17.491   9.050  0.00  0.00    +0.020 A 
ENDBRANCH   3   8
ENDBRANCH   2   3
ENDBRANCH   1   2
BRANCH   1  11
ATOM     11  O   LIG    1       27.178 -21.367   8.797  0.00  0.00    -0.380 OA
BRANCH  11  12
ATOM     12  C   LIG    1       25.965 -20.654   8.494  0.00  0.00    +0.161 C 
BRANCH  12  13
ATOM     13  C   LIG    1       25.047 -21.589   7.703  0.00  0.00    +0.043 C 
BRANCH  13  14
ATOM     14  C   LIG    1       23.807 -20.922   7.076  0.00  0.00    +0.086 C 
BRANCH  14  15
ATOM     15  N   LIG    1       23.462 -21.353   5.713  0.00  0.00    -0.302 NA
ATOM     16  C   LIG    1       22.338 -20.644   5.093  0.00  0.00    +0.084 C 
ATOM     17  C   LIG    1       22.647 -19.220   4.634  0.00  0.00    +0.015 C 
ATOM     18  C   LIG    1       23.882 -19.147   3.746  0.00  0.00    +0.002 C 
ATOM     19  C   LIG    1       25.046 -19.983   4.270  0.00  0.00    +0.015 C 
ATOM     20  C   LIG    1       24.618 -21.357   4.800  0.00  0.00    +0.084 C 
ENDBRANCH  14  15
ENDBRANCH  13  14
ENDBRANCH  12  13
ENDBRANCH  11  12
ENDBRANCH   1  11
TORSDOF 8
ENDMDL
MODEL 5
REMARK VINA RESULT:      -7.8      3.322      5.008
REMARK  Name = *****
REMARK                            x       y       z     vdW  Elec       q    Type
REMARK                         _______ _______ _______ _____ _____    ______ ____
ROOT
ATOM      1  C   LIG    1       25.514 -24.110   7.166  0.00  0.00    +0.160 C 
ENDROOT
BRANCH   1   2
ATOM      2  C   LIG    1       24.346 -23.723   6.254  0.00  0.00    +0.033 C 
BRANCH   2   3
ATOM      3  C   LIG    1       24.805 -22.962   5.005  0.00  0.00    +0.037 C 
BRANCH   3   8
ATOM      4 CL   LIG    1       22.190 -17.541   4.537  0.00  0.00    -0.084 Cl
ATOM      5  C   LIG    1       22.916 -19.096   4.662  0.00  0.00    +0.041 A 
ATOM      6  C   LIG    1       22.546 -19.957   5.685  0.00  0.00    +0.020 A 
ATOM      7  C   LIG    1       23.142 -21.217   5.795  0.00  0.00    +0.005 A 
ATOM      8  C   LIG    1       24.129 -21.615   4.873  0.00  0.00    -0.047 A 
ATOM      9  C   LIG    1       24.487 -20.738   3.846  0.00  0.00    +0.005 A 
ATOM     10  C   LIG    1       23.885 -19.482   3.730  0.00  0.00    +0.020 A 
ENDBRANCH   3   8
ENDBRANCH   2   3
ENDBRANCH   1   2
BRANCH   1  11
ATOM     11  O   LIG    1       26.368 -22.985   7.387  0.00  0.00    -0.380 OA
BRANCH  11  12
ATOM     12  C   LIG    1       25.852 -22.096   8.393  0.00  0.00    +0.161 C 
BRANCH  12  13
ATOM     13  C   LIG    1       26.103 -20.658   7.933  0.00  0.00    +0.043 C 
BRANCH  13  14
ATOM     14  C   LIG    1       27.547 -20.149   8.113  0.00  0.00    +0.086 C 
BRANCH  14  15
ATOM     15  N   LIG    1       28.556 -20.745   7.224  0.00  0.00    -0.302 NA
ATOM     16  C   LIG    1       28.922 -19.939   6.055  0.00  0.00    +0.084 C 
ATOM     17  C   LIG    1       29.806 -18.729   6.356  0.00  0.00    +0.015 C 
ATOM     18  C   LIG    1       31.045 -19.097   7.162  0.00  0.00    +0.002 C 
ATOM     19  C   LIG    1       30.747 -20.053   8.314  0.00  0.00    +0.015 C 
ATOM     20  C   LIG    1       29.771 -21.174   7.938  0.00  0.00    +0.084 C 
ENDBRANCH  14  15
ENDBRANCH  13  14
ENDBRANCH  12  13
ENDBRANCH  11  12
ENDBRANCH   1  11
TORSDOF 8
ENDMDL
MODEL 6
REMARK VINA RESULT:      -7.6      4.083      9.049
REMARK  Name = *****
REMARK                            x       y       z     vdW  Elec       q    Type
REMARK                         _______ _______ _______ _____ _____    ______ ____
ROOT
ATOM      1  C   LIG    1       30.615 -20.542   8.015  0.00  0.00    +0.160 C 
ENDROOT
BRANCH   1   2
ATOM      2  C   LIG    1       31.075 -19.201   7.436  0.00  0.00    +0.033 C 
BRANCH   2   3
ATOM      3  C   LIG    1       30.315 -18.012   8.035  0.00  0.00    +0.037 C 
BRANCH   3   8
ATOM      4 CL   LIG    1       33.024 -15.643  12.882  0.00  0.00    -0.084 Cl
ATOM      5  C   LIG    1       32.267 -16.336  11.500  0.00  0.00    +0.041 A 
ATOM      6  C   LIG    1       32.857 -16.217  10.251  0.00  0.00    +0.020 A 
ATOM      7  C   LIG    1       32.239 -16.770   9.125  0.00  0.00    +0.005 A 
ATOM      8  C   LIG    1       31.009 -17.442   9.252  0.00  0.00    -0.047 A 
ATOM      9  C   LIG    1       30.430 -17.558  10.519  0.00  0.00    +0.005 A 
ATOM     10  C   LIG    1       31.052 -17.013  11.647  0.00  0.00    +0.020 A 
ENDBRANCH   3   8
ENDBRANCH   2   3
ENDBRANCH   1   2
BRANCH   1  11
ATOM     11  O   LIG    1       29.238 -20.476   8.393  0.00  0.00    -0.380 OA
BRANCH  11  12
ATOM     12  C   LIG    1       28.428 -21.423   7.673  0.00  0.00    +0.161 C 
BRANCH  12  13
ATOM     13  C   LIG    1       26.969 -21.213   8.086  0.00  0.00    +0.043 C 
BRANCH  13  14
ATOM     14  C   LIG    1       26.038 -22.421   7.860  0.00  0.00    +0.086 C 
BRANCH  14  15
ATOM     15  N   LIG    1       25.578 -22.632   6.479  0.00  0.00    -0.302 NA
ATOM     16  C   LIG    1       24.514 -23.627   6.314  0.00  0.00    +0.084 C 
ATOM     17  C   LIG    1       23.129 -23.173   6.776  0.00  0.00    +0.015 C 
ATOM     18  C   LIG    1       22.717 -21.841   6.164  0.00  0.00    +0.002 C 
ATOM     19  C   LIG    1       23.837 -20.804   6.179  0.00  0.00    +0.015 C 
ATOM     20  C   LIG    1       25.206 -21.381   5.798  0.00  0.00    +0.084 C 
ENDBRANCH  14  15
ENDBRANCH  13  14
ENDBRANCH  12  13
ENDBRANCH  11  12
ENDBRANCH   1  11
TORSDOF 8
ENDMDL
MODEL 7
REMARK VINA RESULT:      -7.5      2.593      3.241
REMARK  Name = *****
REMARK                            x       y       z     vdW  Elec       q    Type
REMARK                         _______ _______ _______ _____ _____    ______ ____
ROOT
ATOM      1  C   LIG    1       26.876 -20.376   8.017  0.00  0.00    +0.160 C 
ENDROOT
BRANCH   1   2
ATOM      2  C   LIG    1       26.441 -21.844   8.080  0.00  0.00    +0.033 C 
BRANCH   2   3
ATOM      3  C   LIG    1       25.897 -22.352   6.740  0.00  0.00    +0.037 C 
BRANCH   3   8
ATOM      4 CL   LIG    1       21.976 -18.552   4.165  0.00  0.00    -0.084 Cl
ATOM      5  C   LIG    1       23.107 -19.618   4.906  0.00  0.00    +0.041 A 
ATOM      6  C   LIG    1       24.336 -19.854   4.308  0.00  0.00    +0.020 A 
ATOM      7  C   LIG    1       25.251 -20.728   4.903  0.00  0.00    +0.005 A 
ATOM      8  C   LIG    1       24.927 -21.378   6.108  0.00  0.00    -0.047 A 
ATOM      9  C   LIG    1       23.687 -21.125   6.700  0.00  0.00    +0.005 A 
ATOM     10  C   LIG    1       22.774 -20.245   6.111  0.00  0.00    +0.020 A 
ENDBRANCH   3   8
ENDBRANCH   2   3
ENDBRANCH   1   2
BRANCH   1  11
ATOM     11  O   LIG    1       28.295 -20.271   8.161  0.00  0.00    -0.380 OA
BRANCH  11  12
ATOM     12  C   LIG    1       28.978 -20.331   6.897  0.00  0.00    +0.161 C 
BRANCH  12  13
ATOM     13  C   LIG    1       29.875 -19.095   6.780  0.00  0.00    +0.043 C 
BRANCH  13  14
ATOM     14  C   LIG    1       29.960 -18.219   8.045  0.00  0.00    +0.086 C 
BRANCH  14  15
ATOM     15  N   LIG    1       31.047 -18.542   8.982  0.00  0.00    -0.302 NA
ATOM     16  C   LIG    1       32.282 -17.772   8.805  0.00  0.00    +0.084 C 
ATOM     17  C   LIG    1       32.212 -16.322   9.284  0.00  0.00    +0.015 C 
ATOM     18  C   LIG    1       31.707 -16.204  10.716  0.00  0.00    +0.002 C 
ATOM     19  C   LIG    1       30.501 -17.096  11.001  0.00  0.00    +0.015 C 
ATOM     20  C   LIG    1       30.624 -18.498  10.392  0.00  0.00    +0.084 C 
ENDBRANCH  14  15
ENDBRANCH  13  14
ENDBRANCH  12  13
ENDBRANCH  11  12
ENDBRANCH   1  11
TORSDOF 8
ENDMDL
MODEL 8
REMARK VINA RESULT:      -7.4      4.314      8.444
REMARK  Name = *****
REMARK                            x       y       z     vdW  Elec       q    Type
REMARK                         _______ _______ _______ _____ _____    ______ ____
ROOT
ATOM      1  C   LIG    1       24.180 -20.329   5.196  0.00  0.00    +0.160 C 
ENDROOT
BRANCH   1   2
ATOM      2  C   LIG    1       25.485 -20.693   5.913  0.00  0.00    +0.033 C 
BRANCH   2   3
ATOM      3  C   LIG    1       26.720 -20.124   5.206  0.00  0.00    +0.037 C 
BRANCH   3   8
ATOM      4 CL   LIG    1       31.637 -20.119   8.709  0.00  0.00    -0.084 Cl
ATOM      5  C   LIG    1       30.223 -20.113   7.728  0.00  0.00    +0.041 A 
ATOM      6  C   LIG    1       29.263 -21.102   7.884  0.00  0.00    +0.020 A 
ATOM      7  C   LIG    1       28.119 -21.105   7.081  0.00  0.00    +0.005 A 
ATOM      8  C   LIG    1       27.938 -20.108   6.104  0.00  0.00    -0.047 A 
ATOM      9  C   LIG    1       28.912 -19.116   5.963  0.00  0.00    +0.005 A 
ATOM     10  C   LIG    1       30.053 -19.107   6.771  0.00  0.00    +0.020 A 
ENDBRANCH   3   8
ENDBRANCH   2   3
ENDBRANCH   1   2
BRANCH   1  11
ATOM     11  O   LIG    1       23.200 -21.350   5.397  0.00  0.00    -0.380 OA
BRANCH  11  12
ATOM     12  C   LIG    1       23.226 -21.877   6.736  0.00  0.00    +0.161 C 
BRANCH  12  13
ATOM     13  C   LIG    1       22.514 -23.233   6.728  0.00  0.00    +0.043 C 
BRANCH  13  14
ATOM     14  C   LIG    1       23.438 -24.463   6.635  0.00  0.00    +0.086 C 
BRANCH  14  15
ATOM     15  N   LIG    1       24.798 -24.213   6.136  0.00  0.00    -0.302 NA
ATOM     16  C   LIG    1       25.883 -24.736   6.972  0.00  0.00    +0.084 C 
ATOM     17  C   LIG    1       26.070 -26.251   6.913  0.00  0.00    +0.015 C 
ATOM     18  C   LIG    1       26.196 -26.769   5.486  0.00  0.00    +0.002 C 
ATOM     19  C   LIG    1       25.177 -26.150   4.533  0.00  0.00    +0.015 C 
ATOM     20  C   LIG    1       24.988 -24.642   4.740  0.00  0.00    +0.084 C 
ENDBRANCH  14  15
ENDBRANCH  13  14
ENDBRANCH  12  13
ENDBRANCH  11  12
ENDBRANCH   1  11
TORSDOF 8
ENDMDL
MODEL 9
REMARK VINA RESULT:      -7.3      6.539     10.094
REMARK  Name = *****
REMARK                            x       y       z     vdW  Elec       q    Type
REMARK                         _______ _______ _______ _____ _____    ______ ____
ROOT
ATOM      1  C   LIG    1       25.120 -24.562   5.596  0.00  0.00    +0.160 C 
ENDROOT
BRANCH   1   2
ATOM      2  C   LIG    1       25.370 -23.832   6.919  0.00  0.00    +0.033 C 
BRANCH   2   3
ATOM      3  C   LIG    1       25.961 -22.432   6.714  0.00  0.00    +0.037 C 
BRANCH   3   8
ATOM      4 CL   LIG    1       22.053 -18.530   4.277  0.00  0.00    -0.084 Cl
ATOM      5  C   LIG    1       23.154 -19.660   4.965  0.00  0.00    +0.041 A 
ATOM      6  C   LIG    1       22.843 -20.296   6.157  0.00  0.00    +0.020 A 
ATOM      7  C   LIG    1       23.740 -21.207   6.723  0.00  0.00    +0.005 A 
ATOM      8  C   LIG    1       24.969 -21.476   6.091  0.00  0.00    -0.047 A 
ATOM      9  C   LIG    1       25.264 -20.830   4.887  0.00  0.00    +0.005 A 
ATOM     10  C   LIG    1       24.364 -19.926   4.316  0.00  0.00    +0.020 A 
ENDBRANCH   3   8
ENDBRANCH   2   3
ENDBRANCH   1   2
BRANCH   1  11
ATOM     11  O   LIG    1       26.065 -25.621   5.425  0.00  0.00    -0.380 OA
BRANCH  11  12
ATOM     12  C   LIG    1       25.884 -26.675   6.388  0.00  0.00    +0.161 C 
BRANCH  12  13
ATOM     13  C   LIG    1       24.522 -27.325   6.134  0.00  0.00    +0.043 C 
BRANCH  13  14
ATOM     14  C   LIG    1       24.569 -28.778   5.622  0.00  0.00    +0.086 C 
BRANCH  14  15
ATOM     15  N   LIG    1       23.941 -29.788   6.489  0.00  0.00    -0.302 NA
ATOM     16  C   LIG    1       24.196 -31.183   6.118  0.00  0.00    +0.084 C 
ATOM     17  C   LIG    1       25.602 -31.689   6.437  0.00  0.00    +0.015 C 
ATOM     18  C   LIG    1       25.998 -31.439   7.886  0.00  0.00    +0.002 C 
ATOM     19  C   LIG    1       25.628 -30.041   8.375  0.00  0.00    +0.015 C 
ATOM     20  C   LIG    1       24.236 -29.585   7.917  0.00  0.00    +0.084 C 
ENDBRANCH  14  15
ENDBRANCH  13  14
ENDBRANCH  12  13
ENDBRANCH  11  12
ENDBRANCH   1  11
TORSDOF 8
ENDMDL
