MODEL 1
REMARK VINA RESULT:      -6.4      0.000      0.000
REMARK  Name = *****
REMARK                            x       y       z     vdW  Elec       q    Type
REMARK                         _______ _______ _______ _____ _____    ______ ____
ROOT
ATOM      1  C   LIG    1       23.576 -20.713   5.965  0.00  0.00    -0.037 A 
ATOM      2  C   LIG    1       24.787 -20.754   5.260  0.00  0.00    +0.004 A 
ATOM      3  C   LIG    1       24.975 -19.950   4.136  0.00  0.00    +0.000 A 
ATOM      4  C   LIG    1       23.956 -19.102   3.705  0.00  0.00    +0.000 A 
ATOM      5  C   LIG    1       22.748 -19.056   4.398  0.00  0.00    +0.000 A 
ATOM      6  C   LIG    1       22.557 -19.857   5.524  0.00  0.00    +0.004 A 
ENDROOT
BRANCH   1   7
ATOM      7  C   LIG    1       23.350 -21.623   7.149  0.00  0.00    +0.155 C 
BRANCH   7   9
ATOM      8  O   LIG    1       24.361 -23.783   6.880  0.00  0.00    -0.251 OA
ATOM      9  C   LIG    1       23.336 -23.110   6.861  0.00  0.00    +0.309 C 
BRANCH   9  10
ATOM     10  O   LIG    1       22.141 -23.671   6.579  0.00  0.00    -0.480 OA
ATOM     11  H   LIG    1       21.577 -23.855   7.356  0.00  0.00    +0.295 HD
ENDBRANCH   9  10
ENDBRANCH   7   9
ENDBRANCH   1   7
TORSDOF 3
ENDMDL
MODEL 2
REMARK VINA RESULT:      -6.3      3.348      4.721
REMARK  Name = *****
REMARK                            x       y       z     vdW  Elec       q    Type
REMARK                         _______ _______ _______ _____ _____    ______ ____
ROOT
ATOM      1  C   LIG    1       24.823 -22.101   7.000  0.00  0.00    -0.037 A 
ATOM      2  C   LIG    1       23.431 -22.261   6.977  0.00  0.00    +0.004 A 
ATOM      3  C   LIG    1       22.871 -23.521   6.762  0.00  0.00    +0.000 A 
ATOM      4  C   LIG    1       23.695 -24.628   6.567  0.00  0.00    +0.000 A 
ATOM      5  C   LIG    1       25.080 -24.477   6.586  0.00  0.00    +0.000 A 
ATOM      6  C   LIG    1       25.644 -23.220   6.802  0.00  0.00    +0.004 A 
ENDROOT
BRANCH   1   7
ATOM      7  C   LIG    1       25.431 -20.729   7.177  0.00  0.00    +0.155 C 
BRANCH   7   9
ATOM      8  O   LIG    1       25.849 -20.651   9.539  0.00  0.00    -0.251 OA
ATOM      9  C   LIG    1       26.297 -20.530   8.404  0.00  0.00    +0.309 C 
BRANCH   9  10
ATOM     10  O   LIG    1       27.592 -20.212   8.199  0.00  0.00    -0.480 OA
ATOM     11  H   LIG    1       27.754 -19.282   7.947  0.00  0.00    +0.295 HD
ENDBRANCH   9  10
ENDBRANCH   7   9
ENDBRANCH   1   7
TORSDOF 3
ENDMDL
MODEL 3
REMARK VINA RESULT:      -6.3      3.297      4.443
REMARK  Name = *****
REMARK                            x       y       z     vdW  Elec       q    Type
REMARK                         _______ _______ _______ _____ _____    ______ ____
ROOT
ATOM      1  C   LIG    1       24.857 -22.044   6.907  0.00  0.00    -0.037 A 
ATOM      2  C   LIG    1       25.663 -23.180   6.746  0.00  0.00    +0.004 A 
ATOM      3  C   LIG    1       25.082 -24.438   6.591  0.00  0.00    +0.000 A 
ATOM      4  C   LIG    1       23.695 -24.574   6.598  0.00  0.00    +0.000 A 
ATOM      5  C   LIG    1       22.887 -23.451   6.759  0.00  0.00    +0.000 A 
ATOM      6  C   LIG    1       23.463 -22.190   6.913  0.00  0.00    +0.004 A 
ENDROOT
BRANCH   1   7
ATOM      7  C   LIG    1       25.484 -20.688   7.130  0.00  0.00    +0.155 C 
BRANCH   7   9
ATOM      8  O   LIG    1       25.824 -20.685   9.506  0.00  0.00    -0.251 OA
ATOM      9  C   LIG    1       26.309 -20.528   8.391  0.00  0.00    +0.309 C 
BRANCH   9  10
ATOM     10  O   LIG    1       27.610 -20.202   8.239  0.00  0.00    -0.480 OA
ATOM     11  H   LIG    1       27.910 -20.124   7.312  0.00  0.00    +0.295 HD
ENDBRANCH   9  10
ENDBRANCH   7   9
ENDBRANCH   1   7
TORSDOF 3
ENDMDL
MODEL 4
REMARK VINA RESULT:      -6.2      2.503      3.154
REMARK  Name = *****
REMARK                            x       y       z     vdW  Elec       q    Type
REMARK                         _______ _______ _______ _____ _____    ______ ____
ROOT
ATOM      1  C   LIG    1       24.642 -20.772   6.137  0.00  0.00    -0.037 A 
ATOM      2  C   LIG    1       23.297 -20.418   6.311  0.00  0.00    +0.004 A 
ATOM      3  C   LIG    1       22.625 -19.699   5.323  0.00  0.00    +0.000 A 
ATOM      4  C   LIG    1       23.289 -19.324   4.157  0.00  0.00    +0.000 A 
ATOM      5  C   LIG    1       24.627 -19.670   3.976  0.00  0.00    +0.000 A 
ATOM      6  C   LIG    1       25.303 -20.390   4.961  0.00  0.00    +0.004 A 
ENDROOT
BRANCH   1   7
ATOM      7  C   LIG    1       25.387 -21.502   7.229  0.00  0.00    +0.155 C 
BRANCH   7   9
ATOM      8  O   LIG    1       27.291 -20.126   7.720  0.00  0.00    -0.251 OA
ATOM      9  C   LIG    1       26.263 -20.654   8.129  0.00  0.00    +0.309 C 
BRANCH   9  10
ATOM     10  O   LIG    1       25.864 -20.501   9.409  0.00  0.00    -0.480 OA
ATOM     11  H   LIG    1       26.263 -21.128  10.044  0.00  0.00    +0.295 HD
ENDBRANCH   9  10
ENDBRANCH   7   9
ENDBRANCH   1   7
TORSDOF 3
ENDMDL
MODEL 5
REMARK VINA RESULT:      -6.2      2.434      2.841
REMARK  Name = *****
REMARK                            x       y       z     vdW  Elec       q    Type
REMARK                         _______ _______ _______ _____ _____    ______ ____
ROOT
ATOM      1  C   LIG    1       24.576 -21.026   6.546  0.00  0.00    -0.037 A 
ATOM      2  C   LIG    1       25.404 -20.717   5.458  0.00  0.00    +0.004 A 
ATOM      3  C   LIG    1       24.900 -20.003   4.371  0.00  0.00    +0.000 A 
ATOM      4  C   LIG    1       23.567 -19.596   4.358  0.00  0.00    +0.000 A 
ATOM      5  C   LIG    1       22.736 -19.900   5.435  0.00  0.00    +0.000 A 
ATOM      6  C   LIG    1       23.236 -20.613   6.525  0.00  0.00    +0.004 A 
ENDROOT
BRANCH   1   7
ATOM      7  C   LIG    1       25.104 -21.846   7.699  0.00  0.00    +0.155 C 
BRANCH   7   9
ATOM      8  O   LIG    1       25.893 -20.403   9.447  0.00  0.00    -0.251 OA
ATOM      9  C   LIG    1       26.172 -21.195   8.554  0.00  0.00    +0.309 C 
BRANCH   9  10
ATOM     10  O   LIG    1       27.455 -21.522   8.291  0.00  0.00    -0.480 OA
ATOM     11  H   LIG    1       27.655 -22.477   8.335  0.00  0.00    +0.295 HD
ENDBRANCH   9  10
ENDBRANCH   7   9
ENDBRANCH   1   7
TORSDOF 3
ENDMDL
MODEL 6
REMARK VINA RESULT:      -5.9      3.601      4.494
REMARK  Name = *****
REMARK                            x       y       z     vdW  Elec       q    Type
REMARK                         _______ _______ _______ _____ _____    ______ ____
ROOT
ATOM      1  C   LIG    1       24.470 -24.655   6.620  0.00  0.00    -0.037 A 
ATOM      2  C   LIG    1       25.631 -23.990   7.037  0.00  0.00    +0.004 A 
ATOM      3  C   LIG    1       25.567 -22.665   7.468  0.00  0.00    +0.000 A 
ATOM      4  C   LIG    1       24.346 -21.993   7.483  0.00  0.00    +0.000 A 
ATOM      5  C   LIG    1       23.187 -22.646   7.069  0.00  0.00    +0.000 A 
ATOM      6  C   LIG    1       23.246 -23.971   6.638  0.00  0.00    +0.004 A 
ENDROOT
BRANCH   1   7
ATOM      7  C   LIG    1       24.545 -26.072   6.101  0.00  0.00    +0.155 C 
BRANCH   7   9
ATOM      8  O   LIG    1       26.680 -26.632   5.158  0.00  0.00    -0.251 OA
ATOM      9  C   LIG    1       25.915 -26.720   6.112  0.00  0.00    +0.309 C 
BRANCH   9  10
ATOM     10  O   LIG    1       26.263 -27.404   7.222  0.00  0.00    -0.480 OA
ATOM     11  H   LIG    1       27.183 -27.735   7.232  0.00  0.00    +0.295 HD
ENDBRANCH   9  10
ENDBRANCH   7   9
ENDBRANCH   1   7
TORSDOF 3
ENDMDL
MODEL 7
REMARK VINA RESULT:      -5.9      3.610      4.725
REMARK  Name = *****
REMARK                            x       y       z     vdW  Elec       q    Type
REMARK                         _______ _______ _______ _____ _____    ______ ____
ROOT
ATOM      1  C   LIG    1       24.475 -24.648   6.581  0.00  0.00    -0.037 A 
ATOM      2  C   LIG    1       23.248 -23.972   6.617  0.00  0.00    +0.004 A 
ATOM      3  C   LIG    1       23.183 -22.655   7.074  0.00  0.00    +0.000 A 
ATOM      4  C   LIG    1       24.339 -22.006   7.501  0.00  0.00    +0.000 A 
ATOM      5  C   LIG    1       25.564 -22.671   7.471  0.00  0.00    +0.000 A 
ATOM      6  C   LIG    1       25.634 -23.987   7.014  0.00  0.00    +0.004 A 
ENDROOT
BRANCH   1   7
ATOM      7  C   LIG    1       24.540 -26.091   6.139  0.00  0.00    +0.155 C 
BRANCH   7   9
ATOM      8  O   LIG    1       26.661 -26.638   5.159  0.00  0.00    -0.251 OA
ATOM      9  C   LIG    1       25.914 -26.730   6.126  0.00  0.00    +0.309 C 
BRANCH   9  10
ATOM     10  O   LIG    1       26.287 -27.410   7.231  0.00  0.00    -0.480 OA
ATOM     11  H   LIG    1       25.590 -27.968   7.627  0.00  0.00    +0.295 HD
ENDBRANCH   9  10
ENDBRANCH   7   9
ENDBRANCH   1   7
TORSDOF 3
ENDMDL
MODEL 8
REMARK VINA RESULT:      -5.9      2.350      4.503
REMARK  Name = *****
REMARK                            x       y       z     vdW  Elec       q    Type
REMARK                         _______ _______ _______ _____ _____    ______ ____
ROOT
ATOM      1  C   LIG    1       23.921 -22.861   6.915  0.00  0.00    -0.037 A 
ATOM      2  C   LIG    1       23.244 -24.046   6.594  0.00  0.00    +0.004 A 
ATOM      3  C   LIG    1       23.951 -25.236   6.422  0.00  0.00    +0.000 A 
ATOM      4  C   LIG    1       25.336 -25.253   6.566  0.00  0.00    +0.000 A 
ATOM      5  C   LIG    1       26.018 -24.080   6.882  0.00  0.00    +0.000 A 
ATOM      6  C   LIG    1       25.315 -22.888   7.056  0.00  0.00    +0.004 A 
ENDROOT
BRANCH   1   7
ATOM      7  C   LIG    1       23.164 -21.560   7.046  0.00  0.00    +0.155 C 
BRANCH   7   9
ATOM      8  O   LIG    1       22.594 -19.601   5.783  0.00  0.00    -0.251 OA
ATOM      9  C   LIG    1       22.953 -20.773   5.769  0.00  0.00    +0.309 C 
BRANCH   9  10
ATOM     10  O   LIG    1       23.177 -21.418   4.605  0.00  0.00    -0.480 OA
ATOM     11  H   LIG    1       23.200 -20.846   3.813  0.00  0.00    +0.295 HD
ENDBRANCH   9  10
ENDBRANCH   7   9
ENDBRANCH   1   7
TORSDOF 3
ENDMDL
MODEL 9
REMARK VINA RESULT:      -5.9      1.910      2.906
REMARK  Name = *****
REMARK                            x       y       z     vdW  Elec       q    Type
REMARK                         _______ _______ _______ _____ _____    ______ ____
ROOT
ATOM      1  C   LIG    1       24.790 -21.169   7.081  0.00  0.00    -0.037 A 
ATOM      2  C   LIG    1       25.550 -21.034   8.251  0.00  0.00    +0.004 A 
ATOM      3  C   LIG    1       26.855 -20.544   8.191  0.00  0.00    +0.000 A 
ATOM      4  C   LIG    1       27.411 -20.189   6.964  0.00  0.00    +0.000 A 
ATOM      5  C   LIG    1       26.664 -20.322   5.795  0.00  0.00    +0.000 A 
ATOM      6  C   LIG    1       25.359 -20.810   5.851  0.00  0.00    +0.004 A 
ENDROOT
BRANCH   1   7
ATOM      7  C   LIG    1       23.397 -21.752   7.138  0.00  0.00    +0.155 C 
BRANCH   7   9
ATOM      8  O   LIG    1       24.255 -23.971   6.822  0.00  0.00    -0.251 OA
ATOM      9  C   LIG    1       23.276 -23.234   6.845  0.00  0.00    +0.309 C 
BRANCH   9  10
ATOM     10  O   LIG    1       22.037 -23.715   6.609  0.00  0.00    -0.480 OA
ATOM     11  H   LIG    1       21.679 -23.517   5.722  0.00  0.00    +0.295 HD
ENDBRANCH   9  10
ENDBRANCH   7   9
ENDBRANCH   1   7
TORSDOF 3
ENDMDL
