MODEL 1
REMARK VINA RESULT:      -8.3      0.000      0.000
REMARK  Name = *****
REMARK                            x       y       z     vdW  Elec       q    Type
REMARK                         _______ _______ _______ _____ _____    ______ ____
ROOT
ATOM      1  C   LIG    1       23.213 -18.514   3.798  0.00  0.00    +0.052 C 
ATOM      2  C   LIG    1       23.667 -19.686   4.595  0.00  0.00    -0.011 A 
ATOM      3  S   LIG    1       22.546 -20.858   5.114  0.00  0.00    -0.078 S 
ATOM      4  C   LIG    1       23.764 -21.815   5.858  0.00  0.00    +0.085 A 
ATOM      5  N   LIG    1       23.403 -22.995   6.415  0.00  0.00    -0.305 N 
ATOM      6  H   LIG    1       22.422 -23.232   6.312  0.00  0.00    +0.153 HD
ATOM      7  C   LIG    1       24.240 -24.135   6.401  0.00  0.00    +0.083 A 
ATOM      8  C   LIG    1       25.646 -24.094   6.470  0.00  0.00    +0.197 A 
ATOM      9  N   LIG    1       26.460 -22.977   6.707  0.00  0.00    -0.040 NA
ATOM     10  C   LIG    1       26.208 -21.737   6.437  0.00  0.00    +0.324 C 
ATOM     11  C   LIG    1       26.354 -25.309   6.414  0.00  0.00    +0.057 A 
ATOM     12  C   LIG    1       25.710 -26.542   6.300  0.00  0.00    +0.004 A 
ATOM     13  C   LIG    1       24.326 -26.583   6.260  0.00  0.00    +0.002 A 
ATOM     14  C   LIG    1       23.601 -25.393   6.315  0.00  0.00    +0.027 A 
ATOM     15  C   LIG    1       25.005 -21.217   5.793  0.00  0.00    +0.094 A 
ATOM     16  C   LIG    1       24.937 -19.995   5.023  0.00  0.00    +0.028 A 
ENDROOT
BRANCH  10  17
ATOM     17  N   LIG    1       27.128 -20.731   6.729  0.00  0.00    -0.217 N 
ATOM     18  C   LIG    1       28.104 -20.399   5.669  0.00  0.00    +0.241 C 
ATOM     19  C   LIG    1       28.856 -19.093   6.003  0.00  0.00    +0.127 C 
ATOM     20  N   LIG    1       29.513 -19.062   7.329  0.00  0.00    -0.298 NA
ATOM     21  C   LIG    1       30.708 -19.903   7.357  0.00  0.00    +0.105 C 
ATOM     22  C   LIG    1       28.533 -19.474   8.358  0.00  0.00    +0.127 C 
ATOM     23  C   LIG    1       27.773 -20.785   8.061  0.00  0.00    +0.241 C 
ENDBRANCH  10  17
TORSDOF 1
ENDMDL
MODEL 2
REMARK VINA RESULT:      -7.9      2.011      5.795
REMARK  Name = *****
REMARK                            x       y       z     vdW  Elec       q    Type
REMARK                         _______ _______ _______ _____ _____    ______ ____
ROOT
ATOM      1  C   LIG    1       24.143 -25.656   5.584  0.00  0.00    +0.052 C 
ATOM      2  C   LIG    1       24.864 -24.413   5.974  0.00  0.00    -0.011 A 
ATOM      3  S   LIG    1       25.889 -24.406   7.334  0.00  0.00    -0.078 S 
ATOM      4  C   LIG    1       26.334 -22.764   7.094  0.00  0.00    +0.085 A 
ATOM      5  N   LIG    1       27.255 -22.221   7.923  0.00  0.00    -0.305 N 
ATOM      6  H   LIG    1       27.637 -22.859   8.614  0.00  0.00    +0.153 HD
ATOM      7  C   LIG    1       28.202 -21.262   7.493  0.00  0.00    +0.083 A 
ATOM      8  C   LIG    1       27.961 -20.290   6.502  0.00  0.00    +0.197 A 
ATOM      9  N   LIG    1       26.742 -19.991   5.876  0.00  0.00    -0.040 NA
ATOM     10  C   LIG    1       25.736 -20.780   5.673  0.00  0.00    +0.324 C 
ATOM     11  C   LIG    1       29.008 -19.419   6.150  0.00  0.00    +0.057 A 
ATOM     12  C   LIG    1       30.264 -19.483   6.754  0.00  0.00    +0.004 A 
ATOM     13  C   LIG    1       30.493 -20.421   7.748  0.00  0.00    +0.002 A 
ATOM     14  C   LIG    1       29.471 -21.295   8.116  0.00  0.00    +0.027 A 
ATOM     15  C   LIG    1       25.652 -22.189   6.042  0.00  0.00    +0.094 A 
ATOM     16  C   LIG    1       24.826 -23.174   5.378  0.00  0.00    +0.028 A 
ENDROOT
BRANCH  10  17
ATOM     17  N   LIG    1       24.586 -20.333   5.024  0.00  0.00    -0.217 N 
ATOM     18  C   LIG    1       24.756 -19.214   4.072  0.00  0.00    +0.241 C 
ATOM     19  C   LIG    1       23.485 -19.020   3.218  0.00  0.00    +0.127 C 
ATOM     20  N   LIG    1       22.228 -18.855   3.981  0.00  0.00    -0.298 NA
ATOM     21  C   LIG    1       22.153 -17.539   4.614  0.00  0.00    +0.105 C 
ATOM     22  C   LIG    1       22.125 -19.944   4.977  0.00  0.00    +0.127 C 
ATOM     23  C   LIG    1       23.376 -20.155   5.858  0.00  0.00    +0.241 C 
ENDBRANCH  10  17
TORSDOF 1
ENDMDL
MODEL 3
REMARK VINA RESULT:      -7.7      1.419      5.680
REMARK  Name = *****
REMARK                            x       y       z     vdW  Elec       q    Type
REMARK                         _______ _______ _______ _____ _____    ______ ____
ROOT
ATOM      1  C   LIG    1       22.144 -19.567   4.596  0.00  0.00    +0.052 C 
ATOM      2  C   LIG    1       23.552 -19.940   4.903  0.00  0.00    -0.011 A 
ATOM      3  S   LIG    1       24.841 -19.107   4.166  0.00  0.00    -0.078 S 
ATOM      4  C   LIG    1       26.025 -20.022   5.010  0.00  0.00    +0.085 A 
ATOM      5  N   LIG    1       27.329 -19.705   4.832  0.00  0.00    -0.305 N 
ATOM      6  H   LIG    1       27.495 -18.910   4.223  0.00  0.00    +0.153 HD
ATOM      7  C   LIG    1       28.288 -19.804   5.866  0.00  0.00    +0.083 A 
ATOM      8  C   LIG    1       28.268 -20.778   6.884  0.00  0.00    +0.197 A 
ATOM      9  N   LIG    1       27.417 -21.888   6.989  0.00  0.00    -0.040 NA
ATOM     10  C   LIG    1       26.218 -22.019   6.522  0.00  0.00    +0.324 C 
ATOM     11  C   LIG    1       29.271 -20.737   7.870  0.00  0.00    +0.057 A 
ATOM     12  C   LIG    1       30.281 -19.774   7.864  0.00  0.00    +0.004 A 
ATOM     13  C   LIG    1       30.317 -18.833   6.848  0.00  0.00    +0.002 A 
ATOM     14  C   LIG    1       29.334 -18.853   5.858  0.00  0.00    +0.027 A 
ATOM     15  C   LIG    1       25.460 -21.013   5.784  0.00  0.00    +0.094 A 
ATOM     16  C   LIG    1       24.017 -20.929   5.739  0.00  0.00    +0.028 A 
ENDROOT
BRANCH  10  17
ATOM     17  N   LIG    1       25.490 -23.193   6.717  0.00  0.00    -0.217 N 
ATOM     18  C   LIG    1       26.239 -24.462   6.602  0.00  0.00    +0.241 C 
ATOM     19  C   LIG    1       25.397 -25.647   7.125  0.00  0.00    +0.127 C 
ATOM     20  N   LIG    1       24.056 -25.788   6.516  0.00  0.00    -0.298 NA
ATOM     21  C   LIG    1       24.138 -26.291   5.146  0.00  0.00    +0.105 C 
ATOM     22  C   LIG    1       23.363 -24.482   6.576  0.00  0.00    +0.127 C 
ATOM     23  C   LIG    1       24.172 -23.278   6.047  0.00  0.00    +0.241 C 
ENDBRANCH  10  17
TORSDOF 1
ENDMDL
MODEL 4
REMARK VINA RESULT:      -6.5      6.367      9.275
REMARK  Name = *****
REMARK                            x       y       z     vdW  Elec       q    Type
REMARK                         _______ _______ _______ _____ _____    ______ ____
ROOT
ATOM      1  C   LIG    1       24.484 -25.741   6.124  0.00  0.00    +0.052 C 
ATOM      2  C   LIG    1       24.722 -27.206   6.245  0.00  0.00    -0.011 A 
ATOM      3  S   LIG    1       24.431 -28.235   4.922  0.00  0.00    -0.078 S 
ATOM      4  C   LIG    1       24.950 -29.628   5.783  0.00  0.00    +0.085 A 
ATOM      5  N   LIG    1       24.988 -30.812   5.127  0.00  0.00    -0.305 N 
ATOM      6  H   LIG    1       24.729 -30.765   4.147  0.00  0.00    +0.153 HD
ATOM      7  C   LIG    1       25.972 -31.795   5.380  0.00  0.00    +0.083 A 
ATOM      8  C   LIG    1       26.553 -32.038   6.640  0.00  0.00    +0.197 A 
ATOM      9  N   LIG    1       26.185 -31.483   7.874  0.00  0.00    -0.040 NA
ATOM     10  C   LIG    1       25.625 -30.338   8.096  0.00  0.00    +0.324 C 
ATOM     11  C   LIG    1       27.547 -33.030   6.738  0.00  0.00    +0.057 A 
ATOM     12  C   LIG    1       27.964 -33.778   5.637  0.00  0.00    +0.004 A 
ATOM     13  C   LIG    1       27.373 -33.557   4.403  0.00  0.00    +0.002 A 
ATOM     14  C   LIG    1       26.384 -32.581   4.279  0.00  0.00    +0.027 A 
ATOM     15  C   LIG    1       25.265 -29.340   7.094  0.00  0.00    +0.094 A 
ATOM     16  C   LIG    1       25.160 -27.918   7.338  0.00  0.00    +0.028 A 
ENDROOT
BRANCH  10  17
ATOM     17  N   LIG    1       25.324 -29.919   9.392  0.00  0.00    -0.217 N 
ATOM     18  C   LIG    1       26.472 -29.653  10.285  0.00  0.00    +0.241 C 
ATOM     19  C   LIG    1       26.015 -28.925  11.567  0.00  0.00    +0.127 C 
ATOM     20  N   LIG    1       24.927 -29.590  12.319  0.00  0.00    -0.298 NA
ATOM     21  C   LIG    1       25.406 -30.781  13.018  0.00  0.00    +0.105 C 
ATOM     22  C   LIG    1       23.827 -29.914  11.384  0.00  0.00    +0.127 C 
ATOM     23  C   LIG    1       24.249 -30.655  10.096  0.00  0.00    +0.241 C 
ENDBRANCH  10  17
TORSDOF 1
ENDMDL
MODEL 5
REMARK VINA RESULT:      -6.0      5.860      9.168
REMARK  Name = *****
REMARK                            x       y       z     vdW  Elec       q    Type
REMARK                         _______ _______ _______ _____ _____    ______ ____
ROOT
ATOM      1  C   LIG    1       26.475 -32.754   3.297  0.00  0.00    +0.052 C 
ATOM      2  C   LIG    1       25.741 -32.231   4.482  0.00  0.00    -0.011 A 
ATOM      3  S   LIG    1       24.505 -33.153   5.203  0.00  0.00    -0.078 S 
ATOM      4  C   LIG    1       24.225 -31.978   6.424  0.00  0.00    +0.085 A 
ATOM      5  N   LIG    1       23.312 -32.255   7.384  0.00  0.00    -0.305 N 
ATOM      6  H   LIG    1       22.883 -33.172   7.314  0.00  0.00    +0.153 HD
ATOM      7  C   LIG    1       23.457 -31.828   8.724  0.00  0.00    +0.083 A 
ATOM      8  C   LIG    1       24.069 -30.620   9.116  0.00  0.00    +0.197 A 
ATOM      9  N   LIG    1       24.504 -29.574   8.290  0.00  0.00    -0.040 NA
ATOM     10  C   LIG    1       24.899 -29.643   7.059  0.00  0.00    +0.324 C 
ATOM     11  C   LIG    1       24.173 -30.338  10.491  0.00  0.00    +0.057 A 
ATOM     12  C   LIG    1       23.686 -31.207  11.468  0.00  0.00    +0.004 A 
ATOM     13  C   LIG    1       23.060 -32.381  11.082  0.00  0.00    +0.002 A 
ATOM     14  C   LIG    1       22.942 -32.683   9.725  0.00  0.00    +0.027 A 
ATOM     15  C   LIG    1       25.000 -30.852   6.248  0.00  0.00    +0.094 A 
ATOM     16  C   LIG    1       25.904 -31.030   5.132  0.00  0.00    +0.028 A 
ENDROOT
BRANCH  10  17
ATOM     17  N   LIG    1       25.312 -28.505   6.368  0.00  0.00    -0.217 N 
ATOM     18  C   LIG    1       25.924 -27.427   7.174  0.00  0.00    +0.241 C 
ATOM     19  C   LIG    1       26.595 -26.373   6.266  0.00  0.00    +0.127 C 
ATOM     20  N   LIG    1       25.725 -25.796   5.216  0.00  0.00    -0.298 NA
ATOM     21  C   LIG    1       24.747 -24.867   5.780  0.00  0.00    +0.105 C 
ATOM     22  C   LIG    1       25.068 -26.898   4.479  0.00  0.00    +0.127 C 
ATOM     23  C   LIG    1       24.375 -27.961   5.359  0.00  0.00    +0.241 C 
ENDBRANCH  10  17
TORSDOF 1
ENDMDL
MODEL 6
REMARK VINA RESULT:      -6.0      5.694      9.143
REMARK  Name = *****
REMARK                            x       y       z     vdW  Elec       q    Type
REMARK                         _______ _______ _______ _____ _____    ______ ____
ROOT
ATOM      1  C   LIG    1       22.944 -33.281   8.015  0.00  0.00    +0.052 C 
ATOM      2  C   LIG    1       23.765 -32.068   7.747  0.00  0.00    -0.011 A 
ATOM      3  S   LIG    1       24.186 -31.652   6.151  0.00  0.00    -0.078 S 
ATOM      4  C   LIG    1       25.013 -30.232   6.650  0.00  0.00    +0.085 A 
ATOM      5  N   LIG    1       25.531 -29.422   5.697  0.00  0.00    -0.305 N 
ATOM      6  H   LIG    1       25.351 -29.717   4.743  0.00  0.00    +0.153 HD
ATOM      7  C   LIG    1       25.572 -28.015   5.828  0.00  0.00    +0.083 A 
ATOM      8  C   LIG    1       25.749 -27.331   7.048  0.00  0.00    +0.197 A 
ATOM      9  N   LIG    1       26.057 -27.882   8.300  0.00  0.00    -0.040 NA
ATOM     10  C   LIG    1       25.779 -29.067   8.740  0.00  0.00    +0.324 C 
ATOM     11  C   LIG    1       25.737 -25.924   7.034  0.00  0.00    +0.057 A 
ATOM     12  C   LIG    1       25.564 -25.193   5.859  0.00  0.00    +0.004 A 
ATOM     13  C   LIG    1       25.417 -25.865   4.656  0.00  0.00    +0.002 A 
ATOM     14  C   LIG    1       25.427 -27.259   4.642  0.00  0.00    +0.027 A 
ATOM     15  C   LIG    1       25.049 -30.107   8.022  0.00  0.00    +0.094 A 
ATOM     16  C   LIG    1       24.287 -31.167   8.646  0.00  0.00    +0.028 A 
ENDROOT
BRANCH  10  17
ATOM     17  N   LIG    1       26.149 -29.468  10.023  0.00  0.00    -0.217 N 
ATOM     18  C   LIG    1       25.116 -29.359  11.074  0.00  0.00    +0.241 C 
ATOM     19  C   LIG    1       25.554 -30.101  12.355  0.00  0.00    +0.127 C 
ATOM     20  N   LIG    1       26.875 -29.706  12.895  0.00  0.00    -0.298 NA
ATOM     21  C   LIG    1       26.826 -28.389  13.526  0.00  0.00    +0.105 C 
ATOM     22  C   LIG    1       27.871 -29.750  11.802  0.00  0.00    +0.127 C 
ATOM     23  C   LIG    1       27.469 -29.005  10.510  0.00  0.00    +0.241 C 
ENDBRANCH  10  17
TORSDOF 1
ENDMDL
MODEL 7
REMARK VINA RESULT:      -5.5      2.348      6.001
REMARK  Name = *****
REMARK                            x       y       z     vdW  Elec       q    Type
REMARK                         _______ _______ _______ _____ _____    ______ ____
ROOT
ATOM      1  C   LIG    1       29.453 -21.548   8.188  0.00  0.00    +0.052 C 
ATOM      2  C   LIG    1       28.034 -21.589   7.739  0.00  0.00    -0.011 A 
ATOM      3  S   LIG    1       26.931 -20.406   8.268  0.00  0.00    -0.078 S 
ATOM      4  C   LIG    1       25.644 -21.073   7.346  0.00  0.00    +0.085 A 
ATOM      5  N   LIG    1       24.452 -20.431   7.350  0.00  0.00    -0.305 N 
ATOM      6  H   LIG    1       24.432 -19.570   7.886  0.00  0.00    +0.153 HD
ATOM      7  C   LIG    1       23.607 -20.381   6.217  0.00  0.00    +0.083 A 
ATOM      8  C   LIG    1       23.482 -21.415   5.268  0.00  0.00    +0.197 A 
ATOM      9  N   LIG    1       24.030 -22.704   5.329  0.00  0.00    -0.040 NA
ATOM     10  C   LIG    1       25.104 -23.085   5.942  0.00  0.00    +0.324 C 
ATOM     11  C   LIG    1       22.624 -21.215   4.170  0.00  0.00    +0.057 A 
ATOM     12  C   LIG    1       21.896 -20.037   3.999  0.00  0.00    +0.004 A 
ATOM     13  C   LIG    1       21.998 -19.032   4.947  0.00  0.00    +0.002 A 
ATOM     14  C   LIG    1       22.840 -19.206   6.045  0.00  0.00    +0.027 A 
ATOM     15  C   LIG    1       26.014 -22.235   6.703  0.00  0.00    +0.094 A 
ATOM     16  C   LIG    1       27.420 -22.503   6.914  0.00  0.00    +0.028 A 
ENDROOT
BRANCH  10  17
ATOM     17  N   LIG    1       25.527 -24.413   5.904  0.00  0.00    -0.217 N 
ATOM     18  C   LIG    1       25.075 -25.218   4.749  0.00  0.00    +0.241 C 
ATOM     19  C   LIG    1       25.843 -26.555   4.676  0.00  0.00    +0.127 C 
ATOM     20  N   LIG    1       25.812 -27.371   5.911  0.00  0.00    -0.298 NA
ATOM     21  C   LIG    1       24.504 -27.991   6.112  0.00  0.00    +0.105 C 
ATOM     22  C   LIG    1       26.193 -26.518   7.058  0.00  0.00    +0.127 C 
ATOM     23  C   LIG    1       25.433 -25.178   7.168  0.00  0.00    +0.241 C 
ENDBRANCH  10  17
TORSDOF 1
ENDMDL
MODEL 8
REMARK VINA RESULT:      -5.5      9.773     12.580
REMARK  Name = *****
REMARK                            x       y       z     vdW  Elec       q    Type
REMARK                         _______ _______ _______ _____ _____    ______ ____
ROOT
ATOM      1  C   LIG    1       24.735 -32.234   7.731  0.00  0.00    +0.052 C 
ATOM      2  C   LIG    1       24.170 -31.581   8.943  0.00  0.00    -0.011 A 
ATOM      3  S   LIG    1       25.201 -30.861  10.091  0.00  0.00    -0.078 S 
ATOM      4  C   LIG    1       23.887 -30.336  11.066  0.00  0.00    +0.085 A 
ATOM      5  N   LIG    1       24.159 -29.595  12.165  0.00  0.00    -0.305 N 
ATOM      6  H   LIG    1       25.142 -29.381  12.302  0.00  0.00    +0.153 HD
ATOM      7  C   LIG    1       23.312 -28.558  12.617  0.00  0.00    +0.083 A 
ATOM      8  C   LIG    1       21.907 -28.565  12.500  0.00  0.00    +0.197 A 
ATOM      9  N   LIG    1       21.091 -29.620  12.067  0.00  0.00    -0.040 NA
ATOM     10  C   LIG    1       21.394 -30.580  11.255  0.00  0.00    +0.324 C 
ATOM     11  C   LIG    1       21.191 -27.447  12.966  0.00  0.00    +0.057 A 
ATOM     12  C   LIG    1       21.823 -26.346  13.543  0.00  0.00    +0.004 A 
ATOM     13  C   LIG    1       23.202 -26.350  13.683  0.00  0.00    +0.002 A 
ATOM     14  C   LIG    1       23.935 -27.447  13.230  0.00  0.00    +0.027 A 
ATOM     15  C   LIG    1       22.673 -30.772  10.579  0.00  0.00    +0.094 A 
ATOM     16  C   LIG    1       22.852 -31.466   9.322  0.00  0.00    +0.028 A 
ENDROOT
BRANCH  10  17
ATOM     17  N   LIG    1       20.462 -31.559  10.912  0.00  0.00    -0.217 N 
ATOM     18  C   LIG    1       19.153 -31.083  10.417  0.00  0.00    +0.241 C 
ATOM     19  C   LIG    1       18.341 -32.244   9.804  0.00  0.00    +0.127 C 
ATOM     20  N   LIG    1       18.156 -33.421  10.683  0.00  0.00    -0.298 NA
ATOM     21  C   LIG    1       17.196 -33.148  11.751  0.00  0.00    +0.105 C 
ATOM     22  C   LIG    1       19.472 -33.825  11.224  0.00  0.00    +0.127 C 
ATOM     23  C   LIG    1       20.305 -32.689  11.857  0.00  0.00    +0.241 C 
ENDBRANCH  10  17
TORSDOF 1
ENDMDL
MODEL 9
REMARK VINA RESULT:      -5.4      9.495     12.395
REMARK  Name = *****
REMARK                            x       y       z     vdW  Elec       q    Type
REMARK                         _______ _______ _______ _____ _____    ______ ____
ROOT
ATOM      1  C   LIG    1       16.925 -28.351  15.436  0.00  0.00    +0.052 C 
ATOM      2  C   LIG    1       18.207 -28.223  14.689  0.00  0.00    -0.011 A 
ATOM      3  S   LIG    1       18.946 -26.701  14.504  0.00  0.00    -0.078 S 
ATOM      4  C   LIG    1       20.282 -27.360  13.648  0.00  0.00    +0.085 A 
ATOM      5  N   LIG    1       21.286 -26.528  13.286  0.00  0.00    -0.305 N 
ATOM      6  H   LIG    1       21.174 -25.567  13.590  0.00  0.00    +0.153 HD
ATOM      7  C   LIG    1       22.641 -26.932  13.260  0.00  0.00    +0.083 A 
ATOM      8  C   LIG    1       23.082 -28.229  12.930  0.00  0.00    +0.197 A 
ATOM      9  N   LIG    1       22.315 -29.294  12.438  0.00  0.00    -0.040 NA
ATOM     10  C   LIG    1       21.054 -29.521  12.625  0.00  0.00    +0.324 C 
ATOM     11  C   LIG    1       24.463 -28.498  12.975  0.00  0.00    +0.057 A 
ATOM     12  C   LIG    1       25.399 -27.526  13.327  0.00  0.00    +0.004 A 
ATOM     13  C   LIG    1       24.968 -26.243  13.625  0.00  0.00    +0.002 A 
ATOM     14  C   LIG    1       23.605 -25.950  13.585  0.00  0.00    +0.027 A 
ATOM     15  C   LIG    1       20.138 -28.713  13.424  0.00  0.00    +0.094 A 
ATOM     16  C   LIG    1       18.941 -29.207  14.068  0.00  0.00    +0.028 A 
ENDROOT
BRANCH  10  17
ATOM     17  N   LIG    1       20.430 -30.638  12.071  0.00  0.00    -0.217 N 
ATOM     18  C   LIG    1       21.009 -31.955  12.409  0.00  0.00    +0.241 C 
ATOM     19  C   LIG    1       20.063 -33.098  11.982  0.00  0.00    +0.127 C 
ATOM     20  N   LIG    1       19.642 -33.075  10.563  0.00  0.00    -0.298 NA
ATOM     21  C   LIG    1       20.729 -33.476   9.673  0.00  0.00    +0.105 C 
ATOM     22  C   LIG    1       19.141 -31.722  10.235  0.00  0.00    +0.127 C 
ATOM     23  C   LIG    1       20.071 -30.556  10.636  0.00  0.00    +0.241 C 
ENDBRANCH  10  17
TORSDOF 1
ENDMDL
