MODEL 1
REMARK VINA RESULT:      -5.9      0.000      0.000
REMARK  Name = *****
REMARK                            x       y       z     vdW  Elec       q    Type
REMARK                         _______ _______ _______ _____ _____    ______ ____
ROOT
ATOM      1  S   LIG    1       28.301 -21.655   7.493  0.00  0.00    -0.027 S 
ENDROOT
BRANCH   1   2
ATOM      2  C   LIG    1       29.880 -20.760   8.144  0.00  0.00    +0.120 C 
ATOM      3  S   LIG    1       30.969 -21.755   9.006  0.00  0.00    -0.027 S 
BRANCH   2   4
ATOM      4  N   LIG    1       30.154 -19.376   7.757  0.00  0.00    -0.319 N 
BRANCH   4   6
ATOM      5  C   LIG    1       29.345 -18.421   5.648  0.00  0.00    +0.024 C 
ATOM      6  C   LIG    1       30.475 -19.128   6.364  0.00  0.00    +0.103 C 
ENDBRANCH   4   6
BRANCH   4   7
ATOM      7  C   LIG    1       30.286 -18.129   8.737  0.00  0.00    +0.103 C 
ATOM      8  C   LIG    1       31.741 -17.574   9.092  0.00  0.00    +0.024 C 
ENDBRANCH   4   7
ENDBRANCH   2   4
ENDBRANCH   1   2
BRANCH   1   9
ATOM      9  S   LIG    1       26.436 -20.458   7.893  0.00  0.00    -0.027 S 
BRANCH   9  10
ATOM     10  C   LIG    1       25.318 -20.573   6.386  0.00  0.00    +0.120 C 
ATOM     11  S   LIG    1       26.057 -20.228   4.902  0.00  0.00    -0.027 S 
BRANCH  10  12
ATOM     12  N   LIG    1       23.983 -21.108   6.495  0.00  0.00    -0.319 N 
BRANCH  12  13
ATOM     13  C   LIG    1       23.513 -22.064   7.487  0.00  0.00    +0.103 C 
ATOM     14  C   LIG    1       22.908 -23.232   6.716  0.00  0.00    +0.024 C 
ENDBRANCH  12  13
BRANCH  12  15
ATOM     15  C   LIG    1       22.954 -20.983   5.480  0.00  0.00    +0.103 C 
ATOM     16  C   LIG    1       22.569 -19.683   5.338  0.00  0.00    +0.024 C 
ENDBRANCH  12  15
ENDBRANCH  10  12
ENDBRANCH   9  10
ENDBRANCH   1   9
TORSDOF 9
ENDMDL
MODEL 2
REMARK VINA RESULT:      -5.9      0.281      7.085
REMARK  Name = *****
REMARK                            x       y       z     vdW  Elec       q    Type
REMARK                         _______ _______ _______ _____ _____    ______ ____
ROOT
ATOM      1  S   LIG    1       26.496 -20.557   7.754  0.00  0.00    -0.027 S 
ENDROOT
BRANCH   1   2
ATOM      2  C   LIG    1       25.301 -20.548   6.241  0.00  0.00    +0.120 C 
ATOM      3  S   LIG    1       26.031 -20.153   4.748  0.00  0.00    -0.027 S 
BRANCH   2   4
ATOM      4  N   LIG    1       23.921 -21.014   6.389  0.00  0.00    -0.319 N 
BRANCH   4   6
ATOM      5  C   LIG    1       23.053 -23.262   6.843  0.00  0.00    +0.024 C 
ATOM      6  C   LIG    1       23.662 -22.002   7.419  0.00  0.00    +0.103 C 
ENDBRANCH   4   6
BRANCH   4   7
ATOM      7  C   LIG    1       22.697 -20.661   5.435  0.00  0.00    +0.103 C 
ATOM      8  C   LIG    1       22.451 -19.138   5.022  0.00  0.00    +0.024 C 
ENDBRANCH   4   7
ENDBRANCH   2   4
ENDBRANCH   1   2
BRANCH   1   9
ATOM      9  S   LIG    1       28.366 -21.739   7.335  0.00  0.00    -0.027 S 
BRANCH   9  10
ATOM     10  C   LIG    1       29.830 -20.825   8.082  0.00  0.00    +0.120 C 
ATOM     11  S   LIG    1       30.839 -21.753   9.076  0.00  0.00    -0.027 S 
BRANCH  10  12
ATOM     12  N   LIG    1       30.154 -19.483   7.666  0.00  0.00    -0.319 N 
BRANCH  12  13
ATOM     13  C   LIG    1       30.023 -18.274   8.466  0.00  0.00    +0.103 C 
ATOM     14  C   LIG    1       31.438 -17.835   8.829  0.00  0.00    +0.024 C 
ENDBRANCH  12  13
BRANCH  12  15
ATOM     15  C   LIG    1       30.417 -19.080   6.297  0.00  0.00    +0.103 C 
ATOM     16  C   LIG    1       29.322 -18.476   5.751  0.00  0.00    +0.024 C 
ENDBRANCH  12  15
ENDBRANCH  10  12
ENDBRANCH   9  10
ENDBRANCH   1   9
TORSDOF 9
ENDMDL
MODEL 3
REMARK VINA RESULT:      -5.8      0.682      7.130
REMARK  Name = *****
REMARK                            x       y       z     vdW  Elec       q    Type
REMARK                         _______ _______ _______ _____ _____    ______ ____
ROOT
ATOM      1  S   LIG    1       26.702 -20.480   7.539  0.00  0.00    -0.027 S 
ENDROOT
BRANCH   1   2
ATOM      2  C   LIG    1       25.530 -20.708   6.025  0.00  0.00    +0.120 C 
ATOM      3  S   LIG    1       26.001 -19.866   4.616  0.00  0.00    -0.027 S 
BRANCH   2   4
ATOM      4  N   LIG    1       24.429 -21.671   6.084  0.00  0.00    -0.319 N 
BRANCH   4   6
ATOM      5  C   LIG    1       22.374 -20.740   5.125  0.00  0.00    +0.024 C 
ATOM      6  C   LIG    1       23.109 -21.150   6.382  0.00  0.00    +0.103 C 
ENDBRANCH   4   6
BRANCH   4   7
ATOM      7  C   LIG    1       24.554 -23.255   6.006  0.00  0.00    +0.103 C 
ATOM      8  C   LIG    1       23.424 -24.156   6.687  0.00  0.00    +0.024 C 
ENDBRANCH   4   7
ENDBRANCH   2   4
ENDBRANCH   1   2
BRANCH   1   9
ATOM      9  S   LIG    1       28.549 -21.757   7.367  0.00  0.00    -0.027 S 
BRANCH   9  10
ATOM     10  C   LIG    1       29.994 -20.824   8.125  0.00  0.00    +0.120 C 
ATOM     11  S   LIG    1       31.006 -21.738   9.129  0.00  0.00    -0.027 S 
BRANCH  10  12
ATOM     12  N   LIG    1       30.304 -19.478   7.710  0.00  0.00    -0.319 N 
BRANCH  12  13
ATOM     13  C   LIG    1       30.181 -18.274   8.518  0.00  0.00    +0.103 C 
ATOM     14  C   LIG    1       31.601 -17.811   8.831  0.00  0.00    +0.024 C 
ENDBRANCH  12  13
BRANCH  12  15
ATOM     15  C   LIG    1       30.541 -19.068   6.339  0.00  0.00    +0.103 C 
ATOM     16  C   LIG    1       29.430 -18.475   5.812  0.00  0.00    +0.024 C 
ENDBRANCH  12  15
ENDBRANCH  10  12
ENDBRANCH   9  10
ENDBRANCH   1   9
TORSDOF 9
ENDMDL
MODEL 4
REMARK VINA RESULT:      -5.8      1.813      2.977
REMARK  Name = *****
REMARK                            x       y       z     vdW  Elec       q    Type
REMARK                         _______ _______ _______ _____ _____    ______ ____
ROOT
ATOM      1  S   LIG    1       28.246 -21.144   6.974  0.00  0.00    -0.027 S 
ENDROOT
BRANCH   1   2
ATOM      2  C   LIG    1       29.446 -19.639   7.097  0.00  0.00    +0.120 C 
ATOM      3  S   LIG    1       29.417 -18.583   5.755  0.00  0.00    -0.027 S 
BRANCH   2   4
ATOM      4  N   LIG    1       30.178 -19.380   8.338  0.00  0.00    -0.319 N 
BRANCH   4   6
ATOM      5  C   LIG    1       30.817 -17.933  10.211  0.00  0.00    +0.024 C 
ATOM      6  C   LIG    1       29.913 -18.124   9.013  0.00  0.00    +0.103 C 
ENDBRANCH   4   6
BRANCH   4   7
ATOM      7  C   LIG    1       31.350 -20.268   8.947  0.00  0.00    +0.103 C 
ATOM      8  C   LIG    1       31.097 -21.828   9.180  0.00  0.00    +0.024 C 
ENDBRANCH   4   7
ENDBRANCH   2   4
ENDBRANCH   1   2
BRANCH   1   9
ATOM      9  S   LIG    1       26.123 -20.561   7.443  0.00  0.00    -0.027 S 
BRANCH   9  10
ATOM     10  C   LIG    1       24.998 -21.291   6.125  0.00  0.00    +0.120 C 
ATOM     11  S   LIG    1       24.940 -22.983   6.071  0.00  0.00    -0.027 S 
BRANCH  10  12
ATOM     12  N   LIG    1       24.113 -20.448   5.360  0.00  0.00    -0.319 N 
BRANCH  12  13
ATOM     13  C   LIG    1       22.748 -20.084   5.710  0.00  0.00    +0.103 C 
ATOM     14  C   LIG    1       22.365 -18.910   4.813  0.00  0.00    +0.024 C 
ENDBRANCH  12  13
BRANCH  12  15
ATOM     15  C   LIG    1       24.342 -20.035   3.988  0.00  0.00    +0.103 C 
ATOM     16  C   LIG    1       25.576 -19.469   3.852  0.00  0.00    +0.024 C 
ENDBRANCH  12  15
ENDBRANCH  10  12
ENDBRANCH   9  10
ENDBRANCH   1   9
TORSDOF 9
ENDMDL
MODEL 5
REMARK VINA RESULT:      -5.8      1.307      1.681
REMARK  Name = *****
REMARK                            x       y       z     vdW  Elec       q    Type
REMARK                         _______ _______ _______ _____ _____    ______ ____
ROOT
ATOM      1  S   LIG    1       28.499 -21.646   7.327  0.00  0.00    -0.027 S 
ENDROOT
BRANCH   1   2
ATOM      2  C   LIG    1       29.975 -20.663   8.085  0.00  0.00    +0.120 C 
ATOM      3  S   LIG    1       31.052 -21.594   9.028  0.00  0.00    -0.027 S 
BRANCH   2   4
ATOM      4  N   LIG    1       30.198 -19.265   7.712  0.00  0.00    -0.319 N 
BRANCH   4   6
ATOM      5  C   LIG    1       29.281 -18.378   5.618  0.00  0.00    +0.024 C 
ATOM      6  C   LIG    1       30.477 -18.989   6.315  0.00  0.00    +0.103 C 
ENDBRANCH   4   6
BRANCH   4   7
ATOM      7  C   LIG    1       30.317 -18.029   8.707  0.00  0.00    +0.103 C 
ATOM      8  C   LIG    1       31.769 -17.512   9.128  0.00  0.00    +0.024 C 
ENDBRANCH   4   7
ENDBRANCH   2   4
ENDBRANCH   1   2
BRANCH   1   9
ATOM      9  S   LIG    1       26.563 -20.509   7.496  0.00  0.00    -0.027 S 
BRANCH   9  10
ATOM     10  C   LIG    1       25.266 -21.379   6.449  0.00  0.00    +0.120 C 
ATOM     11  S   LIG    1       24.983 -23.003   6.839  0.00  0.00    -0.027 S 
BRANCH  10  12
ATOM     12  N   LIG    1       24.450 -20.640   5.518  0.00  0.00    -0.319 N 
BRANCH  12  13
ATOM     13  C   LIG    1       23.126 -20.093   5.774  0.00  0.00    +0.103 C 
ATOM     14  C   LIG    1       22.137 -20.963   5.005  0.00  0.00    +0.024 C 
ENDBRANCH  12  13
BRANCH  12  15
ATOM     15  C   LIG    1       24.699 -20.543   4.092  0.00  0.00    +0.103 C 
ATOM     16  C   LIG    1       25.178 -19.307   3.767  0.00  0.00    +0.024 C 
ENDBRANCH  12  15
ENDBRANCH  10  12
ENDBRANCH   9  10
ENDBRANCH   1   9
TORSDOF 9
ENDMDL
MODEL 6
REMARK VINA RESULT:      -5.7      1.910      2.940
REMARK  Name = *****
REMARK                            x       y       z     vdW  Elec       q    Type
REMARK                         _______ _______ _______ _____ _____    ______ ____
ROOT
ATOM      1  S   LIG    1       28.116 -21.357   7.263  0.00  0.00    -0.027 S 
ENDROOT
BRANCH   1   2
ATOM      2  C   LIG    1       29.310 -19.848   7.135  0.00  0.00    +0.120 C 
ATOM      3  S   LIG    1       29.106 -18.885   5.739  0.00  0.00    -0.027 S 
BRANCH   2   4
ATOM      4  N   LIG    1       30.189 -19.506   8.254  0.00  0.00    -0.319 N 
BRANCH   4   6
ATOM      5  C   LIG    1       31.370 -17.613   9.270  0.00  0.00    +0.024 C 
ATOM      6  C   LIG    1       30.039 -18.186   8.836  0.00  0.00    +0.103 C 
ENDBRANCH   4   6
BRANCH   4   7
ATOM      7  C   LIG    1       31.401 -20.379   8.805  0.00  0.00    +0.103 C 
ATOM      8  C   LIG    1       31.144 -21.910   9.182  0.00  0.00    +0.024 C 
ENDBRANCH   4   7
ENDBRANCH   2   4
ENDBRANCH   1   2
BRANCH   1   9
ATOM      9  S   LIG    1       25.957 -20.722   7.197  0.00  0.00    -0.027 S 
BRANCH   9  10
ATOM     10  C   LIG    1       25.002 -21.963   6.156  0.00  0.00    +0.120 C 
ATOM     11  S   LIG    1       24.557 -21.430   4.611  0.00  0.00    -0.027 S 
BRANCH  10  12
ATOM     12  N   LIG    1       24.843 -23.328   6.593  0.00  0.00    -0.319 N 
BRANCH  12  13
ATOM     13  C   LIG    1       25.911 -24.286   6.840  0.00  0.00    +0.103 C 
ATOM     14  C   LIG    1       25.711 -25.428   5.848  0.00  0.00    +0.024 C 
ENDBRANCH  12  13
BRANCH  12  15
ATOM     15  C   LIG    1       23.587 -24.053   6.609  0.00  0.00    +0.103 C 
ATOM     16  C   LIG    1       22.546 -23.212   6.873  0.00  0.00    +0.024 C 
ENDBRANCH  12  15
ENDBRANCH  10  12
ENDBRANCH   9  10
ENDBRANCH   1   9
TORSDOF 9
ENDMDL
MODEL 7
REMARK VINA RESULT:      -5.7      0.871      7.025
REMARK  Name = *****
REMARK                            x       y       z     vdW  Elec       q    Type
REMARK                         _______ _______ _______ _____ _____    ______ ____
ROOT
ATOM      1  S   LIG    1       26.758 -20.423   7.815  0.00  0.00    -0.027 S 
ENDROOT
BRANCH   1   2
ATOM      2  C   LIG    1       25.526 -20.698   6.357  0.00  0.00    +0.120 C 
ATOM      3  S   LIG    1       26.071 -20.138   4.838  0.00  0.00    -0.027 S 
BRANCH   2   4
ATOM      4  N   LIG    1       24.305 -21.479   6.562  0.00  0.00    -0.319 N 
BRANCH   4   6
ATOM      5  C   LIG    1       22.633 -20.067   5.455  0.00  0.00    +0.024 C 
ATOM      6  C   LIG    1       23.068 -20.742   6.738  0.00  0.00    +0.103 C 
ENDBRANCH   4   6
BRANCH   4   7
ATOM      7  C   LIG    1       24.214 -23.055   6.763  0.00  0.00    +0.103 C 
ATOM      8  C   LIG    1       25.554 -23.922   6.697  0.00  0.00    +0.024 C 
ENDBRANCH   4   7
ENDBRANCH   2   4
ENDBRANCH   1   2
BRANCH   1   9
ATOM      9  S   LIG    1       28.564 -21.758   7.646  0.00  0.00    -0.027 S 
BRANCH   9  10
ATOM     10  C   LIG    1       30.069 -20.806   8.249  0.00  0.00    +0.120 C 
ATOM     11  S   LIG    1       31.193 -21.708   9.139  0.00  0.00    -0.027 S 
BRANCH  10  12
ATOM     12  N   LIG    1       30.316 -19.456   7.807  0.00  0.00    -0.319 N 
BRANCH  12  13
ATOM     13  C   LIG    1       30.715 -19.044   6.469  0.00  0.00    +0.103 C 
ATOM     14  C   LIG    1       29.458 -18.519   5.781  0.00  0.00    +0.024 C 
ENDBRANCH  12  13
BRANCH  12  15
ATOM     15  C   LIG    1       30.461 -18.310   8.685  0.00  0.00    +0.103 C 
ATOM     16  C   LIG    1       31.766 -17.919   8.758  0.00  0.00    +0.024 C 
ENDBRANCH  12  15
ENDBRANCH  10  12
ENDBRANCH   9  10
ENDBRANCH   1   9
TORSDOF 9
ENDMDL
MODEL 8
REMARK VINA RESULT:      -5.7      1.983      6.843
REMARK  Name = *****
REMARK                            x       y       z     vdW  Elec       q    Type
REMARK                         _______ _______ _______ _____ _____    ______ ____
ROOT
ATOM      1  S   LIG    1       26.174 -22.595   7.325  0.00  0.00    -0.027 S 
ENDROOT
BRANCH   1   2
ATOM      2  C   LIG    1       24.499 -22.583   6.369  0.00  0.00    +0.120 C 
ATOM      3  S   LIG    1       23.513 -23.953   6.628  0.00  0.00    -0.027 S 
BRANCH   2   4
ATOM      4  N   LIG    1       24.084 -21.393   5.626  0.00  0.00    -0.319 N 
BRANCH   4   6
ATOM      5  C   LIG    1       22.402 -19.638   5.304  0.00  0.00    +0.024 C 
ATOM      6  C   LIG    1       23.179 -20.477   6.294  0.00  0.00    +0.103 C 
ENDBRANCH   4   6
BRANCH   4   7
ATOM      7  C   LIG    1       24.400 -21.073   4.099  0.00  0.00    +0.103 C 
ATOM      8  C   LIG    1       25.385 -19.864   3.750  0.00  0.00    +0.024 C 
ENDBRANCH   4   7
ENDBRANCH   2   4
ENDBRANCH   1   2
BRANCH   1   9
ATOM      9  S   LIG    1       26.818 -20.517   7.908  0.00  0.00    -0.027 S 
BRANCH   9  10
ATOM     10  C   LIG    1       28.540 -20.210   7.216  0.00  0.00    +0.120 C 
ATOM     11  S   LIG    1       28.594 -19.439   5.710  0.00  0.00    -0.027 S 
BRANCH  10  12
ATOM     12  N   LIG    1       29.713 -20.449   8.021  0.00  0.00    -0.319 N 
BRANCH  12  13
ATOM     13  C   LIG    1       30.788 -19.504   8.283  0.00  0.00    +0.103 C 
ATOM     14  C   LIG    1       30.143 -18.271   8.909  0.00  0.00    +0.024 C 
ENDBRANCH  12  13
BRANCH  12  15
ATOM     15  C   LIG    1       30.146 -21.752   8.488  0.00  0.00    +0.103 C 
ATOM     16  C   LIG    1       31.313 -21.653   9.187  0.00  0.00    +0.024 C 
ENDBRANCH  12  15
ENDBRANCH  10  12
ENDBRANCH   9  10
ENDBRANCH   1   9
TORSDOF 9
ENDMDL
MODEL 9
REMARK VINA RESULT:      -5.6      0.824      1.888
REMARK  Name = *****
REMARK                            x       y       z     vdW  Elec       q    Type
REMARK                         _______ _______ _______ _____ _____    ______ ____
ROOT
ATOM      1  S   LIG    1       28.652 -21.739   7.437  0.00  0.00    -0.027 S 
ENDROOT
BRANCH   1   2
ATOM      2  C   LIG    1       30.236 -20.935   8.187  0.00  0.00    +0.120 C 
ATOM      3  S   LIG    1       31.087 -21.918   9.294  0.00  0.00    -0.027 S 
BRANCH   2   4
ATOM      4  N   LIG    1       30.716 -19.646   7.686  0.00  0.00    -0.319 N 
BRANCH   4   6
ATOM      5  C   LIG    1       30.039 -17.938   9.309  0.00  0.00    +0.024 C 
ATOM      6  C   LIG    1       31.186 -18.687   8.668  0.00  0.00    +0.103 C 
ENDBRANCH   4   6
BRANCH   4   7
ATOM      7  C   LIG    1       30.635 -19.126   6.184  0.00  0.00    +0.103 C 
ATOM      8  C   LIG    1       29.326 -18.346   5.704  0.00  0.00    +0.024 C 
ENDBRANCH   4   7
ENDBRANCH   2   4
ENDBRANCH   1   2
BRANCH   1   9
ATOM      9  S   LIG    1       26.860 -20.388   7.624  0.00  0.00    -0.027 S 
BRANCH   9  10
ATOM     10  C   LIG    1       25.670 -20.776   6.220  0.00  0.00    +0.120 C 
ATOM     11  S   LIG    1       26.012 -20.018   4.745  0.00  0.00    -0.027 S 
BRANCH  10  12
ATOM     12  N   LIG    1       24.664 -21.798   6.366  0.00  0.00    -0.319 N 
BRANCH  12  13
ATOM     13  C   LIG    1       24.800 -23.202   6.009  0.00  0.00    +0.103 C 
ATOM     14  C   LIG    1       23.637 -23.936   6.670  0.00  0.00    +0.024 C 
ENDBRANCH  12  13
BRANCH  12  15
ATOM     15  C   LIG    1       23.263 -21.548   6.648  0.00  0.00    +0.103 C 
ATOM     16  C   LIG    1       22.866 -20.358   6.112  0.00  0.00    +0.024 C 
ENDBRANCH  12  15
ENDBRANCH  10  12
ENDBRANCH   9  10
ENDBRANCH   1   9
TORSDOF 9
ENDMDL
