MODEL 1
REMARK VINA RESULT:      -5.0      0.000      0.000
REMARK  Name = *****
REMARK                            x       y       z     vdW  Elec       q    Type
REMARK                         _______ _______ _______ _____ _____    ______ ____
ROOT
ATOM      1  C   LIG    1       27.601 -19.907   5.940  0.00  0.00    -0.034 A 
ATOM      2  C   LIG    1       26.901 -20.484   7.014  0.00  0.00    +0.007 A 
ATOM      3  C   LIG    1       25.526 -20.702   6.935  0.00  0.00    +0.029 A 
ATOM      4  C   LIG    1       24.843 -20.346   5.770  0.00  0.00    +0.105 A 
ATOM      5  C   LIG    1       25.518 -19.762   4.695  0.00  0.00    +0.029 A 
ATOM      6  C   LIG    1       26.895 -19.547   4.783  0.00  0.00    +0.007 A 
ENDROOT
BRANCH   4   7
ATOM      7  S   LIG    1       23.094 -20.606   5.663  0.00  0.00    +0.056 S 
ATOM      8  O   LIG    1       22.444 -19.323   5.527  0.00  0.00    -0.153 OA
ATOM      9  O   LIG    1       22.707 -21.572   6.666  0.00  0.00    -0.153 OA
BRANCH   7  10
ATOM     10  N   LIG    1       22.963 -21.408   4.187  0.00  0.00    -0.203 NA
ATOM     11  H   LIG    1       23.844 -21.451   3.676  0.00  0.00    +0.144 HD
ATOM     12  H   LIG    1       22.576 -22.339   4.354  0.00  0.00    +0.144 HD
ENDBRANCH   7  10
ENDBRANCH   4   7
BRANCH   1  13
ATOM     13  C   LIG    1       29.084 -19.654   6.048  0.00  0.00    +0.113 C 
BRANCH  13  14
ATOM     14  N   LIG    1       29.462 -18.408   5.391  0.00  0.00    -0.326 NA
ATOM     15  H   LIG    1       30.201 -18.602   4.718  0.00  0.00    +0.118 HD
ATOM     16  H   LIG    1       28.669 -18.063   4.855  0.00  0.00    +0.118 HD
ENDBRANCH  13  14
ENDBRANCH   1  13
TORSDOF 4
ENDMDL
MODEL 2
REMARK VINA RESULT:      -4.9      1.036      1.884
REMARK  Name = *****
REMARK                            x       y       z     vdW  Elec       q    Type
REMARK                         _______ _______ _______ _____ _____    ______ ____
ROOT
ATOM      1  C   LIG    1       27.697 -19.825   6.017  0.00  0.00    -0.034 A 
ATOM      2  C   LIG    1       27.023 -19.538   4.817  0.00  0.00    +0.007 A 
ATOM      3  C   LIG    1       25.677 -19.866   4.659  0.00  0.00    +0.029 A 
ATOM      4  C   LIG    1       24.995 -20.482   5.710  0.00  0.00    +0.105 A 
ATOM      5  C   LIG    1       25.649 -20.785   6.907  0.00  0.00    +0.029 A 
ATOM      6  C   LIG    1       26.998 -20.453   7.058  0.00  0.00    +0.007 A 
ENDROOT
BRANCH   4   7
ATOM      7  S   LIG    1       23.288 -20.917   5.517  0.00  0.00    +0.056 S 
ATOM      8  O   LIG    1       22.839 -21.572   6.722  0.00  0.00    -0.153 OA
ATOM      9  O   LIG    1       23.104 -21.492   4.204  0.00  0.00    -0.153 OA
BRANCH   7  10
ATOM     10  N   LIG    1       22.560 -19.398   5.452  0.00  0.00    -0.203 NA
ATOM     11  H   LIG    1       21.548 -19.446   5.341  0.00  0.00    +0.144 HD
ATOM     12  H   LIG    1       22.827 -18.872   6.286  0.00  0.00    +0.144 HD
ENDBRANCH   7  10
ENDBRANCH   4   7
BRANCH   1  13
ATOM     13  C   LIG    1       29.160 -19.487   6.167  0.00  0.00    +0.113 C 
BRANCH  13  14
ATOM     14  N   LIG    1       29.475 -18.203   5.552  0.00  0.00    -0.326 NA
ATOM     15  H   LIG    1       29.335 -17.465   6.240  0.00  0.00    +0.118 HD
ATOM     16  H   LIG    1       30.463 -18.185   5.310  0.00  0.00    +0.118 HD
ENDBRANCH  13  14
ENDBRANCH   1  13
TORSDOF 4
ENDMDL
MODEL 3
REMARK VINA RESULT:      -3.9      3.240      5.090
REMARK  Name = *****
REMARK                            x       y       z     vdW  Elec       q    Type
REMARK                         _______ _______ _______ _____ _____    ______ ____
ROOT
ATOM      1  C   LIG    1       23.965 -20.446   5.214  0.00  0.00    -0.034 A 
ATOM      2  C   LIG    1       24.939 -20.014   4.297  0.00  0.00    +0.007 A 
ATOM      3  C   LIG    1       26.286 -19.966   4.657  0.00  0.00    +0.029 A 
ATOM      4  C   LIG    1       26.665 -20.358   5.942  0.00  0.00    +0.105 A 
ATOM      5  C   LIG    1       25.711 -20.781   6.872  0.00  0.00    +0.029 A 
ATOM      6  C   LIG    1       24.365 -20.826   6.504  0.00  0.00    +0.007 A 
ENDROOT
BRANCH   4   7
ATOM      7  S   LIG    1       28.371 -20.288   6.415  0.00  0.00    +0.056 S 
ATOM      8  O   LIG    1       28.736 -21.551   7.013  0.00  0.00    -0.153 OA
ATOM      9  O   LIG    1       28.620 -19.020   7.062  0.00  0.00    -0.153 OA
BRANCH   7  10
ATOM     10  N   LIG    1       29.132 -20.189   4.915  0.00  0.00    -0.203 NA
ATOM     11  H   LIG    1       29.425 -21.097   4.555  0.00  0.00    +0.144 HD
ATOM     12  H   LIG    1       28.511 -19.704   4.265  0.00  0.00    +0.144 HD
ENDBRANCH   7  10
ENDBRANCH   4   7
BRANCH   1  13
ATOM     13  C   LIG    1       22.509 -20.470   4.820  0.00  0.00    +0.113 C 
BRANCH  13  14
ATOM     14  N   LIG    1       22.038 -19.143   4.441  0.00  0.00    -0.326 NA
ATOM     15  H   LIG    1       21.686 -19.179   3.486  0.00  0.00    +0.118 HD
ATOM     16  H   LIG    1       21.246 -18.892   5.029  0.00  0.00    +0.118 HD
ENDBRANCH  13  14
ENDBRANCH   1  13
TORSDOF 4
ENDMDL
MODEL 4
REMARK VINA RESULT:      -3.5      5.236      6.543
REMARK  Name = *****
REMARK                            x       y       z     vdW  Elec       q    Type
REMARK                         _______ _______ _______ _____ _____    ______ ____
ROOT
ATOM      1  C   LIG    1       23.218 -17.580   4.138  0.00  0.00    -0.034 A 
ATOM      2  C   LIG    1       22.957 -16.221   4.383  0.00  0.00    +0.007 A 
ATOM      3  C   LIG    1       23.929 -15.251   4.135  0.00  0.00    +0.029 A 
ATOM      4  C   LIG    1       25.172 -15.642   3.633  0.00  0.00    +0.105 A 
ATOM      5  C   LIG    1       25.455 -16.989   3.393  0.00  0.00    +0.029 A 
ATOM      6  C   LIG    1       24.477 -17.953   3.644  0.00  0.00    +0.007 A 
ENDROOT
BRANCH   4   7
ATOM      7  S   LIG    1       26.419 -14.421   3.327  0.00  0.00    +0.056 S 
ATOM      8  O   LIG    1       26.151 -13.269   4.155  0.00  0.00    -0.153 OA
ATOM      9  O   LIG    1       26.629 -14.323   1.901  0.00  0.00    -0.153 OA
BRANCH   7  10
ATOM     10  N   LIG    1       27.793 -15.185   3.935  0.00  0.00    -0.203 NA
ATOM     11  H   LIG    1       27.706 -16.200   3.960  0.00  0.00    +0.144 HD
ATOM     12  H   LIG    1       28.603 -14.886   3.389  0.00  0.00    +0.144 HD
ENDBRANCH   7  10
ENDBRANCH   4   7
BRANCH   1  13
ATOM     13  C   LIG    1       22.167 -18.621   4.433  0.00  0.00    +0.113 C 
BRANCH  13  14
ATOM     14  N   LIG    1       22.650 -19.610   5.389  0.00  0.00    -0.326 NA
ATOM     15  H   LIG    1       21.938 -20.329   5.508  0.00  0.00    +0.118 HD
ATOM     16  H   LIG    1       23.466 -20.077   4.999  0.00  0.00    +0.118 HD
ENDBRANCH  13  14
ENDBRANCH   1  13
TORSDOF 4
ENDMDL
MODEL 5
REMARK VINA RESULT:      -3.3      5.615      6.864
REMARK  Name = *****
REMARK                            x       y       z     vdW  Elec       q    Type
REMARK                         _______ _______ _______ _____ _____    ______ ____
ROOT
ATOM      1  C   LIG    1       23.291 -17.149   4.222  0.00  0.00    -0.034 A 
ATOM      2  C   LIG    1       24.571 -17.361   3.679  0.00  0.00    +0.007 A 
ATOM      3  C   LIG    1       25.416 -16.286   3.403  0.00  0.00    +0.029 A 
ATOM      4  C   LIG    1       24.982 -14.987   3.676  0.00  0.00    +0.105 A 
ATOM      5  C   LIG    1       23.709 -14.755   4.206  0.00  0.00    +0.029 A 
ATOM      6  C   LIG    1       22.869 -15.837   4.479  0.00  0.00    +0.007 A 
ENDROOT
BRANCH   4   7
ATOM      7  S   LIG    1       26.040 -13.613   3.317  0.00  0.00    +0.056 S 
ATOM      8  O   LIG    1       26.940 -13.420   4.430  0.00  0.00    -0.153 OA
ATOM      9  O   LIG    1       25.238 -12.542   2.771  0.00  0.00    -0.153 OA
BRANCH   7  10
ATOM     10  N   LIG    1       26.940 -14.210   2.024  0.00  0.00    -0.203 NA
ATOM     11  H   LIG    1       27.703 -14.819   2.316  0.00  0.00    +0.144 HD
ATOM     12  H   LIG    1       26.307 -14.680   1.374  0.00  0.00    +0.144 HD
ENDBRANCH   7  10
ENDBRANCH   4   7
BRANCH   1  13
ATOM     13  C   LIG    1       22.378 -18.319   4.493  0.00  0.00    +0.113 C 
BRANCH  13  14
ATOM     14  N   LIG    1       23.122 -19.571   4.561  0.00  0.00    -0.326 NA
ATOM     15  H   LIG    1       22.480 -20.345   4.403  0.00  0.00    +0.118 HD
ATOM     16  H   LIG    1       23.796 -19.598   3.799  0.00  0.00    +0.118 HD
ENDBRANCH  13  14
ENDBRANCH   1  13
TORSDOF 4
ENDMDL
MODEL 6
REMARK VINA RESULT:      -3.2      5.059      6.294
REMARK  Name = *****
REMARK                            x       y       z     vdW  Elec       q    Type
REMARK                         _______ _______ _______ _____ _____    ______ ____
ROOT
ATOM      1  C   LIG    1       24.841 -17.882   3.626  0.00  0.00    -0.034 A 
ATOM      2  C   LIG    1       23.783 -17.049   4.030  0.00  0.00    +0.007 A 
ATOM      3  C   LIG    1       23.950 -15.665   4.095  0.00  0.00    +0.029 A 
ATOM      4  C   LIG    1       25.182 -15.108   3.749  0.00  0.00    +0.105 A 
ATOM      5  C   LIG    1       26.250 -15.920   3.355  0.00  0.00    +0.029 A 
ATOM      6  C   LIG    1       26.075 -17.304   3.293  0.00  0.00    +0.007 A 
ENDROOT
BRANCH   4   7
ATOM      7  S   LIG    1       25.411 -13.354   3.842  0.00  0.00    +0.056 S 
ATOM      8  O   LIG    1       24.131 -12.734   4.090  0.00  0.00    -0.153 OA
ATOM      9  O   LIG    1       26.278 -12.943   2.761  0.00  0.00    -0.153 OA
BRANCH   7  10
ATOM     10  N   LIG    1       26.335 -13.208   5.244  0.00  0.00    -0.203 NA
ATOM     11  H   LIG    1       25.770 -13.160   6.091  0.00  0.00    +0.144 HD
ATOM     12  H   LIG    1       27.004 -13.981   5.276  0.00  0.00    +0.144 HD
ENDBRANCH   7  10
ENDBRANCH   4   7
BRANCH   1  13
ATOM     13  C   LIG    1       24.655 -19.379   3.583  0.00  0.00    +0.113 C 
BRANCH  13  14
ATOM     14  N   LIG    1       25.869 -20.079   3.984  0.00  0.00    -0.326 NA
ATOM     15  H   LIG    1       25.954 -20.036   4.998  0.00  0.00    +0.118 HD
ATOM     16  H   LIG    1       25.779 -21.064   3.745  0.00  0.00    +0.118 HD
ENDBRANCH  13  14
ENDBRANCH   1  13
TORSDOF 4
ENDMDL
MODEL 7
REMARK VINA RESULT:      -3.2      5.064      6.331
REMARK  Name = *****
REMARK                            x       y       z     vdW  Elec       q    Type
REMARK                         _______ _______ _______ _____ _____    ______ ____
ROOT
ATOM      1  C   LIG    1       24.838 -17.887   3.636  0.00  0.00    -0.034 A 
ATOM      2  C   LIG    1       26.069 -17.301   3.292  0.00  0.00    +0.007 A 
ATOM      3  C   LIG    1       26.241 -15.918   3.347  0.00  0.00    +0.029 A 
ATOM      4  C   LIG    1       25.177 -15.112   3.754  0.00  0.00    +0.105 A 
ATOM      5  C   LIG    1       23.942 -15.674   4.091  0.00  0.00    +0.029 A 
ATOM      6  C   LIG    1       23.777 -17.060   4.033  0.00  0.00    +0.007 A 
ENDROOT
BRANCH   4   7
ATOM      7  S   LIG    1       25.378 -13.353   3.815  0.00  0.00    +0.056 S 
ATOM      8  O   LIG    1       24.088 -12.748   4.043  0.00  0.00    -0.153 OA
ATOM      9  O   LIG    1       26.245 -12.950   2.731  0.00  0.00    -0.153 OA
BRANCH   7  10
ATOM     10  N   LIG    1       26.292 -13.168   5.219  0.00  0.00    -0.203 NA
ATOM     11  H   LIG    1       26.085 -12.303   5.718  0.00  0.00    +0.144 HD
ATOM     12  H   LIG    1       26.154 -13.990   5.810  0.00  0.00    +0.144 HD
ENDBRANCH   7  10
ENDBRANCH   4   7
BRANCH   1  13
ATOM     13  C   LIG    1       24.658 -19.382   3.549  0.00  0.00    +0.113 C 
BRANCH  13  14
ATOM     14  N   LIG    1       25.858 -20.090   3.979  0.00  0.00    -0.326 NA
ATOM     15  H   LIG    1       25.681 -21.092   3.942  0.00  0.00    +0.118 HD
ATOM     16  H   LIG    1       26.607 -19.907   3.314  0.00  0.00    +0.118 HD
ENDBRANCH  13  14
ENDBRANCH   1  13
TORSDOF 4
ENDMDL
MODEL 8
REMARK VINA RESULT:      -3.0      3.579      4.559
REMARK  Name = *****
REMARK                            x       y       z     vdW  Elec       q    Type
REMARK                         _______ _______ _______ _____ _____    ______ ____
ROOT
ATOM      1  C   LIG    1       23.317 -16.542   4.218  0.00  0.00    -0.034 A 
ATOM      2  C   LIG    1       24.478 -17.144   3.702  0.00  0.00    +0.007 A 
ATOM      3  C   LIG    1       24.628 -18.531   3.711  0.00  0.00    +0.029 A 
ATOM      4  C   LIG    1       23.607 -19.325   4.237  0.00  0.00    +0.105 A 
ATOM      5  C   LIG    1       22.449 -18.746   4.764  0.00  0.00    +0.029 A 
ATOM      6  C   LIG    1       22.307 -17.357   4.751  0.00  0.00    +0.007 A 
ENDROOT
BRANCH   4   7
ATOM      7  S   LIG    1       23.791 -21.087   4.267  0.00  0.00    +0.056 S 
ATOM      8  O   LIG    1       24.800 -21.429   5.242  0.00  0.00    -0.153 OA
ATOM      9  O   LIG    1       23.828 -21.571   2.906  0.00  0.00    -0.153 OA
BRANCH   7  10
ATOM     10  N   LIG    1       22.297 -21.571   4.880  0.00  0.00    -0.203 NA
ATOM     11  H   LIG    1       21.953 -22.432   4.458  0.00  0.00    +0.144 HD
ATOM     12  H   LIG    1       22.370 -21.648   5.896  0.00  0.00    +0.144 HD
ENDBRANCH   7  10
ENDBRANCH   4   7
BRANCH   1  13
ATOM     13  C   LIG    1       23.178 -15.040   4.224  0.00  0.00    +0.113 C 
BRANCH  13  14
ATOM     14  N   LIG    1       24.465 -14.386   4.022  0.00  0.00    -0.326 NA
ATOM     15  H   LIG    1       24.776 -13.990   4.908  0.00  0.00    +0.118 HD
ATOM     16  H   LIG    1       25.156 -15.086   3.762  0.00  0.00    +0.118 HD
ENDBRANCH  13  14
ENDBRANCH   1  13
TORSDOF 4
ENDMDL
MODEL 9
REMARK VINA RESULT:      -2.8      4.322      5.055
REMARK  Name = *****
REMARK                            x       y       z     vdW  Elec       q    Type
REMARK                         _______ _______ _______ _____ _____    ______ ____
ROOT
ATOM      1  C   LIG    1       24.901 -15.094   3.627  0.00  0.00    -0.034 A 
ATOM      2  C   LIG    1       25.995 -15.903   3.273  0.00  0.00    +0.007 A 
ATOM      3  C   LIG    1       25.909 -17.294   3.351  0.00  0.00    +0.029 A 
ATOM      4  C   LIG    1       24.719 -17.882   3.783  0.00  0.00    +0.105 A 
ATOM      5  C   LIG    1       23.623 -17.095   4.149  0.00  0.00    +0.029 A 
ATOM      6  C   LIG    1       23.717 -15.704   4.068  0.00  0.00    +0.007 A 
ENDROOT
BRANCH   4   7
ATOM      7  S   LIG    1       24.602 -19.646   3.900  0.00  0.00    +0.056 S 
ATOM      8  O   LIG    1       24.325 -20.179   2.587  0.00  0.00    -0.153 OA
ATOM      9  O   LIG    1       23.805 -19.980   5.059  0.00  0.00    -0.153 OA
BRANCH   7  10
ATOM     10  N   LIG    1       26.184 -20.062   4.303  0.00  0.00    -0.203 NA
ATOM     11  H   LIG    1       26.259 -20.510   5.215  0.00  0.00    +0.144 HD
ATOM     12  H   LIG    1       26.568 -20.647   3.559  0.00  0.00    +0.144 HD
ENDBRANCH   7  10
ENDBRANCH   4   7
BRANCH   1  13
ATOM     13  C   LIG    1       25.016 -13.591   3.561  0.00  0.00    +0.113 C 
BRANCH  13  14
ATOM     14  N   LIG    1       23.885 -13.002   2.853  0.00  0.00    -0.326 NA
ATOM     15  H   LIG    1       23.022 -13.386   3.233  0.00  0.00    +0.118 HD
ATOM     16  H   LIG    1       23.861 -12.002   3.042  0.00  0.00    +0.118 HD
ENDBRANCH  13  14
ENDBRANCH   1  13
TORSDOF 4
ENDMDL
