MODEL 1
REMARK VINA RESULT:       3.6      0.000      0.000
REMARK  Name = *****
REMARK                            x       y       z     vdW  Elec       q    Type
REMARK                         _______ _______ _______ _____ _____    ______ ____
ROOT
ATOM      1  N   LIG    1       26.660 -17.266   4.074  0.00  0.00    -0.296 N 
ATOM      2  C   LIG    1       25.211 -17.238   4.091  0.00  0.00    +0.079 C 
ATOM      3  C   LIG    1       24.551 -15.992   4.065  0.00  0.00    +0.051 C 
ATOM      4  C   LIG    1       23.169 -15.891   4.228  0.00  0.00    +0.054 C 
ATOM      5  C   LIG    1       22.414 -17.045   4.367  0.00  0.00    +0.146 C 
ATOM      6  C   LIG    1       22.985 -18.328   4.284  0.00  0.00    +0.086 C 
ATOM      7  F   LIG    1       21.092 -16.891   4.534  0.00  0.00    -0.203 F 
ATOM      8  C   LIG    1       25.313 -14.760   3.764  0.00  0.00    +0.203 C 
ATOM      9  O   LIG    1       24.784 -13.651   3.765  0.00  0.00    -0.286 OA
ATOM     10  C   LIG    1       26.733 -14.903   3.408  0.00  0.00    +0.122 C 
ATOM     11  C   LIG    1       24.391 -18.399   4.079  0.00  0.00    +0.089 C 
ATOM     12 CL   LIG    1       25.072 -19.898   3.479  0.00  0.00    -0.079 Cl
ATOM     13  C   LIG    1       27.293 -16.102   3.624  0.00  0.00    +0.112 C 
ENDROOT
BRANCH   1  20
ATOM     14  C   LIG    1       27.480 -20.345   5.896  0.00  0.00    +0.154 A 
ATOM     15  C   LIG    1       28.814 -20.168   6.258  0.00  0.00    +0.166 A 
ATOM     16  F   LIG    1       29.475 -21.114   6.942  0.00  0.00    -0.202 F 
ATOM     17  C   LIG    1       29.475 -19.022   5.871  0.00  0.00    +0.084 A 
ATOM     18  C   LIG    1       28.780 -18.078   5.128  0.00  0.00    +0.169 A 
ATOM     19  F   LIG    1       29.475 -17.016   4.696  0.00  0.00    -0.202 F 
ATOM     20  C   LIG    1       27.418 -18.263   4.811  0.00  0.00    +0.176 A 
ATOM     21  N   LIG    1       26.781 -19.402   5.223  0.00  0.00    -0.209 NA
BRANCH  14  22
ATOM     22  N   LIG    1       26.791 -21.501   6.269  0.00  0.00    -0.341 N 
ATOM     23  H   LIG    1       25.821 -21.305   6.496  0.00  0.00    +0.144 HD
ATOM     24  H   LIG    1       27.293 -21.962   7.020  0.00  0.00    +0.144 HD
ENDBRANCH  14  22
ENDBRANCH   1  20
BRANCH   6  25
ATOM     25  N   LIG    1       22.164 -19.490   4.347  0.00  0.00    -0.322 NA
ATOM     26  C   LIG    1       22.057 -20.505   3.328  0.00  0.00    +0.138 C 
ATOM     27  C   LIG    1       21.480 -21.439   4.403  0.00  0.00    +0.149 C 
ATOM     28  C   LIG    1       22.106 -20.463   5.410  0.00  0.00    +0.138 C 
BRANCH  27  29
ATOM     29  O   LIG    1       20.038 -21.572   4.436  0.00  0.00    -0.389 OA
ATOM     30  H   LIG    1       19.834 -22.153   3.681  0.00  0.00    +0.210 HD
ENDBRANCH  27  29
ENDBRANCH   6  25
BRANCH  10  31
ATOM     31  C   LIG    1       27.569 -13.805   2.885  0.00  0.00    +0.342 C 
ATOM     32  O   LIG    1       28.675 -13.538   3.320  0.00  0.00    -0.245 OA
BRANCH  31  33
ATOM     33  O   LIG    1       27.004 -13.111   1.872  0.00  0.00    -0.477 OA
ATOM     34  H   LIG    1       26.426 -12.363   2.161  0.00  0.00    +0.295 HD
ENDBRANCH  31  33
ENDBRANCH  10  31
TORSDOF 6
ENDMDL
MODEL 2
REMARK VINA RESULT:       6.2      3.222      6.495
REMARK  Name = *****
REMARK                            x       y       z     vdW  Elec       q    Type
REMARK                         _______ _______ _______ _____ _____    ______ ____
ROOT
ATOM      1  N   LIG    1       23.405 -17.259   3.686  0.00  0.00    -0.296 N 
ATOM      2  C   LIG    1       23.811 -18.416   4.458  0.00  0.00    +0.079 C 
ATOM      3  C   LIG    1       22.822 -19.303   4.931  0.00  0.00    +0.051 C 
ATOM      4  C   LIG    1       23.131 -20.350   5.800  0.00  0.00    +0.054 C 
ATOM      5  C   LIG    1       24.450 -20.560   6.170  0.00  0.00    +0.146 C 
ATOM      6  C   LIG    1       25.506 -19.792   5.647  0.00  0.00    +0.086 C 
ATOM      7  F   LIG    1       24.691 -21.572   7.018  0.00  0.00    -0.203 F 
ATOM      8  C   LIG    1       21.434 -19.195   4.430  0.00  0.00    +0.203 C 
ATOM      9  O   LIG    1       20.535 -19.926   4.841  0.00  0.00    -0.286 OA
ATOM     10  C   LIG    1       21.162 -18.210   3.373  0.00  0.00    +0.122 C 
ATOM     11  C   LIG    1       25.163 -18.757   4.733  0.00  0.00    +0.089 C 
ATOM     12 CL   LIG    1       26.416 -18.116   3.689  0.00  0.00    -0.079 Cl
ATOM     13  C   LIG    1       22.127 -17.315   3.119  0.00  0.00    +0.112 C 
ENDROOT
BRANCH   1  20
ATOM     14  C   LIG    1       25.939 -14.642   3.237  0.00  0.00    +0.154 A 
ATOM     15  C   LIG    1       25.461 -13.584   4.009  0.00  0.00    +0.166 A 
ATOM     16  F   LIG    1       26.131 -12.425   4.082  0.00  0.00    -0.202 F 
ATOM     17  C   LIG    1       24.261 -13.719   4.672  0.00  0.00    +0.084 A 
ATOM     18  C   LIG    1       23.567 -14.914   4.546  0.00  0.00    +0.169 A 
ATOM     19  F   LIG    1       22.364 -14.981   5.135  0.00  0.00    -0.202 F 
ATOM     20  C   LIG    1       24.093 -15.983   3.793  0.00  0.00    +0.176 A 
ATOM     21  N   LIG    1       25.296 -15.830   3.158  0.00  0.00    -0.209 NA
BRANCH  14  22
ATOM     22  N   LIG    1       27.149 -14.527   2.549  0.00  0.00    -0.341 N 
ATOM     23  H   LIG    1       27.939 -14.459   3.183  0.00  0.00    +0.144 HD
ATOM     24  H   LIG    1       27.091 -13.753   1.895  0.00  0.00    +0.144 HD
ENDBRANCH  14  22
ENDBRANCH   1  20
BRANCH   6  25
ATOM     25  N   LIG    1       26.857 -20.092   5.986  0.00  0.00    -0.322 NA
ATOM     26  C   LIG    1       27.916 -20.388   5.054  0.00  0.00    +0.138 C 
ATOM     27  C   LIG    1       28.914 -20.056   6.173  0.00  0.00    +0.149 C 
ATOM     28  C   LIG    1       27.735 -19.330   6.838  0.00  0.00    +0.138 C 
BRANCH  27  29
ATOM     29  O   LIG    1       29.475 -21.180   6.893  0.00  0.00    -0.389 OA
ATOM     30  H   LIG    1       29.982 -20.770   7.618  0.00  0.00    +0.210 HD
ENDBRANCH  27  29
ENDBRANCH   6  25
BRANCH  10  31
ATOM     31  C   LIG    1       19.890 -18.124   2.629  0.00  0.00    +0.342 C 
ATOM     32  O   LIG    1       19.363 -17.070   2.321  0.00  0.00    -0.245 OA
BRANCH  31  33
ATOM     33  O   LIG    1       19.350 -19.322   2.312  0.00  0.00    -0.477 OA
ATOM     34  H   LIG    1       19.426 -20.005   3.022  0.00  0.00    +0.295 HD
ENDBRANCH  31  33
ENDBRANCH  10  31
TORSDOF 6
ENDMDL
