MODEL 1
REMARK VINA RESULT:      -8.0      0.000      0.000
REMARK  Name = *****
REMARK                            x       y       z     vdW  Elec       q    Type
REMARK                         _______ _______ _______ _____ _____    ______ ____
ROOT
ATOM      1  C   LIG    1       24.071 -22.198   6.965  0.00  0.00    +0.144 C 
ATOM      2  C   LIG    1       25.358 -22.657   6.685  0.00  0.00    +0.014 C 
ENDROOT
BRANCH   2   3
ATOM      3  C   LIG    1       26.614 -21.768   6.610  0.00  0.00    -0.016 A 
ATOM      4  C   LIG    1       26.785 -20.740   5.653  0.00  0.00    +0.012 A 
ATOM      5  C   LIG    1       27.822 -19.786   5.695  0.00  0.00    +0.046 A 
ATOM      6  C   LIG    1       28.805 -19.896   6.658  0.00  0.00    +0.120 A 
ATOM      7  C   LIG    1       28.751 -20.982   7.508  0.00  0.00    +0.046 A 
ATOM      8  C   LIG    1       27.696 -21.887   7.467  0.00  0.00    +0.012 A 
BRANCH   6   9
ATOM      9  O   LIG    1       29.820 -18.986   6.675  0.00  0.00    -0.495 OA
ATOM     10  C   LIG    1       31.012 -19.491   7.283  0.00  0.00    +0.277 C 
ENDBRANCH   6   9
ENDBRANCH   2   3
BRANCH   2  11
ATOM     11  C   LIG    1       25.497 -24.184   6.339  0.00  0.00    -0.016 A 
ATOM     12  C   LIG    1       25.930 -25.148   7.276  0.00  0.00    +0.008 A 
ATOM     13  C   LIG    1       25.928 -26.519   7.002  0.00  0.00    +0.001 A 
ATOM     14  C   LIG    1       25.718 -26.961   5.710  0.00  0.00    +0.000 A 
ATOM     15  C   LIG    1       25.401 -26.040   4.726  0.00  0.00    +0.001 A 
ATOM     16  C   LIG    1       25.189 -24.697   5.065  0.00  0.00    +0.008 A 
ENDBRANCH   2  11
BRANCH   1  17
ATOM     17  C   LIG    1       23.536 -20.843   7.254  0.00  0.00    +0.350 C 
ATOM     18  O   LIG    1       23.688 -20.249   8.263  0.00  0.00    -0.244 OA
BRANCH  17  19
ATOM     19  O   LIG    1       22.897 -20.334   6.145  0.00  0.00    -0.460 OA
BRANCH  19  20
ATOM     20  C   LIG    1       23.552 -20.490   4.876  0.00  0.00    +0.236 C 
BRANCH  20  21
ATOM     21  C   LIG    1       23.482 -19.343   3.847  0.00  0.00    +0.026 C 
BRANCH  21  22
ATOM     22  C   LIG    1       22.578 -18.158   4.233  0.00  0.00    +0.003 C 
ATOM     23  C   LIG    1       21.109 -18.286   3.869  0.00  0.00    +0.004 C 
ENDBRANCH  21  22
BRANCH  21  24
ATOM     24  C   LIG    1       24.895 -18.841   3.480  0.00  0.00    +0.007 C 
BRANCH  24  25
ATOM     25  C   LIG    1       25.080 -17.322   3.462  0.00  0.00    +0.000 C 
BRANCH  25  27
ATOM     26  C   LIG    1       26.781 -15.420   3.435  0.00  0.00    +0.004 C 
ATOM     27  C   LIG    1       26.559 -16.927   3.445  0.00  0.00    -0.003 C 
ENDBRANCH  25  27
ENDBRANCH  24  25
ENDBRANCH  21  24
ENDBRANCH  20  21
ENDBRANCH  19  20
ENDBRANCH  17  19
ENDBRANCH   1  17
BRANCH   1  28
ATOM     28  C   LIG    1       23.024 -23.120   6.786  0.00  0.00    +0.107 C 
ATOM     29  N   LIG    1       22.167 -23.874   6.641  0.00  0.00    -0.191 NA
ENDBRANCH   1  28
TORSDOF 12
ENDMDL
MODEL 2
REMARK VINA RESULT:      -8.0      0.917      1.783
REMARK  Name = *****
REMARK                            x       y       z     vdW  Elec       q    Type
REMARK                         _______ _______ _______ _____ _____    ______ ____
ROOT
ATOM      1  C   LIG    1       24.001 -22.330   7.012  0.00  0.00    +0.144 C 
ATOM      2  C   LIG    1       25.313 -22.723   6.749  0.00  0.00    +0.014 C 
ENDROOT
BRANCH   2   3
ATOM      3  C   LIG    1       26.527 -21.774   6.710  0.00  0.00    -0.016 A 
ATOM      4  C   LIG    1       27.670 -21.938   7.529  0.00  0.00    +0.012 A 
ATOM      5  C   LIG    1       28.868 -21.214   7.365  0.00  0.00    +0.046 A 
ATOM      6  C   LIG    1       28.928 -20.206   6.424  0.00  0.00    +0.120 A 
ATOM      7  C   LIG    1       27.776 -19.917   5.720  0.00  0.00    +0.046 A 
ATOM      8  C   LIG    1       26.620 -20.673   5.876  0.00  0.00    +0.012 A 
BRANCH   6   9
ATOM      9  O   LIG    1       30.082 -19.491   6.292  0.00  0.00    -0.495 OA
ATOM     10  C   LIG    1       30.996 -19.704   7.371  0.00  0.00    +0.277 C 
ENDBRANCH   6   9
ENDBRANCH   2   3
BRANCH   2  11
ATOM     11  C   LIG    1       25.531 -24.235   6.382  0.00  0.00    -0.016 A 
ATOM     12  C   LIG    1       25.976 -25.196   7.316  0.00  0.00    +0.008 A 
ATOM     13  C   LIG    1       26.044 -26.561   7.020  0.00  0.00    +0.001 A 
ATOM     14  C   LIG    1       25.895 -26.989   5.714  0.00  0.00    +0.000 A 
ATOM     15  C   LIG    1       25.567 -26.064   4.736  0.00  0.00    +0.001 A 
ATOM     16  C   LIG    1       25.286 -24.739   5.090  0.00  0.00    +0.008 A 
ENDBRANCH   2  11
BRANCH   1  17
ATOM     17  C   LIG    1       23.398 -21.007   7.312  0.00  0.00    +0.350 C 
ATOM     18  O   LIG    1       23.755 -20.268   8.162  0.00  0.00    -0.244 OA
BRANCH  17  19
ATOM     19  O   LIG    1       22.403 -20.717   6.405  0.00  0.00    -0.460 OA
BRANCH  19  20
ATOM     20  C   LIG    1       22.799 -20.472   5.046  0.00  0.00    +0.236 C 
BRANCH  20  21
ATOM     21  C   LIG    1       23.365 -19.089   4.665  0.00  0.00    +0.026 C 
BRANCH  21  22
ATOM     22  C   LIG    1       24.156 -19.034   3.346  0.00  0.00    +0.003 C 
ATOM     23  C   LIG    1       25.464 -18.262   3.377  0.00  0.00    +0.004 C 
ENDBRANCH  21  22
BRANCH  21  24
ATOM     24  C   LIG    1       22.256 -18.015   4.669  0.00  0.00    +0.007 C 
BRANCH  24  25
ATOM     25  C   LIG    1       22.577 -16.721   3.920  0.00  0.00    +0.000 C 
BRANCH  25  27
ATOM     26  C   LIG    1       23.758 -14.486   4.269  0.00  0.00    +0.004 C 
ATOM     27  C   LIG    1       22.873 -15.564   4.878  0.00  0.00    -0.003 C 
ENDBRANCH  25  27
ENDBRANCH  24  25
ENDBRANCH  21  24
ENDBRANCH  20  21
ENDBRANCH  19  20
ENDBRANCH  17  19
ENDBRANCH   1  17
BRANCH   1  28
ATOM     28  C   LIG    1       23.003 -23.297   6.801  0.00  0.00    +0.107 C 
ATOM     29  N   LIG    1       22.186 -24.089   6.627  0.00  0.00    -0.191 NA
ENDBRANCH   1  28
TORSDOF 12
ENDMDL
MODEL 3
REMARK VINA RESULT:      -7.7      1.976      6.830
REMARK  Name = *****
REMARK                            x       y       z     vdW  Elec       q    Type
REMARK                         _______ _______ _______ _____ _____    ______ ____
ROOT
ATOM      1  C   LIG    1       25.247 -22.337   6.545  0.00  0.00    +0.144 C 
ATOM      2  C   LIG    1       25.577 -21.056   6.104  0.00  0.00    +0.014 C 
ENDROOT
BRANCH   2   3
ATOM      3  C   LIG    1       26.919 -20.349   6.376  0.00  0.00    -0.016 A 
ATOM      4  C   LIG    1       27.521 -20.284   7.655  0.00  0.00    +0.012 A 
ATOM      5  C   LIG    1       28.834 -19.830   7.887  0.00  0.00    +0.046 A 
ATOM      6  C   LIG    1       29.568 -19.313   6.838  0.00  0.00    +0.120 A 
ATOM      7  C   LIG    1       28.948 -19.216   5.609  0.00  0.00    +0.046 A 
ATOM      8  C   LIG    1       27.664 -19.707   5.401  0.00  0.00    +0.012 A 
BRANCH   6   9
ATOM      9  O   LIG    1       30.828 -18.849   7.077  0.00  0.00    -0.495 OA
ATOM     10  C   LIG    1       31.267 -19.093   8.417  0.00  0.00    +0.277 C 
ENDBRANCH   6   9
ENDBRANCH   2   3
BRANCH   2  11
ATOM     11  C   LIG    1       24.449 -20.262   5.352  0.00  0.00    -0.016 A 
ATOM     12  C   LIG    1       23.225 -19.904   5.959  0.00  0.00    +0.008 A 
ATOM     13  C   LIG    1       22.282 -19.087   5.329  0.00  0.00    +0.001 A 
ATOM     14  C   LIG    1       22.417 -18.790   3.986  0.00  0.00    +0.000 A 
ATOM     15  C   LIG    1       23.550 -19.217   3.313  0.00  0.00    +0.001 A 
ATOM     16  C   LIG    1       24.588 -19.843   4.015  0.00  0.00    +0.008 A 
ENDBRANCH   2  11
BRANCH   1  17
ATOM     17  C   LIG    1       25.998 -23.343   7.338  0.00  0.00    +0.350 C 
ATOM     18  O   LIG    1       26.253 -23.258   8.488  0.00  0.00    -0.244 OA
BRANCH  17  19
ATOM     19  O   LIG    1       26.293 -24.442   6.561  0.00  0.00    -0.460 OA
BRANCH  19  20
ATOM     20  C   LIG    1       25.787 -25.714   6.996  0.00  0.00    +0.236 C 
BRANCH  20  21
ATOM     21  C   LIG    1       24.991 -26.586   6.004  0.00  0.00    +0.026 C 
BRANCH  21  22
ATOM     22  C   LIG    1       25.706 -26.907   4.679  0.00  0.00    +0.003 C 
ATOM     23  C   LIG    1       27.153 -27.355   4.786  0.00  0.00    +0.004 C 
ENDBRANCH  21  22
BRANCH  21  24
ATOM     24  C   LIG    1       24.503 -27.887   6.677  0.00  0.00    +0.007 C 
BRANCH  24  25
ATOM     25  C   LIG    1       24.102 -29.019   5.729  0.00  0.00    +0.000 C 
BRANCH  25  27
ATOM     26  C   LIG    1       25.675 -30.945   5.154  0.00  0.00    +0.004 C 
ATOM     27  C   LIG    1       24.693 -30.363   6.162  0.00  0.00    -0.003 C 
ENDBRANCH  25  27
ENDBRANCH  24  25
ENDBRANCH  21  24
ENDBRANCH  20  21
ENDBRANCH  19  20
ENDBRANCH  17  19
ENDBRANCH   1  17
BRANCH   1  28
ATOM     28  C   LIG    1       23.907 -22.732   6.379  0.00  0.00    +0.107 C 
ATOM     29  N   LIG    1       22.811 -23.055   6.243  0.00  0.00    -0.191 NA
ENDBRANCH   1  28
TORSDOF 12
ENDMDL
MODEL 4
REMARK VINA RESULT:      -7.2      2.067      6.906
REMARK  Name = *****
REMARK                            x       y       z     vdW  Elec       q    Type
REMARK                         _______ _______ _______ _____ _____    ______ ____
ROOT
ATOM      1  C   LIG    1       25.163 -22.507   6.423  0.00  0.00    +0.144 C 
ATOM      2  C   LIG    1       25.533 -21.213   6.058  0.00  0.00    +0.014 C 
ENDROOT
BRANCH   2   3
ATOM      3  C   LIG    1       26.896 -20.565   6.368  0.00  0.00    -0.016 A 
ATOM      4  C   LIG    1       27.729 -19.990   5.379  0.00  0.00    +0.012 A 
ATOM      5  C   LIG    1       28.870 -19.213   5.662  0.00  0.00    +0.046 A 
ATOM      6  C   LIG    1       29.286 -19.071   6.971  0.00  0.00    +0.120 A 
ATOM      7  C   LIG    1       28.584 -19.753   7.943  0.00  0.00    +0.046 A 
ATOM      8  C   LIG    1       27.440 -20.482   7.639  0.00  0.00    +0.012 A 
BRANCH   6   9
ATOM      9  O   LIG    1       30.408 -18.342   7.233  0.00  0.00    -0.495 OA
ATOM     10  C   LIG    1       31.460 -19.123   7.806  0.00  0.00    +0.277 C 
ENDBRANCH   6   9
ENDBRANCH   2   3
BRANCH   2  11
ATOM     11  C   LIG    1       24.430 -20.341   5.355  0.00  0.00    -0.016 A 
ATOM     12  C   LIG    1       23.225 -19.970   5.989  0.00  0.00    +0.008 A 
ATOM     13  C   LIG    1       22.308 -19.089   5.409  0.00  0.00    +0.001 A 
ATOM     14  C   LIG    1       22.445 -18.730   4.081  0.00  0.00    +0.000 A 
ATOM     15  C   LIG    1       23.557 -19.163   3.378  0.00  0.00    +0.001 A 
ATOM     16  C   LIG    1       24.576 -19.861   4.040  0.00  0.00    +0.008 A 
ENDBRANCH   2  11
BRANCH   1  17
ATOM     17  C   LIG    1       25.883 -23.581   7.154  0.00  0.00    +0.350 C 
ATOM     18  O   LIG    1       26.216 -23.534   8.286  0.00  0.00    -0.244 OA
BRANCH  17  19
ATOM     19  O   LIG    1       26.043 -24.686   6.347  0.00  0.00    -0.460 OA
BRANCH  19  20
ATOM     20  C   LIG    1       26.186 -25.961   6.994  0.00  0.00    +0.236 C 
BRANCH  20  21
ATOM     21  C   LIG    1       25.161 -27.074   6.699  0.00  0.00    +0.026 C 
BRANCH  21  22
ATOM     22  C   LIG    1       25.056 -27.509   5.225  0.00  0.00    +0.003 C 
ATOM     23  C   LIG    1       24.419 -28.863   4.967  0.00  0.00    +0.004 C 
ENDBRANCH  21  22
BRANCH  21  24
ATOM     24  C   LIG    1       25.398 -28.301   7.603  0.00  0.00    +0.007 C 
BRANCH  24  25
ATOM     25  C   LIG    1       26.419 -28.116   8.727  0.00  0.00    +0.000 C 
BRANCH  25  27
ATOM     26  C   LIG    1       27.412 -29.621  10.533  0.00  0.00    +0.004 C 
ATOM     27  C   LIG    1       26.146 -29.050   9.908  0.00  0.00    -0.003 C 
ENDBRANCH  25  27
ENDBRANCH  24  25
ENDBRANCH  21  24
ENDBRANCH  20  21
ENDBRANCH  19  20
ENDBRANCH  17  19
ENDBRANCH   1  17
BRANCH   1  28
ATOM     28  C   LIG    1       23.813 -22.849   6.236  0.00  0.00    +0.107 C 
ATOM     29  N   LIG    1       22.707 -23.130   6.083  0.00  0.00    -0.191 NA
ENDBRANCH   1  28
TORSDOF 12
ENDMDL
MODEL 5
REMARK VINA RESULT:      -7.2      1.951      5.847
REMARK  Name = *****
REMARK                            x       y       z     vdW  Elec       q    Type
REMARK                         _______ _______ _______ _____ _____    ______ ____
ROOT
ATOM      1  C   LIG    1       25.495 -20.863   7.312  0.00  0.00    +0.144 C 
ATOM      2  C   LIG    1       26.344 -20.422   6.297  0.00  0.00    +0.014 C 
ENDROOT
BRANCH   2   3
ATOM      3  C   LIG    1       27.862 -20.210   6.449  0.00  0.00    -0.016 A 
ATOM      4  C   LIG    1       28.581 -19.203   5.760  0.00  0.00    +0.012 A 
ATOM      5  C   LIG    1       29.919 -18.859   6.038  0.00  0.00    +0.046 A 
ATOM      6  C   LIG    1       30.632 -19.597   6.961  0.00  0.00    +0.120 A 
ATOM      7  C   LIG    1       30.005 -20.686   7.532  0.00  0.00    +0.046 A 
ATOM      8  C   LIG    1       28.672 -20.980   7.268  0.00  0.00    +0.012 A 
BRANCH   6   9
ATOM      9  O   LIG    1       31.935 -19.275   7.203  0.00  0.00    -0.495 OA
ATOM     10  C   LIG    1       32.091 -18.367   8.296  0.00  0.00    +0.277 C 
ENDBRANCH   6   9
ENDBRANCH   2   3
BRANCH   2  11
ATOM     11  C   LIG    1       25.664 -20.035   4.934  0.00  0.00    -0.016 A 
ATOM     12  C   LIG    1       25.752 -18.743   4.371  0.00  0.00    +0.008 A 
ATOM     13  C   LIG    1       25.258 -18.440   3.099  0.00  0.00    +0.001 A 
ATOM     14  C   LIG    1       24.453 -19.349   2.440  0.00  0.00    +0.000 A 
ATOM     15  C   LIG    1       24.242 -20.596   3.006  0.00  0.00    +0.001 A 
ATOM     16  C   LIG    1       24.926 -20.961   4.173  0.00  0.00    +0.008 A 
ENDBRANCH   2  11
BRANCH   1  17
ATOM     17  C   LIG    1       25.743 -21.239   8.727  0.00  0.00    +0.350 C 
ATOM     18  O   LIG    1       25.862 -20.482   9.625  0.00  0.00    -0.244 OA
BRANCH  17  19
ATOM     19  O   LIG    1       25.737 -22.610   8.866  0.00  0.00    -0.460 OA
BRANCH  19  20
ATOM     20  C   LIG    1       26.214 -23.388   7.756  0.00  0.00    +0.236 C 
BRANCH  20  21
ATOM     21  C   LIG    1       25.315 -24.497   7.174  0.00  0.00    +0.026 C 
BRANCH  21  22
ATOM     22  C   LIG    1       24.224 -24.024   6.195  0.00  0.00    +0.003 C 
ATOM     23  C   LIG    1       22.796 -24.064   6.709  0.00  0.00    +0.004 C 
ENDBRANCH  21  22
BRANCH  21  24
ATOM     24  C   LIG    1       26.160 -25.618   6.532  0.00  0.00    +0.007 C 
BRANCH  24  25
ATOM     25  C   LIG    1       25.727 -27.049   6.854  0.00  0.00    +0.000 C 
BRANCH  25  27
ATOM     26  C   LIG    1       24.788 -29.066   5.604  0.00  0.00    +0.004 C 
ATOM     27  C   LIG    1       24.684 -27.569   5.861  0.00  0.00    -0.003 C 
ENDBRANCH  25  27
ENDBRANCH  24  25
ENDBRANCH  21  24
ENDBRANCH  20  21
ENDBRANCH  19  20
ENDBRANCH  17  19
ENDBRANCH   1  17
BRANCH   1  28
ATOM     28  C   LIG    1       24.115 -20.798   7.047  0.00  0.00    +0.107 C 
ATOM     29  N   LIG    1       22.986 -20.744   6.831  0.00  0.00    -0.191 NA
ENDBRANCH   1  28
TORSDOF 12
ENDMDL
MODEL 6
REMARK VINA RESULT:      -6.8      4.610      7.548
REMARK  Name = *****
REMARK                            x       y       z     vdW  Elec       q    Type
REMARK                         _______ _______ _______ _____ _____    ______ ____
ROOT
ATOM      1  C   LIG    1       25.096 -28.563   6.758  0.00  0.00    +0.144 C 
ATOM      2  C   LIG    1       25.211 -29.528   7.758  0.00  0.00    +0.014 C 
ENDROOT
BRANCH   2   3
ATOM      3  C   LIG    1       25.543 -29.234   9.234  0.00  0.00    -0.016 A 
ATOM      4  C   LIG    1       26.685 -28.506   9.645  0.00  0.00    +0.012 A 
ATOM      5  C   LIG    1       26.898 -28.048  10.961  0.00  0.00    +0.046 A 
ATOM      6  C   LIG    1       26.008 -28.403  11.954  0.00  0.00    +0.120 A 
ATOM      7  C   LIG    1       24.970 -29.246  11.613  0.00  0.00    +0.046 A 
ATOM      8  C   LIG    1       24.763 -29.651  10.299  0.00  0.00    +0.012 A 
BRANCH   6   9
ATOM      9  O   LIG    1       26.237 -27.980  13.230  0.00  0.00    -0.495 OA
ATOM     10  C   LIG    1       26.743 -26.644  13.292  0.00  0.00    +0.277 C 
ENDBRANCH   6   9
ENDBRANCH   2   3
BRANCH   2  11
ATOM     11  C   LIG    1       25.073 -31.027   7.305  0.00  0.00    -0.016 A 
ATOM     12  C   LIG    1       26.181 -31.831   6.961  0.00  0.00    +0.008 A 
ATOM     13  C   LIG    1       26.066 -33.196   6.685  0.00  0.00    +0.001 A 
ATOM     14  C   LIG    1       24.815 -33.759   6.513  0.00  0.00    +0.000 A 
ATOM     15  C   LIG    1       23.691 -32.980   6.730  0.00  0.00    +0.001 A 
ATOM     16  C   LIG    1       23.826 -31.675   7.221  0.00  0.00    +0.008 A 
ENDBRANCH   2  11
BRANCH   1  17
ATOM     17  C   LIG    1       25.238 -27.086   6.777  0.00  0.00    +0.350 C 
ATOM     18  O   LIG    1       26.251 -26.497   6.925  0.00  0.00    -0.244 OA
BRANCH  17  19
ATOM     19  O   LIG    1       24.026 -26.484   6.518  0.00  0.00    -0.460 OA
BRANCH  19  20
ATOM     20  C   LIG    1       24.052 -25.184   5.906  0.00  0.00    +0.236 C 
BRANCH  20  21
ATOM     21  C   LIG    1       24.135 -23.933   6.804  0.00  0.00    +0.026 C 
BRANCH  21  22
ATOM     22  C   LIG    1       25.380 -23.050   6.601  0.00  0.00    +0.003 C 
ATOM     23  C   LIG    1       26.147 -22.669   7.855  0.00  0.00    +0.004 C 
ENDBRANCH  21  22
BRANCH  21  24
ATOM     24  C   LIG    1       22.852 -23.082   6.691  0.00  0.00    +0.007 C 
BRANCH  24  25
ATOM     25  C   LIG    1       23.062 -21.571   6.568  0.00  0.00    +0.000 C 
BRANCH  25  27
ATOM     26  C   LIG    1       22.577 -19.499   5.160  0.00  0.00    +0.004 C 
ATOM     27  C   LIG    1       22.440 -21.010   5.286  0.00  0.00    -0.003 C 
ENDBRANCH  25  27
ENDBRANCH  24  25
ENDBRANCH  21  24
ENDBRANCH  20  21
ENDBRANCH  19  20
ENDBRANCH  17  19
ENDBRANCH   1  17
BRANCH   1  28
ATOM     28  C   LIG    1       24.993 -29.038   5.439  0.00  0.00    +0.107 C 
ATOM     29  N   LIG    1       24.908 -29.426   4.358  0.00  0.00    -0.191 NA
ENDBRANCH   1  28
TORSDOF 12
ENDMDL
MODEL 7
REMARK VINA RESULT:      -6.7      5.856     10.140
REMARK  Name = *****
REMARK                            x       y       z     vdW  Elec       q    Type
REMARK                         _______ _______ _______ _____ _____    ______ ____
ROOT
ATOM      1  C   LIG    1       24.229 -31.190   8.443  0.00  0.00    +0.144 C 
ATOM      2  C   LIG    1       25.004 -30.643   7.422  0.00  0.00    +0.014 C 
ENDROOT
BRANCH   2   3
ATOM      3  C   LIG    1       24.999 -29.158   7.010  0.00  0.00    -0.016 A 
ATOM      4  C   LIG    1       25.814 -28.176   7.624  0.00  0.00    +0.012 A 
ATOM      5  C   LIG    1       25.979 -26.867   7.131  0.00  0.00    +0.046 A 
ATOM      6  C   LIG    1       25.236 -26.453   6.044  0.00  0.00    +0.120 A 
ATOM      7  C   LIG    1       24.316 -27.338   5.523  0.00  0.00    +0.046 A 
ATOM      8  C   LIG    1       24.201 -28.637   6.005  0.00  0.00    +0.012 A 
BRANCH   6   9
ATOM      9  O   LIG    1       25.381 -25.175   5.591  0.00  0.00    -0.495 OA
ATOM     10  C   LIG    1       25.786 -24.263   6.616  0.00  0.00    +0.277 C 
ENDBRANCH   6   9
ENDBRANCH   2   3
BRANCH   2  11
ATOM     11  C   LIG    1       25.874 -31.650   6.585  0.00  0.00    -0.016 A 
ATOM     12  C   LIG    1       25.536 -32.053   5.275  0.00  0.00    +0.008 A 
ATOM     13  C   LIG    1       26.377 -32.845   4.489  0.00  0.00    +0.001 A 
ATOM     14  C   LIG    1       27.477 -33.457   5.061  0.00  0.00    +0.000 A 
ATOM     15  C   LIG    1       27.789 -33.182   6.382  0.00  0.00    +0.001 A 
ATOM     16  C   LIG    1       27.062 -32.214   7.087  0.00  0.00    +0.008 A 
ENDBRANCH   2  11
BRANCH   1  17
ATOM     17  C   LIG    1       23.244 -30.590   9.379  0.00  0.00    +0.350 C 
ATOM     18  O   LIG    1       22.139 -30.971   9.547  0.00  0.00    -0.244 OA
BRANCH  17  19
ATOM     19  O   LIG    1       23.825 -29.564  10.091  0.00  0.00    -0.460 OA
BRANCH  19  20
ATOM     20  C   LIG    1       24.121 -29.807  11.477  0.00  0.00    +0.236 C 
BRANCH  20  21
ATOM     21  C   LIG    1       25.239 -28.994  12.160  0.00  0.00    +0.026 C 
BRANCH  21  22
ATOM     22  C   LIG    1       26.366 -28.502  11.233  0.00  0.00    +0.003 C 
ATOM     23  C   LIG    1       27.298 -29.568  10.685  0.00  0.00    +0.004 C 
ENDBRANCH  21  22
BRANCH  21  24
ATOM     24  C   LIG    1       24.654 -27.813  12.964  0.00  0.00    +0.007 C 
BRANCH  24  25
ATOM     25  C   LIG    1       23.188 -27.949  13.381  0.00  0.00    +0.000 C 
BRANCH  25  27
ATOM     26  C   LIG    1       20.925 -26.813  13.070  0.00  0.00    +0.004 C 
ATOM     27  C   LIG    1       22.427 -26.629  13.235  0.00  0.00    -0.003 C 
ENDBRANCH  25  27
ENDBRANCH  24  25
ENDBRANCH  21  24
ENDBRANCH  20  21
ENDBRANCH  19  20
ENDBRANCH  17  19
ENDBRANCH   1  17
BRANCH   1  28
ATOM     28  C   LIG    1       24.213 -32.593   8.535  0.00  0.00    +0.107 C 
ATOM     29  N   LIG    1       24.201 -33.742   8.609  0.00  0.00    -0.191 NA
ENDBRANCH   1  28
TORSDOF 12
ENDMDL
MODEL 8
REMARK VINA RESULT:      -6.5      5.639      9.771
REMARK  Name = *****
REMARK                            x       y       z     vdW  Elec       q    Type
REMARK                         _______ _______ _______ _____ _____    ______ ____
ROOT
ATOM      1  C   LIG    1       25.970 -30.044   8.849  0.00  0.00    +0.144 C 
ATOM      2  C   LIG    1       25.509 -29.752   7.565  0.00  0.00    +0.014 C 
ENDROOT
BRANCH   2   3
ATOM      3  C   LIG    1       25.283 -28.332   7.011  0.00  0.00    -0.016 A 
ATOM      4  C   LIG    1       26.078 -27.218   7.374  0.00  0.00    +0.012 A 
ATOM      5  C   LIG    1       26.024 -25.967   6.729  0.00  0.00    +0.046 A 
ATOM      6  C   LIG    1       25.078 -25.750   5.748  0.00  0.00    +0.120 A 
ATOM      7  C   LIG    1       24.184 -26.768   5.484  0.00  0.00    +0.046 A 
ATOM      8  C   LIG    1       24.285 -28.005   6.109  0.00  0.00    +0.012 A 
BRANCH   6   9
ATOM      9  O   LIG    1       25.013 -24.527   5.148  0.00  0.00    -0.495 OA
ATOM     10  C   LIG    1       25.241 -23.448   6.059  0.00  0.00    +0.277 C 
ENDBRANCH   6   9
ENDBRANCH   2   3
BRANCH   2  11
ATOM     11  C   LIG    1       25.116 -30.980   6.666  0.00  0.00    -0.016 A 
ATOM     12  C   LIG    1       23.847 -31.597   6.720  0.00  0.00    +0.008 A 
ATOM     13  C   LIG    1       23.459 -32.602   5.829  0.00  0.00    +0.001 A 
ATOM     14  C   LIG    1       24.400 -33.191   5.005  0.00  0.00    +0.000 A 
ATOM     15  C   LIG    1       25.693 -32.694   4.997  0.00  0.00    +0.001 A 
ATOM     16  C   LIG    1       26.007 -31.544   5.733  0.00  0.00    +0.008 A 
ENDBRANCH   2  11
BRANCH   1  17
ATOM     17  C   LIG    1       26.357 -29.177   9.990  0.00  0.00    +0.350 C 
ATOM     18  O   LIG    1       27.412 -28.666  10.135  0.00  0.00    -0.244 OA
BRANCH  17  19
ATOM     19  O   LIG    1       25.282 -28.984  10.831  0.00  0.00    -0.460 OA
BRANCH  19  20
ATOM     20  C   LIG    1       25.527 -29.060  12.245  0.00  0.00    +0.236 C 
BRANCH  20  21
ATOM     21  C   LIG    1       24.810 -28.073  13.187  0.00  0.00    +0.026 C 
BRANCH  21  22
ATOM     22  C   LIG    1       25.395 -26.649  13.228  0.00  0.00    +0.003 C 
ATOM     23  C   LIG    1       26.854 -26.509  12.831  0.00  0.00    +0.004 C 
ENDBRANCH  21  22
BRANCH  21  24
ATOM     24  C   LIG    1       23.297 -28.020  12.888  0.00  0.00    +0.007 C 
BRANCH  24  25
ATOM     25  C   LIG    1       22.591 -26.710  13.241  0.00  0.00    +0.000 C 
BRANCH  25  27
ATOM     26  C   LIG    1       20.579 -28.279  13.193  0.00  0.00    +0.004 C 
ATOM     27  C   LIG    1       21.068 -26.838  13.148  0.00  0.00    -0.003 C 
ENDBRANCH  25  27
ENDBRANCH  24  25
ENDBRANCH  21  24
ENDBRANCH  20  21
ENDBRANCH  19  20
ENDBRANCH  17  19
ENDBRANCH   1  17
BRANCH   1  28
ATOM     28  C   LIG    1       25.916 -31.393   9.242  0.00  0.00    +0.107 C 
ATOM     29  N   LIG    1       25.872 -32.497   9.565  0.00  0.00    -0.191 NA
ENDBRANCH   1  28
TORSDOF 12
ENDMDL
MODEL 9
REMARK VINA RESULT:      -6.5      2.662      7.061
REMARK  Name = *****
REMARK                            x       y       z     vdW  Elec       q    Type
REMARK                         _______ _______ _______ _____ _____    ______ ____
ROOT
ATOM      1  C   LIG    1       26.841 -21.004   6.526  0.00  0.00    +0.144 C 
ATOM      2  C   LIG    1       25.654 -21.585   6.081  0.00  0.00    +0.014 C 
ENDROOT
BRANCH   2   3
ATOM      3  C   LIG    1       25.229 -23.041   6.351  0.00  0.00    -0.016 A 
ATOM      4  C   LIG    1       23.880 -23.445   6.491  0.00  0.00    +0.012 A 
ATOM      5  C   LIG    1       23.459 -24.790   6.530  0.00  0.00    +0.046 A 
ATOM      6  C   LIG    1       24.404 -25.796   6.538  0.00  0.00    +0.120 A 
ATOM      7  C   LIG    1       25.733 -25.426   6.563  0.00  0.00    +0.046 A 
ATOM      8  C   LIG    1       26.119 -24.093   6.486  0.00  0.00    +0.012 A 
BRANCH   6   9
ATOM      9  O   LIG    1       23.989 -27.093   6.604  0.00  0.00    -0.495 OA
ATOM     10  C   LIG    1       24.496 -27.896   5.535  0.00  0.00    +0.277 C 
ENDBRANCH   6   9
ENDBRANCH   2   3
BRANCH   2  11
ATOM     11  C   LIG    1       24.740 -20.695   5.163  0.00  0.00    -0.016 A 
ATOM     12  C   LIG    1       25.068 -20.379   3.826  0.00  0.00    +0.008 A 
ATOM     13  C   LIG    1       24.193 -19.698   2.976  0.00  0.00    +0.001 A 
ATOM     14  C   LIG    1       23.058 -19.102   3.492  0.00  0.00    +0.000 A 
ATOM     15  C   LIG    1       22.749 -19.288   4.829  0.00  0.00    +0.001 A 
ATOM     16  C   LIG    1       23.520 -20.156   5.613  0.00  0.00    +0.008 A 
ENDBRANCH   2  11
BRANCH   1  17
ATOM     17  C   LIG    1       27.972 -21.536   7.328  0.00  0.00    +0.350 C 
ATOM     18  O   LIG    1       27.884 -22.016   8.403  0.00  0.00    -0.244 OA
BRANCH  17  19
ATOM     19  O   LIG    1       29.144 -21.466   6.607  0.00  0.00    -0.460 OA
BRANCH  19  20
ATOM     20  C   LIG    1       30.004 -20.341   6.853  0.00  0.00    +0.236 C 
BRANCH  20  21
ATOM     21  C   LIG    1       30.208 -19.854   8.302  0.00  0.00    +0.026 C 
BRANCH  21  22
ATOM     22  C   LIG    1       31.350 -20.535   9.078  0.00  0.00    +0.003 C 
ATOM     23  C   LIG    1       31.281 -22.049   9.187  0.00  0.00    +0.004 C 
ENDBRANCH  21  22
BRANCH  21  24
ATOM     24  C   LIG    1       30.367 -18.320   8.354  0.00  0.00    +0.007 C 
BRANCH  24  25
ATOM     25  C   LIG    1       31.760 -17.805   8.725  0.00  0.00    +0.000 C 
BRANCH  25  27
ATOM     26  C   LIG    1       30.468 -17.156  10.829  0.00  0.00    +0.004 C 
ATOM     27  C   LIG    1       31.737 -16.969  10.008  0.00  0.00    -0.003 C 
ENDBRANCH  25  27
ENDBRANCH  24  25
ENDBRANCH  21  24
ENDBRANCH  20  21
ENDBRANCH  19  20
ENDBRANCH  17  19
ENDBRANCH   1  17
BRANCH   1  28
ATOM     28  C   LIG    1       27.151 -19.734   6.008  0.00  0.00    +0.107 C 
ATOM     29  N   LIG    1       27.404 -18.694   5.585  0.00  0.00    -0.191 NA
ENDBRANCH   1  28
TORSDOF 12
ENDMDL
