MODEL 1
REMARK VINA RESULT:       8.7      0.000      0.000
REMARK  Name = *****
REMARK                            x       y       z     vdW  Elec       q    Type
REMARK                         _______ _______ _______ _____ _____    ______ ____
ROOT
ATOM      1  C   LIG    1       27.422 -14.669   3.563  0.00  0.00    +0.005 C 
ATOM      2  C   LIG    1       26.329 -15.547   4.251  0.00  0.00    +0.033 C 
ATOM      3  C   LIG    1       25.497 -14.760   5.288  0.00  0.00    +0.019 C 
ATOM      4  C   LIG    1       27.156 -16.632   5.012  0.00  0.00    +0.013 C 
ATOM      5  C   LIG    1       27.559 -17.872   4.189  0.00  0.00    +0.063 C 
ATOM      6  C   LIG    1       26.418 -18.477   3.356  0.00  0.00    +0.013 C 
ATOM      7  C   LIG    1       25.848 -17.389   2.446  0.00  0.00    +0.079 C 
ATOM      8  C   LIG    1       25.366 -19.376   4.138  0.00  0.00    -0.024 C 
ATOM      9  C   LIG    1       25.195 -20.667   3.286  0.00  0.00    +0.012 C 
ATOM     10  C   LIG    1       25.858 -19.696   5.578  0.00  0.00    +0.009 C 
ATOM     11  C   LIG    1       25.003 -20.761   6.270  0.00  0.00    +0.079 C 
ATOM     12  C   LIG    1       23.526 -20.428   6.234  0.00  0.00    +0.134 C 
ATOM     13  O   LIG    1       22.763 -20.932   7.062  0.00  0.00    -0.297 OA
ATOM     14  C   LIG    1       22.964 -19.623   5.078  0.00  0.00    +0.075 C 
ATOM     15  C   LIG    1       27.339 -20.050   5.633  0.00  0.00    +0.079 C 
ATOM     16  C   LIG    1       23.969 -18.737   4.336  0.00  0.00    +0.015 C 
ATOM     17  C   LIG    1       28.207 -18.965   5.038  0.00  0.00    +0.137 C 
ATOM     18  O   LIG    1       29.426 -18.981   5.222  0.00  0.00    -0.297 OA
ATOM     19  C   LIG    1       28.398 -15.870   5.499  0.00  0.00    +0.005 C 
ATOM     20  C   LIG    1       25.372 -16.189   3.232  0.00  0.00    +0.140 C 
ATOM     21  O   LIG    1       24.251 -15.730   3.005  0.00  0.00    -0.297 OA
ATOM     22  C   LIG    1       28.593 -14.683   4.566  0.00  0.00    +0.005 C 
ENDROOT
BRANCH   1  24
ATOM     23  C   LIG    1       26.766 -12.292   4.349  0.00  0.00    +0.008 C 
ATOM     24  C   LIG    1       27.060 -13.203   3.155  0.00  0.00    -0.010 C 
BRANCH  24  25
ATOM     25  C   LIG    1       25.884 -13.115   2.141  0.00  0.00    +0.015 C 
BRANCH  25  26
ATOM     26  C   LIG    1       24.994 -11.883   2.288  0.00  0.00    +0.121 C 
BRANCH  26  27
ATOM     27  C   LIG    1       23.833 -12.167   3.205  0.00  0.00    +0.305 C 
ATOM     28  O   LIG    1       23.514 -11.447   4.142  0.00  0.00    -0.251 OA
BRANCH  27  29
ATOM     29  O   LIG    1       23.183 -13.316   2.919  0.00  0.00    -0.481 OA
ATOM     30  H   LIG    1       22.618 -13.648   3.640  0.00  0.00    +0.295 HD
ENDBRANCH  27  29
ENDBRANCH  26  27
ENDBRANCH  25  26
ENDBRANCH  24  25
ENDBRANCH   1  24
TORSDOF 5
ENDMDL
