MODEL 1
REMARK VINA RESULT:      20.9      0.000      0.000
REMARK  Name = *****
REMARK                            x       y       z     vdW  Elec       q    Type
REMARK                         _______ _______ _______ _____ _____    ______ ____
ROOT
ATOM      1  N   LIG    1       28.388 -15.400   4.119  0.00  0.00    -0.311 N 
ATOM      2  C   LIG    1       27.043 -16.028   4.069  0.00  0.00    +0.125 C 
ATOM      3  C   LIG    1       27.144 -17.511   3.640  0.00  0.00    +0.127 C 
ATOM      4  N   LIG    1       28.068 -18.269   4.490  0.00  0.00    -0.293 N 
ATOM      5  C   LIG    1       27.669 -19.096   5.548  0.00  0.00    +0.263 C 
ATOM      6  O   LIG    1       28.411 -19.320   6.505  0.00  0.00    -0.268 OA
ATOM      7  C   LIG    1       29.406 -17.662   4.501  0.00  0.00    +0.127 C 
ATOM      8  C   LIG    1       29.333 -16.193   4.969  0.00  0.00    +0.125 C 
ENDROOT
BRANCH   5   9
ATOM      9  C   LIG    1       26.342 -19.698   5.492  0.00  0.00    +0.103 C 
ATOM     10  N   LIG    1       25.698 -20.216   6.601  0.00  0.00    -0.351 NA
ATOM     11  H   LIG    1       26.088 -20.207   7.535  0.00  0.00    +0.166 HD
ATOM     12  C   LIG    1       24.440 -20.677   6.273  0.00  0.00    +0.047 C 
ATOM     13  C   LIG    1       24.274 -20.459   4.908  0.00  0.00    +0.002 C 
ATOM     14  C   LIG    1       23.042 -20.762   4.298  0.00  0.00    +0.034 C 
ATOM     15  C   LIG    1       22.017 -21.298   5.079  0.00  0.00    +0.048 C 
ATOM     16  C   LIG    1       22.220 -21.565   6.433  0.00  0.00    +0.026 C 
ATOM     17  C   LIG    1       23.438 -21.262   7.058  0.00  0.00    +0.028 C 
ATOM     18  C   LIG    1       25.498 -19.943   4.422  0.00  0.00    +0.041 C 
BRANCH  15  19
ATOM     19  N   LIG    1       20.729 -21.507   4.497  0.00  0.00    -0.221 NA
ATOM     20  H   LIG    1       20.658 -22.347   3.917  0.00  0.00    +0.173 HD
BRANCH  19  21
ATOM     21  S   LIG    1       20.049 -20.219   3.624  0.00  0.00    +0.040 S 
ATOM     22  O   LIG    1       19.354 -19.415   4.595  0.00  0.00    -0.155 OA
ATOM     23  O   LIG    1       19.366 -20.723   2.442  0.00  0.00    -0.155 OA
ATOM     24  C   LIG    1       21.502 -19.326   3.119  0.00  0.00    +0.218 C 
ENDBRANCH  19  21
ENDBRANCH  15  19
ENDBRANCH   5   9
BRANCH   1  26
ATOM     25  C   LIG    1       27.614 -13.044   3.896  0.00  0.00    +0.068 A 
ATOM     26  C   LIG    1       28.269 -14.070   4.648  0.00  0.00    +0.142 A 
ATOM     27  N   LIG    1       28.854 -13.816   5.850  0.00  0.00    -0.238 NA
ATOM     28  C   LIG    1       28.819 -12.563   6.339  0.00  0.00    +0.113 A 
ATOM     29  C   LIG    1       28.220 -11.509   5.690  0.00  0.00    +0.022 A 
ATOM     30  C   LIG    1       27.606 -11.760   4.468  0.00  0.00    +0.028 A 
BRANCH  25  31
ATOM     31  N   LIG    1       26.955 -13.324   2.681  0.00  0.00    -0.339 N 
ATOM     32  H   LIG    1       27.492 -12.903   1.920  0.00  0.00    +0.146 HD
BRANCH  31  34
ATOM     33  C   LIG    1       24.812 -13.463   3.887  0.00  0.00    +0.027 C 
ATOM     34  C   LIG    1       25.496 -13.237   2.542  0.00  0.00    +0.064 C 
ATOM     35  C   LIG    1       25.097 -11.868   1.991  0.00  0.00    +0.027 C 
ENDBRANCH  31  34
ENDBRANCH  25  31
ENDBRANCH   1  26
TORSDOF 6
ENDMDL
