MODEL 1
REMARK VINA RESULT:      -4.3      0.000      0.000
REMARK  Name = *****
REMARK                            x       y       z     vdW  Elec       q    Type
REMARK                         _______ _______ _______ _____ _____    ______ ____
ROOT
ATOM      1  C   LIG    1       24.628 -18.195   3.355  0.00  0.00    +0.119 C 
ATOM      2  N   LIG    1       24.324 -16.788   3.689  0.00  0.00    -0.330 N 
ATOM      3  H   LIG    1       23.511 -16.375   3.229  0.00  0.00    +0.147 HD
ATOM      4  C   LIG    1       25.380 -15.856   3.664  0.00  0.00    +0.133 A 
ATOM      5  C   LIG    1       26.688 -16.210   3.608  0.00  0.00    +0.126 A 
ATOM      6  N   LIG    1       27.638 -15.228   3.606  0.00  0.00    -0.315 N 
ATOM      7  H   LIG    1       28.530 -15.492   3.215  0.00  0.00    +0.170 HD
ATOM      8  C   LIG    1       27.291 -13.918   3.566  0.00  0.00    +0.195 A 
ATOM      9  N   LIG    1       26.087 -13.460   3.595  0.00  0.00    -0.176 NA
ATOM     10  N   LIG    1       27.046 -17.553   3.533  0.00  0.00    -0.327 N 
ATOM     11  H   LIG    1       27.968 -17.730   3.922  0.00  0.00    +0.147 HD
ATOM     12  C   LIG    1       25.051 -14.370   3.642  0.00  0.00    +0.297 A 
ATOM     13  O   LIG    1       23.866 -14.036   3.634  0.00  0.00    -0.264 OA
ATOM     14  C   LIG    1       26.046 -18.585   3.874  0.00  0.00    +0.128 C 
ENDROOT
BRANCH   8  15
ATOM     15  N   LIG    1       28.355 -13.080   3.504  0.00  0.00    -0.329 N 
ATOM     16  H   LIG    1       28.038 -12.116   3.431  0.00  0.00    +0.145 HD
ATOM     17  H   LIG    1       29.002 -13.183   4.276  0.00  0.00    +0.145 HD
ENDBRANCH   8  15
BRANCH   1  18
ATOM     18  C   LIG    1       23.530 -19.149   3.879  0.00  0.00    +0.164 C 
BRANCH  18  20
ATOM     19  C   LIG    1       23.146 -20.422   6.119  0.00  0.00    +0.040 C 
ATOM     20  C   LIG    1       23.962 -20.281   4.841  0.00  0.00    +0.142 C 
BRANCH  20  21
ATOM     21  O   LIG    1       23.838 -21.525   4.131  0.00  0.00    -0.389 OA
ATOM     22  H   LIG    1       24.105 -22.223   4.762  0.00  0.00    +0.210 HD
ENDBRANCH  20  21
ENDBRANCH  18  20
BRANCH  18  23
ATOM     23  O   LIG    1       22.464 -18.398   4.494  0.00  0.00    -0.387 OA
ATOM     24  H   LIG    1       21.860 -18.129   3.777  0.00  0.00    +0.210 HD
ENDBRANCH  18  23
ENDBRANCH   1  18
TORSDOF 5
ENDMDL
MODEL 2
REMARK VINA RESULT:      -3.2      2.052      5.694
REMARK  Name = *****
REMARK                            x       y       z     vdW  Elec       q    Type
REMARK                         _______ _______ _______ _____ _____    ______ ____
ROOT
ATOM      1  C   LIG    1       25.573 -15.316   3.686  0.00  0.00    +0.119 C 
ATOM      2  N   LIG    1       24.392 -16.199   3.606  0.00  0.00    -0.330 N 
ATOM      3  H   LIG    1       23.564 -15.902   4.126  0.00  0.00    +0.147 HD
ATOM      4  C   LIG    1       24.579 -17.580   3.805  0.00  0.00    +0.133 A 
ATOM      5  C   LIG    1       25.797 -18.176   3.808  0.00  0.00    +0.126 A 
ATOM      6  N   LIG    1       25.872 -19.528   3.993  0.00  0.00    -0.315 N 
ATOM      7  H   LIG    1       26.757 -19.868   4.338  0.00  0.00    +0.170 HD
ATOM      8  C   LIG    1       24.762 -20.259   4.263  0.00  0.00    +0.195 A 
ATOM      9  N   LIG    1       23.557 -19.805   4.307  0.00  0.00    -0.176 NA
ATOM     10  N   LIG    1       26.950 -17.412   3.645  0.00  0.00    -0.327 N 
ATOM     11  H   LIG    1       27.713 -17.944   3.238  0.00  0.00    +0.147 HD
ATOM     12  C   LIG    1       23.367 -18.456   4.090  0.00  0.00    +0.297 A 
ATOM     13  O   LIG    1       22.261 -17.918   4.148  0.00  0.00    -0.264 OA
ATOM     14  C   LIG    1       26.833 -16.038   3.117  0.00  0.00    +0.128 C 
ENDROOT
BRANCH   8  15
ATOM     15  N   LIG    1       25.022 -21.571   4.483  0.00  0.00    -0.329 N 
ATOM     16  H   LIG    1       24.701 -21.842   5.409  0.00  0.00    +0.145 HD
ATOM     17  H   LIG    1       24.633 -22.188   3.780  0.00  0.00    +0.145 HD
ENDBRANCH   8  15
BRANCH   1  18
ATOM     18  C   LIG    1       25.313 -13.960   2.991  0.00  0.00    +0.164 C 
BRANCH  18  20
ATOM     19  C   LIG    1       24.209 -12.378   4.742  0.00  0.00    +0.040 C 
ATOM     20  C   LIG    1       24.071 -13.152   3.437  0.00  0.00    +0.142 C 
BRANCH  20  21
ATOM     21  O   LIG    1       23.789 -12.186   2.410  0.00  0.00    -0.389 OA
ATOM     22  H   LIG    1       23.130 -11.573   2.792  0.00  0.00    +0.210 HD
ENDBRANCH  20  21
ENDBRANCH  18  20
BRANCH  18  23
ATOM     23  O   LIG    1       26.477 -13.114   3.088  0.00  0.00    -0.387 OA
ATOM     24  H   LIG    1       26.908 -13.128   2.213  0.00  0.00    +0.210 HD
ENDBRANCH  18  23
ENDBRANCH   1  18
TORSDOF 5
ENDMDL
MODEL 3
REMARK VINA RESULT:      -3.2      2.093      5.596
REMARK  Name = *****
REMARK                            x       y       z     vdW  Elec       q    Type
REMARK                         _______ _______ _______ _____ _____    ______ ____
ROOT
ATOM      1  C   LIG    1       25.937 -14.611   3.436  0.00  0.00    +0.119 C 
ATOM      2  N   LIG    1       25.415 -15.966   3.162  0.00  0.00    -0.330 N 
ATOM      3  H   LIG    1       24.419 -16.116   3.334  0.00  0.00    +0.147 HD
ATOM      4  C   LIG    1       26.131 -17.069   3.665  0.00  0.00    +0.133 A 
ATOM      5  C   LIG    1       27.392 -16.980   4.157  0.00  0.00    +0.126 A 
ATOM      6  N   LIG    1       28.008 -18.114   4.607  0.00  0.00    -0.315 N 
ATOM      7  H   LIG    1       28.757 -17.966   5.267  0.00  0.00    +0.170 HD
ATOM      8  C   LIG    1       27.347 -19.298   4.653  0.00  0.00    +0.195 A 
ATOM      9  N   LIG    1       26.146 -19.502   4.235  0.00  0.00    -0.176 NA
ATOM     10  N   LIG    1       28.033 -15.745   4.219  0.00  0.00    -0.327 N 
ATOM     11  H   LIG    1       29.044 -15.832   4.176  0.00  0.00    +0.147 HD
ATOM     12  C   LIG    1       25.449 -18.429   3.720  0.00  0.00    +0.297 A 
ATOM     13  O   LIG    1       24.284 -18.512   3.330  0.00  0.00    -0.264 OA
ATOM     14  C   LIG    1       27.496 -14.617   3.432  0.00  0.00    +0.128 C 
ENDROOT
BRANCH   8  15
ATOM     15  N   LIG    1       28.083 -20.304   5.185  0.00  0.00    -0.329 N 
ATOM     16  H   LIG    1       29.072 -20.148   5.007  0.00  0.00    +0.145 HD
ATOM     17  H   LIG    1       27.920 -20.451   6.174  0.00  0.00    +0.145 HD
ENDBRANCH   8  15
BRANCH   1  18
ATOM     18  C   LIG    1       25.353 -13.571   2.453  0.00  0.00    +0.164 C 
BRANCH  18  20
ATOM     19  C   LIG    1       24.005 -12.311   4.291  0.00  0.00    +0.040 C 
ATOM     20  C   LIG    1       24.050 -12.846   2.866  0.00  0.00    +0.142 C 
BRANCH  20  21
ATOM     21  O   LIG    1       23.888 -11.715   1.993  0.00  0.00    -0.389 OA
ATOM     22  H   LIG    1       24.144 -10.931   2.518  0.00  0.00    +0.210 HD
ENDBRANCH  20  21
ENDBRANCH  18  20
BRANCH  18  23
ATOM     23  O   LIG    1       26.348 -12.583   2.116  0.00  0.00    -0.387 OA
ATOM     24  H   LIG    1       27.099 -13.065   1.723  0.00  0.00    +0.210 HD
ENDBRANCH  18  23
ENDBRANCH   1  18
TORSDOF 5
ENDMDL
MODEL 4
REMARK VINA RESULT:      -3.1      2.171      5.692
REMARK  Name = *****
REMARK                            x       y       z     vdW  Elec       q    Type
REMARK                         _______ _______ _______ _____ _____    ______ ____
ROOT
ATOM      1  C   LIG    1       25.351 -15.307   3.745  0.00  0.00    +0.119 C 
ATOM      2  N   LIG    1       24.121 -16.124   3.767  0.00  0.00    -0.330 N 
ATOM      3  H   LIG    1       23.388 -15.829   4.416  0.00  0.00    +0.147 HD
ATOM      4  C   LIG    1       24.252 -17.524   3.843  0.00  0.00    +0.133 A 
ATOM      5  C   LIG    1       25.424 -18.176   3.637  0.00  0.00    +0.126 A 
ATOM      6  N   LIG    1       25.444 -19.540   3.716  0.00  0.00    -0.315 N 
ATOM      7  H   LIG    1       26.346 -19.948   3.912  0.00  0.00    +0.170 HD
ATOM      8  C   LIG    1       24.340 -20.236   4.085  0.00  0.00    +0.195 A 
ATOM      9  N   LIG    1       23.180 -19.729   4.325  0.00  0.00    -0.176 NA
ATOM     10  N   LIG    1       26.587 -17.457   3.371  0.00  0.00    -0.327 N 
ATOM     11  H   LIG    1       27.256 -17.993   2.827  0.00  0.00    +0.147 HD
ATOM     12  C   LIG    1       23.041 -18.359   4.230  0.00  0.00    +0.297 A 
ATOM     13  O   LIG    1       21.985 -17.775   4.476  0.00  0.00    -0.264 OA
ATOM     14  C   LIG    1       26.480 -16.043   2.960  0.00  0.00    +0.128 C 
ENDROOT
BRANCH   8  15
ATOM     15  N   LIG    1       24.550 -21.572   4.175  0.00  0.00    -0.329 N 
ATOM     16  H   LIG    1       25.212 -21.772   4.921  0.00  0.00    +0.145 HD
ATOM     17  H   LIG    1       23.702 -22.112   4.300  0.00  0.00    +0.145 HD
ENDBRANCH   8  15
BRANCH   1  18
ATOM     18  C   LIG    1       25.079 -13.891   3.188  0.00  0.00    +0.164 C 
BRANCH  18  20
ATOM     19  C   LIG    1       23.931 -12.170   4.771  0.00  0.00    +0.040 C 
ATOM     20  C   LIG    1       25.223 -12.697   4.162  0.00  0.00    +0.142 C 
BRANCH  20  21
ATOM     21  O   LIG    1       26.053 -13.126   5.255  0.00  0.00    -0.389 OA
ATOM     22  H   LIG    1       26.868 -13.484   4.850  0.00  0.00    +0.210 HD
ENDBRANCH  20  21
ENDBRANCH  18  20
BRANCH  18  23
ATOM     23  O   LIG    1       25.894 -13.643   2.025  0.00  0.00    -0.387 OA
ATOM     24  H   LIG    1       26.472 -12.888   2.243  0.00  0.00    +0.210 HD
ENDBRANCH  18  23
ENDBRANCH   1  18
TORSDOF 5
ENDMDL
MODEL 5
REMARK VINA RESULT:      -3.1      2.359      6.122
REMARK  Name = *****
REMARK                            x       y       z     vdW  Elec       q    Type
REMARK                         _______ _______ _______ _____ _____    ______ ____
ROOT
ATOM      1  C   LIG    1       24.980 -14.310   3.414  0.00  0.00    +0.119 C 
ATOM      2  N   LIG    1       25.492 -15.695   3.454  0.00  0.00    -0.330 N 
ATOM      3  H   LIG    1       26.071 -15.991   2.666  0.00  0.00    +0.147 HD
ATOM      4  C   LIG    1       24.589 -16.730   3.766  0.00  0.00    +0.133 A 
ATOM      5  C   LIG    1       23.353 -16.513   4.279  0.00  0.00    +0.126 A 
ATOM      6  N   LIG    1       22.557 -17.587   4.564  0.00  0.00    -0.315 N 
ATOM      7  H   LIG    1       21.567 -17.394   4.595  0.00  0.00    +0.170 HD
ATOM      8  C   LIG    1       22.949 -18.848   4.256  0.00  0.00    +0.195 A 
ATOM      9  N   LIG    1       24.087 -19.178   3.749  0.00  0.00    -0.176 NA
ATOM     10  N   LIG    1       22.901 -15.212   4.489  0.00  0.00    -0.327 N 
ATOM     11  H   LIG    1       22.212 -15.158   5.234  0.00  0.00    +0.147 HD
ATOM     12  C   LIG    1       24.983 -18.168   3.464  0.00  0.00    +0.297 A 
ATOM     13  O   LIG    1       26.080 -18.375   2.944  0.00  0.00    -0.264 OA
ATOM     14  C   LIG    1       23.878 -14.105   4.498  0.00  0.00    +0.128 C 
ENDROOT
BRANCH   8  15
ATOM     15  N   LIG    1       22.016 -19.787   4.546  0.00  0.00    -0.329 N 
ATOM     16  H   LIG    1       21.731 -19.710   5.519  0.00  0.00    +0.145 HD
ATOM     17  H   LIG    1       21.206 -19.761   3.938  0.00  0.00    +0.145 HD
ENDBRANCH   8  15
BRANCH   1  18
ATOM     18  C   LIG    1       26.125 -13.280   3.542  0.00  0.00    +0.164 C 
BRANCH  18  20
ATOM     19  C   LIG    1       28.685 -13.037   3.960  0.00  0.00    +0.040 C 
ATOM     20  C   LIG    1       27.369 -13.687   4.367  0.00  0.00    +0.142 C 
BRANCH  20  21
ATOM     21  O   LIG    1       27.125 -13.312   5.733  0.00  0.00    -0.389 OA
ATOM     22  H   LIG    1       26.155 -13.351   5.853  0.00  0.00    +0.210 HD
ENDBRANCH  20  21
ENDBRANCH  18  20
BRANCH  18  23
ATOM     23  O   LIG    1       26.557 -12.844   2.236  0.00  0.00    -0.387 OA
ATOM     24  H   LIG    1       25.803 -12.374   1.834  0.00  0.00    +0.210 HD
ENDBRANCH  18  23
ENDBRANCH   1  18
TORSDOF 5
ENDMDL
MODEL 6
REMARK VINA RESULT:      -3.1      2.477      6.346
REMARK  Name = *****
REMARK                            x       y       z     vdW  Elec       q    Type
REMARK                         _______ _______ _______ _____ _____    ______ ____
ROOT
ATOM      1  C   LIG    1       24.576 -15.876   3.484  0.00  0.00    +0.119 C 
ATOM      2  N   LIG    1       25.113 -17.242   3.650  0.00  0.00    -0.330 N 
ATOM      3  H   LIG    1       25.747 -17.576   2.922  0.00  0.00    +0.147 HD
ATOM      4  C   LIG    1       24.213 -18.276   3.973  0.00  0.00    +0.133 A 
ATOM      5  C   LIG    1       22.942 -18.056   4.391  0.00  0.00    +0.126 A 
ATOM      6  N   LIG    1       22.152 -19.128   4.698  0.00  0.00    -0.315 N 
ATOM      7  H   LIG    1       21.158 -18.958   4.653  0.00  0.00    +0.170 HD
ATOM      8  C   LIG    1       22.588 -20.397   4.502  0.00  0.00    +0.195 A 
ATOM      9  N   LIG    1       23.763 -20.731   4.092  0.00  0.00    -0.176 NA
ATOM     10  N   LIG    1       22.451 -16.756   4.484  0.00  0.00    -0.327 N 
ATOM     11  H   LIG    1       21.714 -16.669   5.178  0.00  0.00    +0.147 HD
ATOM     12  C   LIG    1       24.655 -19.721   3.796  0.00  0.00    +0.297 A 
ATOM     13  O   LIG    1       25.788 -19.935   3.362  0.00  0.00    -0.264 OA
ATOM     14  C   LIG    1       23.402 -15.626   4.479  0.00  0.00    +0.128 C 
ENDROOT
BRANCH   8  15
ATOM     15  N   LIG    1       21.657 -21.338   4.795  0.00  0.00    -0.329 N 
ATOM     16  H   LIG    1       20.728 -20.925   4.791  0.00  0.00    +0.145 HD
ATOM     17  H   LIG    1       21.688 -22.147   4.187  0.00  0.00    +0.145 HD
ENDBRANCH   8  15
BRANCH   1  18
ATOM     18  C   LIG    1       25.690 -14.812   3.613  0.00  0.00    +0.164 C 
BRANCH  18  20
ATOM     19  C   LIG    1       24.965 -12.771   2.166  0.00  0.00    +0.040 C 
ATOM     20  C   LIG    1       25.959 -13.902   2.391  0.00  0.00    +0.142 C 
BRANCH  20  21
ATOM     21  O   LIG    1       27.247 -13.291   2.579  0.00  0.00    -0.389 OA
ATOM     22  H   LIG    1       27.603 -13.134   1.682  0.00  0.00    +0.210 HD
ENDBRANCH  20  21
ENDBRANCH  18  20
BRANCH  18  23
ATOM     23  O   LIG    1       25.459 -13.980   4.769  0.00  0.00    -0.387 OA
ATOM     24  H   LIG    1       26.257 -14.045   5.325  0.00  0.00    +0.210 HD
ENDBRANCH  18  23
ENDBRANCH   1  18
TORSDOF 5
ENDMDL
MODEL 7
REMARK VINA RESULT:      -2.9      1.179      1.273
REMARK  Name = *****
REMARK                            x       y       z     vdW  Elec       q    Type
REMARK                         _______ _______ _______ _____ _____    ______ ____
ROOT
ATOM      1  C   LIG    1       24.491 -18.924   3.598  0.00  0.00    +0.119 C 
ATOM      2  N   LIG    1       23.967 -17.651   4.136  0.00  0.00    -0.330 N 
ATOM      3  H   LIG    1       22.973 -17.467   3.988  0.00  0.00    +0.147 HD
ATOM      4  C   LIG    1       24.689 -16.471   3.873  0.00  0.00    +0.133 A 
ATOM      5  C   LIG    1       25.954 -16.462   3.384  0.00  0.00    +0.126 A 
ATOM      6  N   LIG    1       26.575 -15.263   3.179  0.00  0.00    -0.315 N 
ATOM      7  H   LIG    1       27.331 -15.277   2.510  0.00  0.00    +0.170 HD
ATOM      8  C   LIG    1       25.917 -14.092   3.368  0.00  0.00    +0.195 A 
ATOM      9  N   LIG    1       24.711 -13.973   3.808  0.00  0.00    -0.176 NA
ATOM     10  N   LIG    1       26.595 -17.661   3.080  0.00  0.00    -0.327 N 
ATOM     11  H   LIG    1       27.605 -17.588   3.149  0.00  0.00    +0.147 HD
ATOM     12  C   LIG    1       24.009 -15.127   4.088  0.00  0.00    +0.297 A 
ATOM     13  O   LIG    1       22.840 -15.121   4.476  0.00  0.00    -0.264 OA
ATOM     14  C   LIG    1       26.050 -18.924   3.617  0.00  0.00    +0.128 C 
ENDROOT
BRANCH   8  15
ATOM     15  N   LIG    1       26.658 -13.001   3.057  0.00  0.00    -0.329 N 
ATOM     16  H   LIG    1       26.492 -12.260   3.735  0.00  0.00    +0.145 HD
ATOM     17  H   LIG    1       27.650 -13.190   2.976  0.00  0.00    +0.145 HD
ENDBRANCH   8  15
BRANCH   1  18
ATOM     18  C   LIG    1       23.896 -20.139   4.345  0.00  0.00    +0.164 C 
BRANCH  18  20
ATOM     19  C   LIG    1       23.405 -20.828   6.809  0.00  0.00    +0.040 C 
ATOM     20  C   LIG    1       24.442 -20.451   5.759  0.00  0.00    +0.142 C 
BRANCH  20  21
ATOM     21  O   LIG    1       25.338 -21.569   5.641  0.00  0.00    -0.389 OA
ATOM     22  H   LIG    1       25.306 -21.842   4.703  0.00  0.00    +0.210 HD
ENDBRANCH  20  21
ENDBRANCH  18  20
BRANCH  18  23
ATOM     23  O   LIG    1       22.459 -20.032   4.415  0.00  0.00    -0.387 OA
ATOM     24  H   LIG    1       22.249 -19.080   4.416  0.00  0.00    +0.210 HD
ENDBRANCH  18  23
ENDBRANCH   1  18
TORSDOF 5
ENDMDL
MODEL 8
REMARK VINA RESULT:      -1.8      2.496      6.082
REMARK  Name = *****
REMARK                            x       y       z     vdW  Elec       q    Type
REMARK                         _______ _______ _______ _____ _____    ______ ____
ROOT
ATOM      1  C   LIG    1       23.948 -14.705   3.842  0.00  0.00    +0.119 C 
ATOM      2  N   LIG    1       24.925 -15.810   3.754  0.00  0.00    -0.330 N 
ATOM      3  H   LIG    1       25.593 -15.769   2.982  0.00  0.00    +0.147 HD
ATOM      4  C   LIG    1       24.449 -17.130   3.870  0.00  0.00    +0.133 A 
ATOM      5  C   LIG    1       23.204 -17.438   4.311  0.00  0.00    +0.126 A 
ATOM      6  N   LIG    1       22.843 -18.753   4.405  0.00  0.00    -0.315 N 
ATOM      7  H   LIG    1       21.850 -18.930   4.384  0.00  0.00    +0.170 HD
ATOM      8  C   LIG    1       23.672 -19.738   3.979  0.00  0.00    +0.195 A 
ATOM      9  N   LIG    1       24.866 -19.569   3.524  0.00  0.00    -0.176 NA
ATOM     10  N   LIG    1       22.308 -16.425   4.641  0.00  0.00    -0.327 N 
ATOM     11  H   LIG    1       21.626 -16.722   5.333  0.00  0.00    +0.147 HD
ATOM     12  C   LIG    1       25.345 -18.279   3.429  0.00  0.00    +0.297 A 
ATOM     13  O   LIG    1       26.456 -18.009   2.973  0.00  0.00    -0.264 OA
ATOM     14  C   LIG    1       22.818 -15.056   4.856  0.00  0.00    +0.128 C 
ENDROOT
BRANCH   8  15
ATOM     15  N   LIG    1       23.134 -20.978   4.083  0.00  0.00    -0.329 N 
ATOM     16  H   LIG    1       23.204 -21.311   5.042  0.00  0.00    +0.145 HD
ATOM     17  H   LIG    1       22.176 -21.036   3.758  0.00  0.00    +0.145 HD
ENDBRANCH   8  15
BRANCH   1  18
ATOM     18  C   LIG    1       24.641 -13.364   4.177  0.00  0.00    +0.164 C 
BRANCH  18  20
ATOM     19  C   LIG    1       26.673 -12.952   2.600  0.00  0.00    +0.040 C 
ATOM     20  C   LIG    1       25.257 -12.562   3.007  0.00  0.00    +0.142 C 
BRANCH  20  21
ATOM     21  O   LIG    1       24.423 -12.765   1.854  0.00  0.00    -0.389 OA
ATOM     22  H   LIG    1       23.978 -11.910   1.690  0.00  0.00    +0.210 HD
ENDBRANCH  20  21
ENDBRANCH  18  20
BRANCH  18  23
ATOM     23  O   LIG    1       23.742 -12.504   4.907  0.00  0.00    -0.387 OA
ATOM     24  H   LIG    1       24.296 -11.933   5.472  0.00  0.00    +0.210 HD
ENDBRANCH  18  23
ENDBRANCH   1  18
TORSDOF 5
ENDMDL
