MODEL 1
REMARK VINA RESULT:      -8.0      0.000      0.000
REMARK  Name = *****
REMARK                            x       y       z     vdW  Elec       q    Type
REMARK                         _______ _______ _______ _____ _____    ______ ____
ROOT
ATOM      1  C   LIG    1       25.156 -25.581   5.093  0.00  0.00    +0.045 C 
ATOM      2  C   LIG    1       25.206 -24.243   5.765  0.00  0.00    -0.034 C 
ATOM      3  C   LIG    1       24.688 -23.129   5.225  0.00  0.00    +0.098 C 
ATOM      4  N   LIG    1       24.750 -21.876   5.844  0.00  0.00    -0.284 N 
ATOM      5  C   LIG    1       25.380 -21.749   7.104  0.00  0.00    +0.256 C 
ATOM      6  O   LIG    1       25.468 -20.737   7.797  0.00  0.00    -0.267 OA
ATOM      7  C   LIG    1       25.964 -22.994   7.680  0.00  0.00    +0.071 C 
ATOM      8  C   LIG    1       25.866 -24.164   7.042  0.00  0.00    +0.010 C 
ENDROOT
BRANCH   4   9
ATOM      9  C   LIG    1       24.163 -20.711   5.211  0.00  0.00    +0.049 A 
ATOM     10  C   LIG    1       22.875 -20.266   5.567  0.00  0.00    +0.026 A 
ATOM     11  C   LIG    1       22.291 -19.152   4.951  0.00  0.00    +0.002 A 
ATOM     12  C   LIG    1       22.979 -18.459   3.963  0.00  0.00    +0.000 A 
ATOM     13  C   LIG    1       24.252 -18.879   3.594  0.00  0.00    +0.002 A 
ATOM     14  C   LIG    1       24.836 -19.991   4.211  0.00  0.00    +0.026 A 
ENDBRANCH   4   9
TORSDOF 1
ENDMDL
MODEL 2
REMARK VINA RESULT:      -7.5      2.794      5.500
REMARK  Name = *****
REMARK                            x       y       z     vdW  Elec       q    Type
REMARK                         _______ _______ _______ _____ _____    ______ ____
ROOT
ATOM      1  C   LIG    1       26.719 -20.350   7.560  0.00  0.00    +0.045 C 
ATOM      2  C   LIG    1       25.648 -21.369   7.317  0.00  0.00    -0.034 C 
ATOM      3  C   LIG    1       25.902 -22.609   6.870  0.00  0.00    +0.098 C 
ATOM      4  N   LIG    1       24.901 -23.556   6.626  0.00  0.00    -0.284 N 
ATOM      5  C   LIG    1       23.548 -23.218   6.857  0.00  0.00    +0.256 C 
ATOM      6  O   LIG    1       22.565 -23.949   6.744  0.00  0.00    -0.267 OA
ATOM      7  C   LIG    1       23.285 -21.831   7.338  0.00  0.00    +0.071 C 
ATOM      8  C   LIG    1       24.285 -20.974   7.559  0.00  0.00    +0.010 C 
ENDROOT
BRANCH   4   9
ATOM      9  C   LIG    1       25.242 -24.882   6.151  0.00  0.00    +0.049 A 
ATOM     10  C   LIG    1       25.706 -25.872   7.038  0.00  0.00    +0.026 A 
ATOM     11  C   LIG    1       26.053 -27.152   6.589  0.00  0.00    +0.002 A 
ATOM     12  C   LIG    1       25.948 -27.471   5.241  0.00  0.00    +0.000 A 
ATOM     13  C   LIG    1       25.493 -26.512   4.344  0.00  0.00    +0.002 A 
ATOM     14  C   LIG    1       25.144 -25.233   4.795  0.00  0.00    +0.026 A 
ENDBRANCH   4   9
TORSDOF 1
ENDMDL
MODEL 3
REMARK VINA RESULT:      -7.5      2.415      3.740
REMARK  Name = *****
REMARK                            x       y       z     vdW  Elec       q    Type
REMARK                         _______ _______ _______ _____ _____    ______ ____
ROOT
ATOM      1  C   LIG    1       24.201 -25.822   5.924  0.00  0.00    +0.045 C 
ATOM      2  C   LIG    1       24.195 -24.387   6.354  0.00  0.00    -0.034 C 
ATOM      3  C   LIG    1       25.299 -23.623   6.379  0.00  0.00    +0.098 C 
ATOM      4  N   LIG    1       25.297 -22.288   6.796  0.00  0.00    -0.284 N 
ATOM      5  C   LIG    1       24.086 -21.687   7.213  0.00  0.00    +0.256 C 
ATOM      6  O   LIG    1       23.911 -20.519   7.554  0.00  0.00    -0.267 OA
ATOM      7  C   LIG    1       22.875 -22.557   7.194  0.00  0.00    +0.071 C 
ATOM      8  C   LIG    1       22.939 -23.824   6.777  0.00  0.00    +0.010 C 
ENDROOT
BRANCH   4   9
ATOM      9  C   LIG    1       26.522 -21.513   6.793  0.00  0.00    +0.049 A 
ATOM     10  C   LIG    1       26.752 -20.528   5.813  0.00  0.00    +0.026 A 
ATOM     11  C   LIG    1       27.939 -19.784   5.790  0.00  0.00    +0.002 A 
ATOM     12  C   LIG    1       28.924 -20.011   6.742  0.00  0.00    +0.000 A 
ATOM     13  C   LIG    1       28.721 -20.978   7.720  0.00  0.00    +0.002 A 
ATOM     14  C   LIG    1       27.534 -21.719   7.744  0.00  0.00    +0.026 A 
ENDBRANCH   4   9
TORSDOF 1
ENDMDL
MODEL 4
REMARK VINA RESULT:      -7.4      3.169      5.093
REMARK  Name = *****
REMARK                            x       y       z     vdW  Elec       q    Type
REMARK                         _______ _______ _______ _____ _____    ______ ____
ROOT
ATOM      1  C   LIG    1       24.127 -20.701   3.971  0.00  0.00    +0.045 C 
ATOM      2  C   LIG    1       24.706 -20.665   5.352  0.00  0.00    -0.034 C 
ATOM      3  C   LIG    1       26.016 -20.504   5.596  0.00  0.00    +0.098 C 
ATOM      4  N   LIG    1       26.560 -20.487   6.884  0.00  0.00    -0.284 N 
ATOM      5  C   LIG    1       25.710 -20.641   8.004  0.00  0.00    +0.256 C 
ATOM      6  O   LIG    1       26.024 -20.595   9.192  0.00  0.00    -0.267 OA
ATOM      7  C   LIG    1       24.261 -20.835   7.713  0.00  0.00    +0.071 C 
ATOM      8  C   LIG    1       23.800 -20.834   6.459  0.00  0.00    +0.010 C 
ENDROOT
BRANCH   4   9
ATOM      9  C   LIG    1       27.984 -20.301   7.081  0.00  0.00    +0.049 A 
ATOM     10  C   LIG    1       28.689 -19.305   6.378  0.00  0.00    +0.026 A 
ATOM     11  C   LIG    1       30.067 -19.127   6.547  0.00  0.00    +0.002 A 
ATOM     12  C   LIG    1       30.774 -19.943   7.421  0.00  0.00    +0.000 A 
ATOM     13  C   LIG    1       30.103 -20.934   8.127  0.00  0.00    +0.002 A 
ATOM     14  C   LIG    1       28.724 -21.110   7.958  0.00  0.00    +0.026 A 
ENDBRANCH   4   9
TORSDOF 1
ENDMDL
MODEL 5
REMARK VINA RESULT:      -7.3      2.742      4.519
REMARK  Name = *****
REMARK                            x       y       z     vdW  Elec       q    Type
REMARK                         _______ _______ _______ _____ _____    ______ ____
ROOT
ATOM      1  C   LIG    1       30.050 -21.412   8.467  0.00  0.00    +0.045 C 
ATOM      2  C   LIG    1       28.932 -21.055   7.535  0.00  0.00    -0.034 C 
ATOM      3  C   LIG    1       27.737 -21.667   7.552  0.00  0.00    +0.098 C 
ATOM      4  N   LIG    1       26.700 -21.346   6.671  0.00  0.00    -0.284 N 
ATOM      5  C   LIG    1       26.889 -20.327   5.709  0.00  0.00    +0.256 C 
ATOM      6  O   LIG    1       26.063 -19.894   4.907  0.00  0.00    -0.267 OA
ATOM      7  C   LIG    1       28.227 -19.671   5.695  0.00  0.00    +0.071 C 
ATOM      8  C   LIG    1       29.177 -20.017   6.568  0.00  0.00    +0.010 C 
ENDROOT
BRANCH   4   9
ATOM      9  C   LIG    1       25.429 -22.039   6.746  0.00  0.00    +0.049 A 
ATOM     10  C   LIG    1       25.330 -23.408   6.427  0.00  0.00    +0.026 A 
ATOM     11  C   LIG    1       24.105 -24.084   6.479  0.00  0.00    +0.002 A 
ATOM     12  C   LIG    1       22.949 -23.408   6.848  0.00  0.00    +0.000 A 
ATOM     13  C   LIG    1       23.019 -22.057   7.167  0.00  0.00    +0.002 A 
ATOM     14  C   LIG    1       24.245 -21.382   7.116  0.00  0.00    +0.026 A 
ENDBRANCH   4   9
TORSDOF 1
ENDMDL
MODEL 6
REMARK VINA RESULT:      -7.1      1.525      5.195
REMARK  Name = *****
REMARK                            x       y       z     vdW  Elec       q    Type
REMARK                         _______ _______ _______ _____ _____    ______ ____
ROOT
ATOM      1  C   LIG    1       25.079 -19.424   3.624  0.00  0.00    +0.045 C 
ATOM      2  C   LIG    1       24.474 -20.423   4.561  0.00  0.00    -0.034 C 
ATOM      3  C   LIG    1       24.939 -21.674   4.704  0.00  0.00    +0.098 C 
ATOM      4  N   LIG    1       24.363 -22.612   5.567  0.00  0.00    -0.284 N 
ATOM      5  C   LIG    1       23.237 -22.250   6.343  0.00  0.00    +0.256 C 
ATOM      6  O   LIG    1       22.655 -22.937   7.180  0.00  0.00    -0.267 OA
ATOM      7  C   LIG    1       22.725 -20.862   6.158  0.00  0.00    +0.071 C 
ATOM      8  C   LIG    1       23.323 -20.008   5.323  0.00  0.00    +0.010 C 
ENDROOT
BRANCH   4   9
ATOM      9  C   LIG    1       24.918 -23.946   5.681  0.00  0.00    +0.049 A 
ATOM     10  C   LIG    1       25.528 -24.377   6.875  0.00  0.00    +0.026 A 
ATOM     11  C   LIG    1       26.083 -25.657   6.993  0.00  0.00    +0.002 A 
ATOM     12  C   LIG    1       26.043 -26.536   5.918  0.00  0.00    +0.000 A 
ATOM     13  C   LIG    1       25.447 -26.136   4.728  0.00  0.00    +0.002 A 
ATOM     14  C   LIG    1       24.891 -24.856   4.612  0.00  0.00    +0.026 A 
ENDBRANCH   4   9
TORSDOF 1
ENDMDL
MODEL 7
REMARK VINA RESULT:      -7.1      1.350      5.170
REMARK  Name = *****
REMARK                            x       y       z     vdW  Elec       q    Type
REMARK                         _______ _______ _______ _____ _____    ______ ____
ROOT
ATOM      1  C   LIG    1       25.654 -18.247   3.231  0.00  0.00    +0.045 C 
ATOM      2  C   LIG    1       24.748 -19.213   3.930  0.00  0.00    -0.034 C 
ATOM      3  C   LIG    1       25.170 -20.381   4.441  0.00  0.00    +0.098 C 
ATOM      4  N   LIG    1       24.321 -21.291   5.077  0.00  0.00    -0.284 N 
ATOM      5  C   LIG    1       22.945 -20.990   5.209  0.00  0.00    +0.256 C 
ATOM      6  O   LIG    1       22.087 -21.656   5.785  0.00  0.00    -0.267 OA
ATOM      7  C   LIG    1       22.492 -19.697   4.621  0.00  0.00    +0.071 C 
ATOM      8  C   LIG    1       23.354 -18.865   4.030  0.00  0.00    +0.010 C 
ENDROOT
BRANCH   4   9
ATOM      9  C   LIG    1       24.841 -22.533   5.615  0.00  0.00    +0.049 A 
ATOM     10  C   LIG    1       24.755 -23.732   4.882  0.00  0.00    +0.026 A 
ATOM     11  C   LIG    1       25.239 -24.940   5.398  0.00  0.00    +0.002 A 
ATOM     12  C   LIG    1       25.817 -24.979   6.661  0.00  0.00    +0.000 A 
ATOM     13  C   LIG    1       25.914 -23.809   7.405  0.00  0.00    +0.002 A 
ATOM     14  C   LIG    1       25.431 -22.601   6.888  0.00  0.00    +0.026 A 
ENDBRANCH   4   9
TORSDOF 1
ENDMDL
MODEL 8
REMARK VINA RESULT:      -7.0      2.727      3.856
REMARK  Name = *****
REMARK                            x       y       z     vdW  Elec       q    Type
REMARK                         _______ _______ _______ _____ _____    ______ ____
ROOT
ATOM      1  C   LIG    1       30.026 -18.758   6.067  0.00  0.00    +0.045 C 
ATOM      2  C   LIG    1       28.989 -19.766   6.459  0.00  0.00    -0.034 C 
ATOM      3  C   LIG    1       27.728 -19.742   5.999  0.00  0.00    +0.098 C 
ATOM      4  N   LIG    1       26.756 -20.673   6.378  0.00  0.00    -0.284 N 
ATOM      5  C   LIG    1       27.091 -21.704   7.285  0.00  0.00    +0.256 C 
ATOM      6  O   LIG    1       26.370 -22.623   7.671  0.00  0.00    -0.267 OA
ATOM      7  C   LIG    1       28.491 -21.705   7.798  0.00  0.00    +0.071 C 
ATOM      8  C   LIG    1       29.377 -20.792   7.393  0.00  0.00    +0.010 C 
ENDROOT
BRANCH   4   9
ATOM      9  C   LIG    1       25.412 -20.596   5.838  0.00  0.00    +0.049 A 
ATOM     10  C   LIG    1       25.195 -20.432   4.456  0.00  0.00    +0.026 A 
ATOM     11  C   LIG    1       23.903 -20.340   3.925  0.00  0.00    +0.002 A 
ATOM     12  C   LIG    1       22.797 -20.407   4.764  0.00  0.00    +0.000 A 
ATOM     13  C   LIG    1       22.984 -20.568   6.132  0.00  0.00    +0.002 A 
ATOM     14  C   LIG    1       24.277 -20.661   6.661  0.00  0.00    +0.026 A 
ENDBRANCH   4   9
TORSDOF 1
ENDMDL
MODEL 9
REMARK VINA RESULT:      -7.0      2.584      4.351
REMARK  Name = *****
REMARK                            x       y       z     vdW  Elec       q    Type
REMARK                         _______ _______ _______ _____ _____    ______ ____
ROOT
ATOM      1  C   LIG    1       22.195 -20.025   4.980  0.00  0.00    +0.045 C 
ATOM      2  C   LIG    1       23.260 -20.770   5.726  0.00  0.00    -0.034 C 
ATOM      3  C   LIG    1       24.515 -20.315   5.867  0.00  0.00    +0.098 C 
ATOM      4  N   LIG    1       25.514 -21.018   6.548  0.00  0.00    -0.284 N 
ATOM      5  C   LIG    1       25.213 -22.269   7.134  0.00  0.00    +0.256 C 
ATOM      6  O   LIG    1       25.959 -22.979   7.806  0.00  0.00    -0.267 OA
ATOM      7  C   LIG    1       23.818 -22.765   6.954  0.00  0.00    +0.071 C 
ATOM      8  C   LIG    1       22.906 -22.044   6.297  0.00  0.00    +0.010 C 
ENDROOT
BRANCH   4   9
ATOM      9  C   LIG    1       26.849 -20.468   6.671  0.00  0.00    +0.049 A 
ATOM     10  C   LIG    1       27.486 -20.384   7.924  0.00  0.00    +0.026 A 
ATOM     11  C   LIG    1       28.769 -19.840   8.058  0.00  0.00    +0.002 A 
ATOM     12  C   LIG    1       29.444 -19.363   6.942  0.00  0.00    +0.000 A 
ATOM     13  C   LIG    1       28.839 -19.433   5.693  0.00  0.00    +0.002 A 
ATOM     14  C   LIG    1       27.556 -19.979   5.561  0.00  0.00    +0.026 A 
ENDBRANCH   4   9
TORSDOF 1
ENDMDL
