MODEL 1
REMARK VINA RESULT:      -2.8      0.000      0.000
REMARK  Name = *****
REMARK                            x       y       z     vdW  Elec       q    Type
REMARK                         _______ _______ _______ _____ _____    ______ ____
ROOT
ATOM      1  C   LIG    1       27.027 -14.180   4.290  0.00  0.00    +0.078 C 
ENDROOT
BRANCH   1   2
ATOM      2  S   LIG    1       28.438 -13.057   3.922  0.00  0.00    -0.172 S 
ATOM      3  H   LIG    1       29.301 -13.648   4.765  0.00  0.00    +0.102 HD
ENDBRANCH   1   2
BRANCH   1   4
ATOM      4  C   LIG    1       26.673 -14.971   3.022  0.00  0.00    +0.170 C 
BRANCH   4   5
ATOM      5  O   LIG    1       26.949 -14.216   1.845  0.00  0.00    -0.394 OA
ATOM      6  H   LIG    1       27.146 -14.858   1.133  0.00  0.00    +0.209 HD
ENDBRANCH   4   5
ENDBRANCH   1   4
BRANCH   1   7
ATOM      7  C   LIG    1       25.868 -13.343   4.853  0.00  0.00    +0.081 C 
BRANCH   7   8
ATOM      8  S   LIG    1       24.243 -13.843   4.183  0.00  0.00    -0.177 S 
ATOM      9  H   LIG    1       24.706 -14.575   3.159  0.00  0.00    +0.102 HD
ENDBRANCH   7   8
ENDBRANCH   1   7
TORSDOF 5
ENDMDL
MODEL 2
REMARK VINA RESULT:      -2.8      2.465      2.801
REMARK  Name = *****
REMARK                            x       y       z     vdW  Elec       q    Type
REMARK                         _______ _______ _______ _____ _____    ______ ____
ROOT
ATOM      1  C   LIG    1       27.815 -13.882   3.904  0.00  0.00    +0.078 C 
ENDROOT
BRANCH   1   2
ATOM      2  S   LIG    1       26.617 -13.468   5.238  0.00  0.00    -0.172 S 
ATOM      3  H   LIG    1       27.287 -12.394   5.689  0.00  0.00    +0.102 HD
ENDBRANCH   1   2
BRANCH   1   4
ATOM      4  C   LIG    1       28.907 -12.802   3.859  0.00  0.00    +0.170 C 
BRANCH   4   5
ATOM      5  O   LIG    1       28.974 -12.081   5.086  0.00  0.00    -0.394 OA
ATOM      6  H   LIG    1       29.904 -12.118   5.390  0.00  0.00    +0.209 HD
ENDBRANCH   4   5
ENDBRANCH   1   4
BRANCH   1   7
ATOM      7  C   LIG    1       27.043 -14.050   2.587  0.00  0.00    +0.081 C 
BRANCH   7   8
ATOM      8  S   LIG    1       25.442 -13.170   2.587  0.00  0.00    -0.177 S 
ATOM      9  H   LIG    1       25.575 -12.586   1.387  0.00  0.00    +0.102 HD
ENDBRANCH   7   8
ENDBRANCH   1   7
TORSDOF 5
ENDMDL
MODEL 3
REMARK VINA RESULT:      -2.8      6.692      7.019
REMARK  Name = *****
REMARK                            x       y       z     vdW  Elec       q    Type
REMARK                         _______ _______ _______ _____ _____    ______ ____
ROOT
ATOM      1  C   LIG    1       24.514 -20.935   5.591  0.00  0.00    +0.078 C 
ENDROOT
BRANCH   1   2
ATOM      2  S   LIG    1       25.625 -20.773   7.049  0.00  0.00    -0.172 S 
ATOM      3  H   LIG    1       25.427 -22.022   7.504  0.00  0.00    +0.102 HD
ENDBRANCH   1   2
BRANCH   1   4
ATOM      4  C   LIG    1       25.164 -20.239   4.386  0.00  0.00    +0.170 C 
BRANCH   4   5
ATOM      5  O   LIG    1       26.578 -20.146   4.541  0.00  0.00    -0.394 OA
ATOM      6  H   LIG    1       26.980 -20.566   3.754  0.00  0.00    +0.209 HD
ENDBRANCH   4   5
ENDBRANCH   1   4
BRANCH   1   7
ATOM      7  C   LIG    1       23.131 -20.381   5.965  0.00  0.00    +0.081 C 
BRANCH   7   8
ATOM      8  S   LIG    1       22.485 -19.196   4.733  0.00  0.00    -0.177 S 
ATOM      9  H   LIG    1       22.336 -20.071   3.727  0.00  0.00    +0.102 HD
ENDBRANCH   7   8
ENDBRANCH   1   7
TORSDOF 5
ENDMDL
MODEL 4
REMARK VINA RESULT:      -2.8      2.171      2.336
REMARK  Name = *****
REMARK                            x       y       z     vdW  Elec       q    Type
REMARK                         _______ _______ _______ _____ _____    ______ ____
ROOT
ATOM      1  C   LIG    1       27.005 -13.951   2.770  0.00  0.00    +0.078 C 
ENDROOT
BRANCH   1   2
ATOM      2  S   LIG    1       26.451 -15.584   3.413  0.00  0.00    -0.172 S 
ATOM      3  H   LIG    1       26.725 -15.318   4.701  0.00  0.00    +0.102 HD
ENDBRANCH   1   2
BRANCH   1   4
ATOM      4  C   LIG    1       27.972 -13.317   3.781  0.00  0.00    +0.170 C 
BRANCH   4   5
ATOM      5  O   LIG    1       29.312 -13.330   3.296  0.00  0.00    -0.394 OA
ATOM      6  H   LIG    1       29.849 -13.816   3.954  0.00  0.00    +0.209 HD
ENDBRANCH   4   5
ENDBRANCH   1   4
BRANCH   1   7
ATOM      7  C   LIG    1       25.765 -13.098   2.465  0.00  0.00    +0.081 C 
BRANCH   7   8
ATOM      8  S   LIG    1       24.352 -13.486   3.557  0.00  0.00    -0.177 S 
ATOM      9  H   LIG    1       24.416 -12.377   4.308  0.00  0.00    +0.102 HD
ENDBRANCH   7   8
ENDBRANCH   1   7
TORSDOF 5
ENDMDL
MODEL 5
REMARK VINA RESULT:      -2.7      2.401      3.525
REMARK  Name = *****
REMARK                            x       y       z     vdW  Elec       q    Type
REMARK                         _______ _______ _______ _____ _____    ______ ____
ROOT
ATOM      1  C   LIG    1       25.338 -13.159   3.063  0.00  0.00    +0.078 C 
ENDROOT
BRANCH   1   2
ATOM      2  S   LIG    1       24.217 -14.243   4.040  0.00  0.00    -0.172 S 
ATOM      3  H   LIG    1       23.456 -13.246   4.523  0.00  0.00    +0.102 HD
ENDBRANCH   1   2
BRANCH   1   4
ATOM      4  C   LIG    1       24.556 -12.565   1.881  0.00  0.00    +0.170 C 
BRANCH   4   5
ATOM      5  O   LIG    1       23.733 -11.480   2.297  0.00  0.00    -0.394 OA
ATOM      6  H   LIG    1       24.316 -10.835   2.748  0.00  0.00    +0.209 HD
ENDBRANCH   4   5
ENDBRANCH   1   4
BRANCH   1   7
ATOM      7  C   LIG    1       26.574 -13.973   2.654  0.00  0.00    +0.081 C 
BRANCH   7   8
ATOM      8  S   LIG    1       28.026 -13.636   3.711  0.00  0.00    -0.177 S 
ATOM      9  H   LIG    1       28.814 -13.129   2.751  0.00  0.00    +0.102 HD
ENDBRANCH   7   8
ENDBRANCH   1   7
TORSDOF 5
ENDMDL
MODEL 6
REMARK VINA RESULT:      -2.7      6.950      7.493
REMARK  Name = *****
REMARK                            x       y       z     vdW  Elec       q    Type
REMARK                         _______ _______ _______ _____ _____    ______ ____
ROOT
ATOM      1  C   LIG    1       24.612 -21.338   5.496  0.00  0.00    +0.078 C 
ENDROOT
BRANCH   1   2
ATOM      2  S   LIG    1       23.651 -21.231   7.062  0.00  0.00    -0.172 S 
ATOM      3  H   LIG    1       22.960 -22.368   6.870  0.00  0.00    +0.102 HD
ENDBRANCH   1   2
BRANCH   1   4
ATOM      4  C   LIG    1       25.894 -20.503   5.637  0.00  0.00    +0.170 C 
BRANCH   4   5
ATOM      5  O   LIG    1       26.459 -20.201   4.365  0.00  0.00    -0.394 OA
ATOM      6  H   LIG    1       25.715 -20.109   3.735  0.00  0.00    +0.209 HD
ENDBRANCH   4   5
ENDBRANCH   1   4
BRANCH   1   7
ATOM      7  C   LIG    1       23.706 -20.905   4.334  0.00  0.00    +0.081 C 
BRANCH   7   8
ATOM      8  S   LIG    1       22.538 -19.580   4.802  0.00  0.00    -0.177 S 
ATOM      9  H   LIG    1       21.764 -19.649   3.709  0.00  0.00    +0.102 HD
ENDBRANCH   7   8
ENDBRANCH   1   7
TORSDOF 5
ENDMDL
MODEL 7
REMARK VINA RESULT:      -2.6      7.186      7.609
REMARK  Name = *****
REMARK                            x       y       z     vdW  Elec       q    Type
REMARK                         _______ _______ _______ _____ _____    ______ ____
ROOT
ATOM      1  C   LIG    1       22.958 -20.698   5.440  0.00  0.00    +0.078 C 
ENDROOT
BRANCH   1   2
ATOM      2  S   LIG    1       24.342 -21.259   4.364  0.00  0.00    -0.172 S 
ATOM      3  H   LIG    1       23.561 -21.701   3.364  0.00  0.00    +0.102 HD
ENDBRANCH   1   2
BRANCH   1   4
ATOM      4  C   LIG    1       22.489 -19.313   4.971  0.00  0.00    +0.170 C 
BRANCH   4   5
ATOM      5  O   LIG    1       23.290 -18.830   3.897  0.00  0.00    -0.394 OA
ATOM      6  H   LIG    1       23.883 -19.562   3.630  0.00  0.00    +0.209 HD
ENDBRANCH   4   5
ENDBRANCH   1   4
BRANCH   1   7
ATOM      7  C   LIG    1       23.425 -20.742   6.902  0.00  0.00    +0.081 C 
BRANCH   7   8
ATOM      8  S   LIG    1       25.240 -20.882   7.062  0.00  0.00    -0.177 S 
ATOM      9  H   LIG    1       25.540 -19.656   6.606  0.00  0.00    +0.102 HD
ENDBRANCH   7   8
ENDBRANCH   1   7
TORSDOF 5
ENDMDL
MODEL 8
REMARK VINA RESULT:      -2.6      7.657      7.903
REMARK  Name = *****
REMARK                            x       y       z     vdW  Elec       q    Type
REMARK                         _______ _______ _______ _____ _____    ______ ____
ROOT
ATOM      1  C   LIG    1       24.353 -21.000   5.691  0.00  0.00    +0.078 C 
ENDROOT
BRANCH   1   2
ATOM      2  S   LIG    1       25.260 -20.147   4.335  0.00  0.00    -0.172 S 
ATOM      3  H   LIG    1       26.435 -20.763   4.554  0.00  0.00    +0.102 HD
ENDBRANCH   1   2
BRANCH   1   4
ATOM      4  C   LIG    1       22.900 -20.503   5.711  0.00  0.00    +0.170 C 
BRANCH   4   5
ATOM      5  O   LIG    1       22.027 -21.429   5.070  0.00  0.00    -0.394 OA
ATOM      6  H   LIG    1       22.100 -21.272   4.106  0.00  0.00    +0.209 HD
ENDBRANCH   4   5
ENDBRANCH   1   4
BRANCH   1   7
ATOM      7  C   LIG    1       25.113 -20.775   7.006  0.00  0.00    +0.081 C 
BRANCH   7   8
ATOM      8  S   LIG    1       26.915 -20.597   6.762  0.00  0.00    -0.177 S 
ATOM      9  H   LIG    1       27.278 -21.726   7.389  0.00  0.00    +0.102 HD
ENDBRANCH   7   8
ENDBRANCH   1   7
TORSDOF 5
ENDMDL
MODEL 9
REMARK VINA RESULT:      -2.5      1.766      2.958
REMARK  Name = *****
REMARK                            x       y       z     vdW  Elec       q    Type
REMARK                         _______ _______ _______ _____ _____    ______ ____
ROOT
ATOM      1  C   LIG    1       25.921 -14.512   2.962  0.00  0.00    +0.078 C 
ENDROOT
BRANCH   1   2
ATOM      2  S   LIG    1       24.468 -14.194   4.045  0.00  0.00    -0.172 S 
ATOM      3  H   LIG    1       23.751 -15.247   3.617  0.00  0.00    +0.102 HD
ENDBRANCH   1   2
BRANCH   1   4
ATOM      4  C   LIG    1       26.706 -15.710   3.516  0.00  0.00    +0.170 C 
BRANCH   4   5
ATOM      5  O   LIG    1       26.105 -16.945   3.138  0.00  0.00    -0.394 OA
ATOM      6  H   LIG    1       26.770 -17.439   2.616  0.00  0.00    +0.209 HD
ENDBRANCH   4   5
ENDBRANCH   1   4
BRANCH   1   7
ATOM      7  C   LIG    1       26.742 -13.219   2.851  0.00  0.00    +0.081 C 
BRANCH   7   8
ATOM      8  S   LIG    1       28.303 -13.287   3.799  0.00  0.00    -0.177 S 
ATOM      9  H   LIG    1       28.395 -14.624   3.867  0.00  0.00    +0.102 HD
ENDBRANCH   7   8
ENDBRANCH   1   7
TORSDOF 5
ENDMDL
