MODEL 1
REMARK VINA RESULT:      -8.4      0.000      0.000
REMARK  Name = *****
REMARK                            x       y       z     vdW  Elec       q    Type
REMARK                         _______ _______ _______ _____ _____    ______ ____
ROOT
ATOM      1  N   LIG    1       24.858 -27.971   5.984  0.00  0.00    -0.312 N 
ATOM      2  H   LIG    1       23.930 -27.619   5.803  0.00  0.00    +0.149 HD
ENDROOT
BRANCH   1   3
ATOM      3  C   LIG    1       25.053 -29.318   5.995  0.00  0.00    +0.197 A 
ATOM      4  N   LIG    1       24.669 -30.123   7.057  0.00  0.00    -0.307 N 
ATOM      5  C   LIG    1       24.800 -31.440   6.650  0.00  0.00    +0.070 A 
ATOM      6  C   LIG    1       25.416 -31.341   5.406  0.00  0.00    +0.091 A 
ATOM      7  C   LIG    1       25.733 -32.507   4.693  0.00  0.00    +0.030 A 
ATOM      8  C   LIG    1       25.370 -33.747   5.230  0.00  0.00    +0.002 A 
ATOM      9  C   LIG    1       24.734 -33.825   6.468  0.00  0.00    +0.002 A 
ATOM     10  C   LIG    1       24.452 -32.674   7.218  0.00  0.00    +0.028 A 
ATOM     11  N   LIG    1       25.593 -30.032   5.044  0.00  0.00    -0.214 NA
BRANCH   4  12
ATOM     12  C   LIG    1       24.141 -29.700   8.344  0.00  0.00    +0.160 C 
BRANCH  12  13
ATOM     13  C   LIG    1       25.180 -29.704   9.448  0.00  0.00    -0.028 A 
ATOM     14  C   LIG    1       26.284 -28.833   9.417  0.00  0.00    +0.008 A 
ATOM     15  C   LIG    1       27.212 -28.821  10.461  0.00  0.00    +0.039 A 
ATOM     16  C   LIG    1       27.042 -29.674  11.543  0.00  0.00    +0.123 A 
ATOM     17  F   LIG    1       27.931 -29.662  12.545  0.00  0.00    -0.205 F 
ATOM     18  C   LIG    1       25.956 -30.539  11.603  0.00  0.00    +0.039 A 
ATOM     19  C   LIG    1       25.026 -30.551  10.559  0.00  0.00    +0.008 A 
ENDBRANCH  12  13
ENDBRANCH   4  12
ENDBRANCH   1   3
BRANCH   1  23
ATOM     20  N   LIG    1       24.808 -24.411   6.074  0.00  0.00    -0.302 NA
ATOM     21  C   LIG    1       24.387 -25.194   4.907  0.00  0.00    +0.086 C 
ATOM     22  C   LIG    1       25.432 -26.175   4.384  0.00  0.00    +0.037 C 
ATOM     23  C   LIG    1       25.944 -27.101   5.487  0.00  0.00    +0.075 C 
ATOM     24  C   LIG    1       26.519 -26.215   6.589  0.00  0.00    +0.037 C 
ATOM     25  C   LIG    1       25.483 -25.220   7.113  0.00  0.00    +0.086 C 
BRANCH  20  26
ATOM     26  C   LIG    1       23.643 -23.725   6.696  0.00  0.00    +0.089 C 
BRANCH  26  27
ATOM     27  C   LIG    1       23.575 -22.193   6.489  0.00  0.00    +0.050 C 
BRANCH  27  31
ATOM     28  C   LIG    1       27.307 -20.314   7.629  0.00  0.00    +0.120 A 
ATOM     29  C   LIG    1       26.469 -20.852   8.607  0.00  0.00    +0.046 A 
ATOM     30  C   LIG    1       25.248 -21.441   8.251  0.00  0.00    +0.007 A 
ATOM     31  C   LIG    1       24.856 -21.504   6.907  0.00  0.00    -0.046 A 
ATOM     32  C   LIG    1       25.681 -20.923   5.940  0.00  0.00    +0.007 A 
ATOM     33  C   LIG    1       26.897 -20.340   6.296  0.00  0.00    +0.046 A 
BRANCH  28  35
ATOM     34  C   LIG    1       29.655 -20.562   7.781  0.00  0.00    +0.277 C 
ATOM     35  O   LIG    1       28.492 -19.792   8.074  0.00  0.00    -0.495 OA
ENDBRANCH  28  35
ENDBRANCH  27  31
ENDBRANCH  26  27
ENDBRANCH  20  26
ENDBRANCH   1  23
TORSDOF 8
ENDMDL
MODEL 2
REMARK VINA RESULT:      -8.4      2.415      3.261
REMARK  Name = *****
REMARK                            x       y       z     vdW  Elec       q    Type
REMARK                         _______ _______ _______ _____ _____    ______ ____
ROOT
ATOM      1  N   LIG    1       25.088 -28.397   7.210  0.00  0.00    -0.312 N 
ATOM      2  H   LIG    1       24.743 -27.653   7.798  0.00  0.00    +0.149 HD
ENDROOT
BRANCH   1   3
ATOM      3  C   LIG    1       24.861 -29.685   7.586  0.00  0.00    +0.197 A 
ATOM      4  N   LIG    1       25.545 -30.294   8.628  0.00  0.00    -0.307 N 
ATOM      5  C   LIG    1       24.918 -31.501   8.889  0.00  0.00    +0.070 A 
ATOM      6  C   LIG    1       23.980 -31.614   7.866  0.00  0.00    +0.091 A 
ATOM      7  C   LIG    1       23.163 -32.750   7.796  0.00  0.00    +0.030 A 
ATOM      8  C   LIG    1       23.272 -33.724   8.794  0.00  0.00    +0.002 A 
ATOM      9  C   LIG    1       24.201 -33.583   9.824  0.00  0.00    +0.002 A 
ATOM     10  C   LIG    1       25.062 -32.478   9.884  0.00  0.00    +0.028 A 
ATOM     11  N   LIG    1       23.991 -30.505   7.061  0.00  0.00    -0.214 NA
BRANCH   4  12
ATOM     12  C   LIG    1       26.664 -29.759   9.386  0.00  0.00    +0.160 C 
BRANCH  12  13
ATOM     13  C   LIG    1       26.236 -28.961  10.602  0.00  0.00    -0.028 A 
ATOM     14  C   LIG    1       25.057 -29.270  11.302  0.00  0.00    +0.008 A 
ATOM     15  C   LIG    1       24.696 -28.549  12.443  0.00  0.00    +0.039 A 
ATOM     16  C   LIG    1       25.512 -27.521  12.895  0.00  0.00    +0.123 A 
ATOM     17  F   LIG    1       25.166 -26.831  13.990  0.00  0.00    -0.205 F 
ATOM     18  C   LIG    1       26.687 -27.200  12.227  0.00  0.00    +0.039 A 
ATOM     19  C   LIG    1       27.050 -27.920  11.085  0.00  0.00    +0.008 A 
ENDBRANCH  12  13
ENDBRANCH   4  12
ENDBRANCH   1   3
BRANCH   1  23
ATOM     20  N   LIG    1       25.576 -25.132   5.872  0.00  0.00    -0.302 NA
ATOM     21  C   LIG    1       24.251 -25.714   6.115  0.00  0.00    +0.086 C 
ATOM     22  C   LIG    1       24.009 -27.058   5.433  0.00  0.00    +0.037 C 
ATOM     23  C   LIG    1       25.103 -28.071   5.769  0.00  0.00    +0.075 C 
ATOM     24  C   LIG    1       26.432 -27.461   5.332  0.00  0.00    +0.037 C 
ATOM     25  C   LIG    1       26.681 -26.109   6.001  0.00  0.00    +0.086 C 
BRANCH  20  26
ATOM     26  C   LIG    1       25.834 -24.005   6.808  0.00  0.00    +0.089 C 
BRANCH  26  27
ATOM     27  C   LIG    1       24.585 -23.222   7.279  0.00  0.00    +0.050 C 
BRANCH  27  31
ATOM     28  C   LIG    1       23.678 -19.880   4.676  0.00  0.00    +0.120 A 
ATOM     29  C   LIG    1       22.677 -20.435   5.476  0.00  0.00    +0.046 A 
ATOM     30  C   LIG    1       22.954 -21.531   6.304  0.00  0.00    +0.007 A 
ATOM     31  C   LIG    1       24.243 -22.081   6.346  0.00  0.00    -0.046 A 
ATOM     32  C   LIG    1       25.226 -21.547   5.508  0.00  0.00    +0.007 A 
ATOM     33  C   LIG    1       24.949 -20.455   4.688  0.00  0.00    +0.046 A 
BRANCH  28  35
ATOM     34  C   LIG    1       22.154 -18.096   4.375  0.00  0.00    +0.277 C 
ATOM     35  O   LIG    1       23.316 -18.791   3.929  0.00  0.00    -0.495 OA
ENDBRANCH  28  35
ENDBRANCH  27  31
ENDBRANCH  26  27
ENDBRANCH  20  26
ENDBRANCH   1  23
TORSDOF 8
ENDMDL
MODEL 3
REMARK VINA RESULT:      -8.4      1.377      1.785
REMARK  Name = *****
REMARK                            x       y       z     vdW  Elec       q    Type
REMARK                         _______ _______ _______ _____ _____    ______ ____
ROOT
ATOM      1  N   LIG    1       25.308 -28.140   7.137  0.00  0.00    -0.312 N 
ATOM      2  H   LIG    1       24.700 -27.515   7.645  0.00  0.00    +0.149 HD
ENDROOT
BRANCH   1   3
ATOM      3  C   LIG    1       25.053 -29.476   7.181  0.00  0.00    +0.197 A 
ATOM      4  N   LIG    1       25.641 -30.323   8.109  0.00  0.00    -0.307 N 
ATOM      5  C   LIG    1       24.997 -31.546   8.024  0.00  0.00    +0.070 A 
ATOM      6  C   LIG    1       24.158 -31.401   6.922  0.00  0.00    +0.091 A 
ATOM      7  C   LIG    1       23.355 -32.476   6.515  0.00  0.00    +0.030 A 
ATOM      8  C   LIG    1       23.376 -33.657   7.265  0.00  0.00    +0.002 A 
ATOM      9  C   LIG    1       24.206 -33.776   8.378  0.00  0.00    +0.002 A 
ATOM     10  C   LIG    1       25.053 -32.730   8.772  0.00  0.00    +0.028 A 
ATOM     11  N   LIG    1       24.238 -30.136   6.402  0.00  0.00    -0.214 NA
BRANCH   4  12
ATOM     12  C   LIG    1       26.684 -29.998   9.068  0.00  0.00    +0.160 C 
BRANCH  12  13
ATOM     13  C   LIG    1       26.164 -29.276  10.296  0.00  0.00    -0.028 A 
ATOM     14  C   LIG    1       24.956 -29.652  10.910  0.00  0.00    +0.008 A 
ATOM     15  C   LIG    1       24.509 -29.001  12.062  0.00  0.00    +0.039 A 
ATOM     16  C   LIG    1       25.268 -27.977  12.612  0.00  0.00    +0.123 A 
ATOM     17  F   LIG    1       24.840 -27.354  13.719  0.00  0.00    -0.205 F 
ATOM     18  C   LIG    1       26.469 -27.591  12.031  0.00  0.00    +0.039 A 
ATOM     19  C   LIG    1       26.918 -28.241  10.877  0.00  0.00    +0.008 A 
ENDBRANCH  12  13
ENDBRANCH   4  12
ENDBRANCH   1   3
BRANCH   1  23
ATOM     20  N   LIG    1       24.629 -24.856   5.936  0.00  0.00    -0.302 NA
ATOM     21  C   LIG    1       23.886 -26.045   5.500  0.00  0.00    +0.086 C 
ATOM     22  C   LIG    1       24.751 -27.167   4.933  0.00  0.00    +0.037 C 
ATOM     23  C   LIG    1       25.868 -27.565   5.897  0.00  0.00    +0.075 C 
ATOM     24  C   LIG    1       26.696 -26.312   6.169  0.00  0.00    +0.037 C 
ATOM     25  C   LIG    1       25.838 -25.176   6.727  0.00  0.00    +0.086 C 
BRANCH  20  26
ATOM     26  C   LIG    1       23.760 -23.962   6.747  0.00  0.00    +0.089 C 
BRANCH  26  27
ATOM     27  C   LIG    1       23.726 -22.478   6.308  0.00  0.00    +0.050 C 
BRANCH  27  31
ATOM     28  C   LIG    1       27.227 -20.362   7.735  0.00  0.00    +0.120 A 
ATOM     29  C   LIG    1       26.283 -20.844   8.644  0.00  0.00    +0.046 A 
ATOM     30  C   LIG    1       25.135 -21.509   8.192  0.00  0.00    +0.007 A 
ATOM     31  C   LIG    1       24.923 -21.706   6.820  0.00  0.00    -0.046 A 
ATOM     32  C   LIG    1       25.851 -21.180   5.917  0.00  0.00    +0.007 A 
ATOM     33  C   LIG    1       26.994 -20.522   6.369  0.00  0.00    +0.046 A 
BRANCH  28  35
ATOM     34  C   LIG    1       29.587 -20.220   7.792  0.00  0.00    +0.277 C 
ATOM     35  O   LIG    1       28.329 -19.758   8.277  0.00  0.00    -0.495 OA
ENDBRANCH  28  35
ENDBRANCH  27  31
ENDBRANCH  26  27
ENDBRANCH  20  26
ENDBRANCH   1  23
TORSDOF 8
ENDMDL
MODEL 4
REMARK VINA RESULT:      -8.3      3.481      5.408
REMARK  Name = *****
REMARK                            x       y       z     vdW  Elec       q    Type
REMARK                         _______ _______ _______ _____ _____    ______ ____
ROOT
ATOM      1  N   LIG    1       23.702 -29.699   9.712  0.00  0.00    -0.312 N 
ATOM      2  H   LIG    1       23.422 -28.870   9.211  0.00  0.00    +0.149 HD
ENDROOT
BRANCH   1   3
ATOM      3  C   LIG    1       22.748 -30.423  10.359  0.00  0.00    +0.197 A 
ATOM      4  N   LIG    1       22.796 -30.679  11.722  0.00  0.00    -0.307 N 
ATOM      5  C   LIG    1       21.579 -31.230  12.085  0.00  0.00    +0.070 A 
ATOM      6  C   LIG    1       20.926 -31.420  10.870  0.00  0.00    +0.091 A 
ATOM      7  C   LIG    1       19.648 -31.997  10.850  0.00  0.00    +0.030 A 
ATOM      8  C   LIG    1       19.033 -32.318  12.065  0.00  0.00    +0.002 A 
ATOM      9  C   LIG    1       19.693 -32.099  13.274  0.00  0.00    +0.002 A 
ATOM     10  C   LIG    1       20.991 -31.569  13.312  0.00  0.00    +0.028 A 
ATOM     11  N   LIG    1       21.680 -30.951   9.826  0.00  0.00    -0.214 NA
BRANCH   4  12
ATOM     12  C   LIG    1       23.873 -30.363  12.645  0.00  0.00    +0.160 C 
BRANCH  12  13
ATOM     13  C   LIG    1       24.018 -28.877  12.910  0.00  0.00    -0.028 A 
ATOM     14  C   LIG    1       22.901 -28.072  13.198  0.00  0.00    +0.008 A 
ATOM     15  C   LIG    1       23.055 -26.712  13.478  0.00  0.00    +0.039 A 
ATOM     16  C   LIG    1       24.323 -26.149  13.477  0.00  0.00    +0.123 A 
ATOM     17  F   LIG    1       24.471 -24.845  13.747  0.00  0.00    -0.205 F 
ATOM     18  C   LIG    1       25.445 -26.922  13.205  0.00  0.00    +0.039 A 
ATOM     19  C   LIG    1       25.293 -28.284  12.925  0.00  0.00    +0.008 A 
ENDBRANCH  12  13
ENDBRANCH   4  12
ENDBRANCH   1   3
BRANCH   1  23
ATOM     20  N   LIG    1       25.401 -28.676   6.754  0.00  0.00    -0.302 NA
ATOM     21  C   LIG    1       24.306 -29.653   6.758  0.00  0.00    +0.086 C 
ATOM     22  C   LIG    1       24.521 -30.849   7.682  0.00  0.00    +0.037 C 
ATOM     23  C   LIG    1       24.847 -30.413   9.109  0.00  0.00    +0.075 C 
ATOM     24  C   LIG    1       26.095 -29.538   9.039  0.00  0.00    +0.037 C 
ATOM     25  C   LIG    1       25.897 -28.342   8.108  0.00  0.00    +0.086 C 
BRANCH  20  26
ATOM     26  C   LIG    1       24.979 -27.417   6.084  0.00  0.00    +0.089 C 
BRANCH  26  27
ATOM     27  C   LIG    1       25.936 -26.212   6.253  0.00  0.00    +0.050 C 
BRANCH  27  31
ATOM     28  C   LIG    1       23.794 -22.566   7.194  0.00  0.00    +0.120 A 
ATOM     29  C   LIG    1       25.171 -22.643   7.411  0.00  0.00    +0.046 A 
ATOM     30  C   LIG    1       25.870 -23.826   7.132  0.00  0.00    +0.007 A 
ATOM     31  C   LIG    1       25.196 -24.945   6.624  0.00  0.00    -0.046 A 
ATOM     32  C   LIG    1       23.810 -24.872   6.453  0.00  0.00    +0.007 A 
ATOM     33  C   LIG    1       23.118 -23.694   6.728  0.00  0.00    +0.046 A 
BRANCH  28  35
ATOM     34  C   LIG    1       23.177 -20.432   6.382  0.00  0.00    +0.277 C 
ATOM     35  O   LIG    1       23.209 -21.358   7.465  0.00  0.00    -0.495 OA
ENDBRANCH  28  35
ENDBRANCH  27  31
ENDBRANCH  26  27
ENDBRANCH  20  26
ENDBRANCH   1  23
TORSDOF 8
ENDMDL
MODEL 5
REMARK VINA RESULT:      -8.3      3.689     10.114
REMARK  Name = *****
REMARK                            x       y       z     vdW  Elec       q    Type
REMARK                         _______ _______ _______ _____ _____    ______ ____
ROOT
ATOM      1  N   LIG    1       24.770 -22.914   5.402  0.00  0.00    -0.312 N 
ATOM      2  H   LIG    1       24.719 -23.567   4.635  0.00  0.00    +0.149 HD
ENDROOT
BRANCH   1   3
ATOM      3  C   LIG    1       24.293 -21.653   5.218  0.00  0.00    +0.197 A 
ATOM      4  N   LIG    1       25.084 -20.613   4.751  0.00  0.00    -0.307 N 
ATOM      5  C   LIG    1       24.246 -19.548   4.465  0.00  0.00    +0.070 A 
ATOM      6  C   LIG    1       23.005 -19.969   4.937  0.00  0.00    +0.091 A 
ATOM      7  C   LIG    1       21.897 -19.115   4.836  0.00  0.00    +0.030 A 
ATOM      8  C   LIG    1       22.056 -17.874   4.209  0.00  0.00    +0.002 A 
ATOM      9  C   LIG    1       23.301 -17.479   3.722  0.00  0.00    +0.002 A 
ATOM     10  C   LIG    1       24.431 -18.299   3.857  0.00  0.00    +0.028 A 
ATOM     11  N   LIG    1       23.070 -21.247   5.426  0.00  0.00    -0.214 NA
BRANCH   4  12
ATOM     12  C   LIG    1       26.517 -20.628   4.511  0.00  0.00    +0.160 C 
BRANCH  12  13
ATOM     13  C   LIG    1       27.329 -20.175   5.709  0.00  0.00    -0.028 A 
ATOM     14  C   LIG    1       26.957 -20.525   7.020  0.00  0.00    +0.008 A 
ATOM     15  C   LIG    1       27.737 -20.132   8.111  0.00  0.00    +0.039 A 
ATOM     16  C   LIG    1       28.893 -19.394   7.900  0.00  0.00    +0.123 A 
ATOM     17  F   LIG    1       29.641 -19.019   8.946  0.00  0.00    -0.205 F 
ATOM     18  C   LIG    1       29.288 -19.042   6.616  0.00  0.00    +0.039 A 
ATOM     19  C   LIG    1       28.510 -19.434   5.522  0.00  0.00    +0.008 A 
ENDBRANCH  12  13
ENDBRANCH   4  12
ENDBRANCH   1   3
BRANCH   1  23
ATOM     20  N   LIG    1       25.200 -26.385   6.077  0.00  0.00    -0.302 NA
ATOM     21  C   LIG    1       23.894 -25.771   5.811  0.00  0.00    +0.086 C 
ATOM     22  C   LIG    1       23.539 -24.602   6.726  0.00  0.00    +0.037 C 
ATOM     23  C   LIG    1       24.634 -23.536   6.736  0.00  0.00    +0.075 C 
ATOM     24  C   LIG    1       25.923 -24.218   7.185  0.00  0.00    +0.037 C 
ATOM     25  C   LIG    1       26.283 -25.398   6.282  0.00  0.00    +0.086 C 
BRANCH  20  26
ATOM     26  C   LIG    1       25.592 -27.289   4.962  0.00  0.00    +0.089 C 
BRANCH  26  27
ATOM     27  C   LIG    1       24.680 -28.519   4.741  0.00  0.00    +0.050 C 
BRANCH  27  31
ATOM     28  C   LIG    1       25.424 -31.519   7.776  0.00  0.00    +0.120 A 
ATOM     29  C   LIG    1       25.906 -31.703   6.479  0.00  0.00    +0.046 A 
ATOM     30  C   LIG    1       25.650 -30.751   5.483  0.00  0.00    +0.007 A 
ATOM     31  C   LIG    1       24.914 -29.595   5.779  0.00  0.00    -0.046 A 
ATOM     32  C   LIG    1       24.398 -29.441   7.069  0.00  0.00    +0.007 A 
ATOM     33  C   LIG    1       24.656 -30.389   8.058  0.00  0.00    +0.046 A 
BRANCH  28  35
ATOM     34  C   LIG    1       27.126 -32.878   8.698  0.00  0.00    +0.277 C 
ATOM     35  O   LIG    1       25.755 -32.489   8.684  0.00  0.00    -0.495 OA
ENDBRANCH  28  35
ENDBRANCH  27  31
ENDBRANCH  26  27
ENDBRANCH  20  26
ENDBRANCH   1  23
TORSDOF 8
ENDMDL
MODEL 6
REMARK VINA RESULT:      -8.1      1.769      2.728
REMARK  Name = *****
REMARK                            x       y       z     vdW  Elec       q    Type
REMARK                         _______ _______ _______ _____ _____    ______ ____
ROOT
ATOM      1  N   LIG    1       24.652 -27.975   6.615  0.00  0.00    -0.312 N 
ATOM      2  H   LIG    1       23.967 -27.607   7.259  0.00  0.00    +0.149 HD
ENDROOT
BRANCH   1   3
ATOM      3  C   LIG    1       24.908 -29.312   6.630  0.00  0.00    +0.197 A 
ATOM      4  N   LIG    1       24.598 -30.123   7.712  0.00  0.00    -0.307 N 
ATOM      5  C   LIG    1       24.774 -31.437   7.311  0.00  0.00    +0.070 A 
ATOM      6  C   LIG    1       25.341 -31.323   6.044  0.00  0.00    +0.091 A 
ATOM      7  C   LIG    1       25.685 -32.479   5.331  0.00  0.00    +0.030 A 
ATOM      8  C   LIG    1       25.398 -33.729   5.890  0.00  0.00    +0.002 A 
ATOM      9  C   LIG    1       24.810 -33.824   7.151  0.00  0.00    +0.002 A 
ATOM     10  C   LIG    1       24.503 -32.679   7.900  0.00  0.00    +0.028 A 
ATOM     11  N   LIG    1       25.445 -30.010   5.666  0.00  0.00    -0.214 NA
BRANCH   4  12
ATOM     12  C   LIG    1       24.097 -29.712   9.013  0.00  0.00    +0.160 C 
BRANCH  12  13
ATOM     13  C   LIG    1       25.176 -29.640  10.075  0.00  0.00    -0.028 A 
ATOM     14  C   LIG    1       25.095 -30.403  11.253  0.00  0.00    +0.008 A 
ATOM     15  C   LIG    1       26.116 -30.355  12.205  0.00  0.00    +0.039 A 
ATOM     16  C   LIG    1       27.226 -29.551  11.985  0.00  0.00    +0.123 A 
ATOM     17  F   LIG    1       28.206 -29.506  12.897  0.00  0.00    -0.205 F 
ATOM     18  C   LIG    1       27.335 -28.793  10.826  0.00  0.00    +0.039 A 
ATOM     19  C   LIG    1       26.314 -28.840   9.871  0.00  0.00    +0.008 A 
ENDBRANCH  12  13
ENDBRANCH   4  12
ENDBRANCH   1   3
BRANCH   1  23
ATOM     20  N   LIG    1       25.570 -24.553   6.253  0.00  0.00    -0.302 NA
ATOM     21  C   LIG    1       24.178 -25.008   6.356  0.00  0.00    +0.086 C 
ATOM     22  C   LIG    1       23.771 -26.057   5.326  0.00  0.00    +0.037 C 
ATOM     23  C   LIG    1       24.721 -27.254   5.327  0.00  0.00    +0.075 C 
ATOM     24  C   LIG    1       26.122 -26.717   5.046  0.00  0.00    +0.037 C 
ATOM     25  C   LIG    1       26.538 -25.657   6.066  0.00  0.00    +0.086 C 
BRANCH  20  26
ATOM     26  C   LIG    1       25.963 -23.784   7.464  0.00  0.00    +0.089 C 
BRANCH  26  27
ATOM     27  C   LIG    1       26.371 -22.310   7.223  0.00  0.00    +0.050 C 
BRANCH  27  31
ATOM     28  C   LIG    1       23.141 -20.139   5.321  0.00  0.00    +0.120 A 
ATOM     29  C   LIG    1       24.368 -20.279   4.669  0.00  0.00    +0.046 A 
ATOM     30  C   LIG    1       25.427 -20.959   5.286  0.00  0.00    +0.007 A 
ATOM     31  C   LIG    1       25.266 -21.515   6.563  0.00  0.00    -0.046 A 
ATOM     32  C   LIG    1       24.048 -21.331   7.224  0.00  0.00    +0.007 A 
ATOM     33  C   LIG    1       22.995 -20.657   6.607  0.00  0.00    +0.046 A 
BRANCH  28  35
ATOM     34  C   LIG    1       22.267 -18.068   4.584  0.00  0.00    +0.277 C 
ATOM     35  O   LIG    1       22.160 -19.489   4.621  0.00  0.00    -0.495 OA
ENDBRANCH  28  35
ENDBRANCH  27  31
ENDBRANCH  26  27
ENDBRANCH  20  26
ENDBRANCH   1  23
TORSDOF 8
ENDMDL
MODEL 7
REMARK VINA RESULT:      -8.1      4.086      7.625
REMARK  Name = *****
REMARK                            x       y       z     vdW  Elec       q    Type
REMARK                         _______ _______ _______ _____ _____    ______ ____
ROOT
ATOM      1  N   LIG    1       26.490 -22.729   6.355  0.00  0.00    -0.312 N 
ATOM      2  H   LIG    1       27.462 -22.616   6.110  0.00  0.00    +0.149 HD
ENDROOT
BRANCH   1   3
ATOM      3  C   LIG    1       25.964 -23.985   6.367  0.00  0.00    +0.197 A 
ATOM      4  N   LIG    1       25.149 -24.468   5.354  0.00  0.00    -0.307 N 
ATOM      5  C   LIG    1       24.984 -25.826   5.563  0.00  0.00    +0.070 A 
ATOM      6  C   LIG    1       25.589 -26.046   6.797  0.00  0.00    +0.091 A 
ATOM      7  C   LIG    1       25.590 -27.335   7.351  0.00  0.00    +0.030 A 
ATOM      8  C   LIG    1       25.028 -28.385   6.618  0.00  0.00    +0.002 A 
ATOM      9  C   LIG    1       24.446 -28.150   5.372  0.00  0.00    +0.002 A 
ATOM     10  C   LIG    1       24.392 -26.860   4.824  0.00  0.00    +0.028 A 
ATOM     11  N   LIG    1       26.150 -24.895   7.285  0.00  0.00    -0.214 NA
BRANCH   4  12
ATOM     12  C   LIG    1       24.617 -23.731   4.219  0.00  0.00    +0.160 C 
BRANCH  12  13
ATOM     13  C   LIG    1       24.021 -22.391   4.600  0.00  0.00    -0.028 A 
ATOM     14  C   LIG    1       24.297 -21.229   3.858  0.00  0.00    +0.008 A 
ATOM     15  C   LIG    1       23.710 -20.008   4.199  0.00  0.00    +0.039 A 
ATOM     16  C   LIG    1       22.841 -19.941   5.280  0.00  0.00    +0.123 A 
ATOM     17  F   LIG    1       22.277 -18.770   5.606  0.00  0.00    -0.205 F 
ATOM     18  C   LIG    1       22.545 -21.074   6.025  0.00  0.00    +0.039 A 
ATOM     19  C   LIG    1       23.131 -22.297   5.685  0.00  0.00    +0.008 A 
ENDBRANCH  12  13
ENDBRANCH   4  12
ENDBRANCH   1   3
BRANCH   1  23
ATOM     20  N   LIG    1       28.490 -20.223   7.905  0.00  0.00    -0.302 NA
ATOM     21  C   LIG    1       28.218 -21.530   8.515  0.00  0.00    +0.086 C 
ATOM     22  C   LIG    1       26.738 -21.873   8.661  0.00  0.00    +0.037 C 
ATOM     23  C   LIG    1       25.992 -21.742   7.334  0.00  0.00    +0.075 C 
ATOM     24  C   LIG    1       26.182 -20.307   6.849  0.00  0.00    +0.037 C 
ATOM     25  C   LIG    1       27.662 -19.949   6.710  0.00  0.00    +0.086 C 
BRANCH  20  26
ATOM     26  C   LIG    1       29.922 -20.110   7.521  0.00  0.00    +0.089 C 
BRANCH  26  27
ATOM     27  C   LIG    1       30.439 -18.674   7.263  0.00  0.00    +0.050 C 
BRANCH  27  31
ATOM     28  C   LIG    1       31.661 -16.635  10.885  0.00  0.00    +0.120 A 
ATOM     29  C   LIG    1       32.566 -16.795   9.834  0.00  0.00    +0.046 A 
ATOM     30  C   LIG    1       32.188 -17.474   8.667  0.00  0.00    +0.007 A 
ATOM     31  C   LIG    1       30.893 -17.995   8.537  0.00  0.00    -0.046 A 
ATOM     32  C   LIG    1       30.009 -17.868   9.613  0.00  0.00    +0.007 A 
ATOM     33  C   LIG    1       30.387 -17.190  10.771  0.00  0.00    +0.046 A 
BRANCH  28  35
ATOM     34  C   LIG    1       32.439 -16.703  13.118  0.00  0.00    +0.277 C 
ATOM     35  O   LIG    1       32.115 -15.929  11.966  0.00  0.00    -0.495 OA
ENDBRANCH  28  35
ENDBRANCH  27  31
ENDBRANCH  26  27
ENDBRANCH  20  26
ENDBRANCH   1  23
TORSDOF 8
ENDMDL
MODEL 8
REMARK VINA RESULT:      -7.9      4.209     10.383
REMARK  Name = *****
REMARK                            x       y       z     vdW  Elec       q    Type
REMARK                         _______ _______ _______ _____ _____    ______ ____
ROOT
ATOM      1  N   LIG    1       24.994 -21.057   6.913  0.00  0.00    -0.312 N 
ATOM      2  H   LIG    1       24.254 -20.414   6.671  0.00  0.00    +0.149 HD
ENDROOT
BRANCH   1   3
ATOM      3  C   LIG    1       26.281 -20.616   6.863  0.00  0.00    +0.197 A 
ATOM      4  N   LIG    1       26.887 -20.201   5.686  0.00  0.00    -0.307 N 
ATOM      5  C   LIG    1       28.093 -19.610   6.023  0.00  0.00    +0.070 A 
ATOM      6  C   LIG    1       28.210 -19.856   7.389  0.00  0.00    +0.091 A 
ATOM      7  C   LIG    1       29.347 -19.413   8.079  0.00  0.00    +0.030 A 
ATOM      8  C   LIG    1       30.318 -18.683   7.385  0.00  0.00    +0.002 A 
ATOM      9  C   LIG    1       30.172 -18.427   6.021  0.00  0.00    +0.002 A 
ATOM     10  C   LIG    1       29.066 -18.903   5.303  0.00  0.00    +0.028 A 
ATOM     11  N   LIG    1       27.104 -20.505   7.871  0.00  0.00    -0.214 NA
BRANCH   4  12
ATOM     12  C   LIG    1       26.348 -20.277   4.338  0.00  0.00    +0.160 C 
BRANCH  12  13
ATOM     13  C   LIG    1       24.930 -19.752   4.229  0.00  0.00    -0.028 A 
ATOM     14  C   LIG    1       23.824 -20.559   4.553  0.00  0.00    +0.008 A 
ATOM     15  C   LIG    1       22.525 -20.050   4.484  0.00  0.00    +0.039 A 
ATOM     16  C   LIG    1       22.322 -18.731   4.098  0.00  0.00    +0.123 A 
ATOM     17  F   LIG    1       21.077 -18.242   4.034  0.00  0.00    -0.205 F 
ATOM     18  C   LIG    1       23.397 -17.910   3.781  0.00  0.00    +0.039 A 
ATOM     19  C   LIG    1       24.698 -18.418   3.849  0.00  0.00    +0.008 A 
ENDBRANCH  12  13
ENDBRANCH   4  12
ENDBRANCH   1   3
BRANCH   1  23
ATOM     20  N   LIG    1       24.676 -24.558   6.343  0.00  0.00    -0.302 NA
ATOM     21  C   LIG    1       23.544 -23.626   6.290  0.00  0.00    +0.086 C 
ATOM     22  C   LIG    1       23.347 -22.787   7.550  0.00  0.00    +0.037 C 
ATOM     23  C   LIG    1       24.624 -22.047   7.945  0.00  0.00    +0.075 C 
ATOM     24  C   LIG    1       25.711 -23.099   8.146  0.00  0.00    +0.037 C 
ATOM     25  C   LIG    1       25.910 -23.954   6.893  0.00  0.00    +0.086 C 
BRANCH  20  26
ATOM     26  C   LIG    1       24.979 -25.094   4.989  0.00  0.00    +0.089 C 
BRANCH  26  27
ATOM     27  C   LIG    1       25.924 -26.319   4.947  0.00  0.00    +0.050 C 
BRANCH  27  31
ATOM     28  C   LIG    1       24.258 -29.602   7.230  0.00  0.00    +0.120 A 
ATOM     29  C   LIG    1       25.163 -28.722   7.829  0.00  0.00    +0.046 A 
ATOM     30  C   LIG    1       25.726 -27.671   7.093  0.00  0.00    +0.007 A 
ATOM     31  C   LIG    1       25.383 -27.484   5.746  0.00  0.00    -0.046 A 
ATOM     32  C   LIG    1       24.511 -28.397   5.144  0.00  0.00    +0.007 A 
ATOM     33  C   LIG    1       23.950 -29.439   5.880  0.00  0.00    +0.046 A 
BRANCH  28  35
ATOM     34  C   LIG    1       23.852 -30.334   9.443  0.00  0.00    +0.277 C 
ATOM     35  O   LIG    1       23.739 -30.574   8.043  0.00  0.00    -0.495 OA
ENDBRANCH  28  35
ENDBRANCH  27  31
ENDBRANCH  26  27
ENDBRANCH  20  26
ENDBRANCH   1  23
TORSDOF 8
ENDMDL
MODEL 9
REMARK VINA RESULT:      -7.8      4.888      7.564
REMARK  Name = *****
REMARK                            x       y       z     vdW  Elec       q    Type
REMARK                         _______ _______ _______ _____ _____    ______ ____
ROOT
ATOM      1  N   LIG    1       26.178 -30.128  10.796  0.00  0.00    -0.312 N 
ATOM      2  H   LIG    1       25.301 -29.641  10.905  0.00  0.00    +0.149 HD
ENDROOT
BRANCH   1   3
ATOM      3  C   LIG    1       26.335 -30.957   9.727  0.00  0.00    +0.197 A 
ATOM      4  N   LIG    1       25.601 -30.820   8.558  0.00  0.00    -0.307 N 
ATOM      5  C   LIG    1       26.163 -31.661   7.613  0.00  0.00    +0.070 A 
ATOM      6  C   LIG    1       27.114 -32.379   8.333  0.00  0.00    +0.091 A 
ATOM      7  C   LIG    1       27.876 -33.363   7.688  0.00  0.00    +0.030 A 
ATOM      8  C   LIG    1       27.700 -33.562   6.314  0.00  0.00    +0.002 A 
ATOM      9  C   LIG    1       26.758 -32.818   5.605  0.00  0.00    +0.002 A 
ATOM     10  C   LIG    1       25.951 -31.864   6.242  0.00  0.00    +0.028 A 
ATOM     11  N   LIG    1       27.174 -31.953   9.634  0.00  0.00    -0.214 NA
BRANCH   4  12
ATOM     12  C   LIG    1       24.494 -29.911   8.308  0.00  0.00    +0.160 C 
BRANCH  12  13
ATOM     13  C   LIG    1       24.845 -28.790   7.349  0.00  0.00    -0.028 A 
ATOM     14  C   LIG    1       24.180 -28.645   6.118  0.00  0.00    +0.008 A 
ATOM     15  C   LIG    1       24.488 -27.585   5.262  0.00  0.00    +0.039 A 
ATOM     16  C   LIG    1       25.457 -26.661   5.631  0.00  0.00    +0.123 A 
ATOM     17  F   LIG    1       25.751 -25.644   4.811  0.00  0.00    -0.205 F 
ATOM     18  C   LIG    1       26.123 -26.777   6.844  0.00  0.00    +0.039 A 
ATOM     19  C   LIG    1       25.816 -27.837   7.703  0.00  0.00    +0.008 A 
ENDBRANCH  12  13
ENDBRANCH   4  12
ENDBRANCH   1   3
BRANCH   1  23
ATOM     20  N   LIG    1       26.144 -27.918  13.589  0.00  0.00    -0.302 NA
ATOM     21  C   LIG    1       25.970 -27.469  12.202  0.00  0.00    +0.086 C 
ATOM     22  C   LIG    1       27.092 -27.877  11.252  0.00  0.00    +0.037 C 
ATOM     23  C   LIG    1       27.352 -29.382  11.293  0.00  0.00    +0.075 C 
ATOM     24  C   LIG    1       27.692 -29.742  12.737  0.00  0.00    +0.037 C 
ATOM     25  C   LIG    1       26.579 -29.328  13.700  0.00  0.00    +0.086 C 
BRANCH  20  26
ATOM     26  C   LIG    1       24.882 -27.753  14.358  0.00  0.00    +0.089 C 
BRANCH  26  27
ATOM     27  C   LIG    1       24.145 -26.406  14.162  0.00  0.00    +0.050 C 
BRANCH  27  31
ATOM     28  C   LIG    1       19.854 -26.976  14.339  0.00  0.00    +0.120 A 
ATOM     29  C   LIG    1       20.532 -27.143  13.129  0.00  0.00    +0.046 A 
ATOM     30  C   LIG    1       21.917 -26.938  13.056  0.00  0.00    +0.007 A 
ATOM     31  C   LIG    1       22.641 -26.569  14.198  0.00  0.00    -0.046 A 
ATOM     32  C   LIG    1       21.947 -26.362  15.394  0.00  0.00    +0.007 A 
ATOM     33  C   LIG    1       20.570 -26.570  15.465  0.00  0.00    +0.046 A 
BRANCH  28  35
ATOM     34  C   LIG    1       17.673 -26.113  14.040  0.00  0.00    +0.277 C 
ATOM     35  O   LIG    1       18.510 -27.233  14.314  0.00  0.00    -0.495 OA
ENDBRANCH  28  35
ENDBRANCH  27  31
ENDBRANCH  26  27
ENDBRANCH  20  26
ENDBRANCH   1  23
TORSDOF 8
ENDMDL
