MODEL 1
REMARK VINA RESULT:      -3.9      0.000      0.000
REMARK  Name = *****
REMARK                            x       y       z     vdW  Elec       q    Type
REMARK                         _______ _______ _______ _____ _____    ______ ____
ROOT
ATOM      1  N   LIG    1       20.881 -18.342   3.241  0.00  0.00    -0.313 N 
ATOM      2  H   LIG    1       21.438 -17.866   2.546  0.00  0.00    +0.146 HD
ATOM      3  H   LIG    1       19.984 -18.687   2.924  0.00  0.00    +0.146 HD
ATOM      4  C   LIG    1       21.537 -19.218   4.062  0.00  0.00    +0.308 C 
ATOM      5  N   LIG    1       22.873 -18.909   4.339  0.00  0.00    -0.224 N 
ATOM      6  C   LIG    1       23.674 -19.802   5.135  0.00  0.00    +0.050 A 
ATOM      7  C   LIG    1       25.028 -20.067   4.841  0.00  0.00    -0.003 A 
ATOM      8  C   LIG    1       25.759 -20.950   5.658  0.00  0.00    +0.010 A 
ATOM      9  C   LIG    1       25.172 -21.559   6.766  0.00  0.00    +0.001 A 
ATOM     10  C   LIG    1       23.840 -21.306   7.062  0.00  0.00    +0.002 A 
ATOM     11  C   LIG    1       25.708 -19.571   3.639  0.00  0.00    +0.010 C 
ATOM     12  C   LIG    1       25.553 -18.348   3.123  0.00  0.00    +0.010 C 
ATOM     13  C   LIG    1       24.683 -17.313   3.687  0.00  0.00    -0.003 A 
ATOM     14  C   LIG    1       25.134 -15.983   3.587  0.00  0.00    +0.010 A 
ATOM     15  C   LIG    1       24.346 -14.922   4.032  0.00  0.00    +0.001 A 
ATOM     16  C   LIG    1       23.093 -15.174   4.573  0.00  0.00    +0.002 A 
ATOM     17  C   LIG    1       22.630 -16.487   4.664  0.00  0.00    +0.024 A 
ATOM     18  C   LIG    1       23.100 -20.441   6.252  0.00  0.00    +0.024 A 
ATOM     19  C   LIG    1       23.407 -17.576   4.220  0.00  0.00    +0.050 A 
ATOM     20  O   LIG    1       20.921 -20.225   4.407  0.00  0.00    -0.252 OA
ENDROOT
TORSDOF 0
ENDMDL
MODEL 2
REMARK VINA RESULT:      -2.1      3.398      5.157
REMARK  Name = *****
REMARK                            x       y       z     vdW  Elec       q    Type
REMARK                         _______ _______ _______ _____ _____    ______ ____
ROOT
ATOM      1  N   LIG    1       27.977 -14.234   4.451  0.00  0.00    -0.313 N 
ATOM      2  H   LIG    1       27.430 -13.477   4.833  0.00  0.00    +0.146 HD
ATOM      3  H   LIG    1       28.901 -14.351   4.845  0.00  0.00    +0.146 HD
ATOM      4  C   LIG    1       27.327 -15.419   4.239  0.00  0.00    +0.308 C 
ATOM      5  N   LIG    1       25.967 -15.320   3.924  0.00  0.00    -0.224 N 
ATOM      6  C   LIG    1       25.174 -16.509   3.752  0.00  0.00    +0.050 A 
ATOM      7  C   LIG    1       23.847 -16.606   4.222  0.00  0.00    -0.003 A 
ATOM      8  C   LIG    1       23.123 -17.797   4.023  0.00  0.00    +0.010 A 
ATOM      9  C   LIG    1       23.688 -18.881   3.354  0.00  0.00    +0.001 A 
ATOM     10  C   LIG    1       24.993 -18.795   2.891  0.00  0.00    +0.002 A 
ATOM     11  C   LIG    1       23.198 -15.571   5.034  0.00  0.00    +0.010 C 
ATOM     12  C   LIG    1       23.320 -14.255   4.835  0.00  0.00    +0.010 C 
ATOM     13  C   LIG    1       24.116 -13.647   3.768  0.00  0.00    -0.003 A 
ATOM     14  C   LIG    1       23.611 -12.465   3.194  0.00  0.00    +0.010 A 
ATOM     15  C   LIG    1       24.330 -11.774   2.220  0.00  0.00    +0.001 A 
ATOM     16  C   LIG    1       25.569 -12.249   1.812  0.00  0.00    +0.002 A 
ATOM     17  C   LIG    1       26.087 -13.412   2.383  0.00  0.00    +0.024 A 
ATOM     18  C   LIG    1       25.727 -17.624   3.092  0.00  0.00    +0.024 A 
ATOM     19  C   LIG    1       25.379 -14.126   3.371  0.00  0.00    +0.050 A 
ATOM     20  O   LIG    1       27.972 -16.449   4.427  0.00  0.00    -0.252 OA
ENDROOT
TORSDOF 0
ENDMDL
