MODEL 1
REMARK VINA RESULT:      -9.4      0.000      0.000
REMARK  Name = *****
REMARK                            x       y       z     vdW  Elec       q    Type
REMARK                         _______ _______ _______ _____ _____    ______ ____
ROOT
ATOM      1  C   LIG    1       24.594 -21.711   7.450  0.00  0.00    +0.095 C 
ENDROOT
BRANCH   1   2
ATOM      2  C   LIG    1       24.695 -23.185   7.007  0.00  0.00    -0.016 A 
ATOM      3  C   LIG    1       23.556 -23.937   6.647  0.00  0.00    +0.006 A 
ATOM      4  C   LIG    1       23.664 -25.276   6.255  0.00  0.00    +0.000 A 
ATOM      5  C   LIG    1       24.902 -25.893   6.190  0.00  0.00    +0.000 A 
ATOM      6  C   LIG    1       26.047 -25.175   6.535  0.00  0.00    +0.000 A 
ATOM      7  C   LIG    1       25.938 -23.840   6.946  0.00  0.00    +0.006 A 
ENDBRANCH   1   2
BRANCH   1   8
ATOM      8  C   LIG    1       24.474 -20.756   6.210  0.00  0.00    +0.025 C 
ATOM      9  C   LIG    1       24.767 -21.419   4.854  0.00  0.00    +0.006 C 
ATOM     10  C   LIG    1       24.050 -20.535   3.843  0.00  0.00    +0.000 C 
ATOM     11  C   LIG    1       22.730 -20.237   4.527  0.00  0.00    +0.000 C 
ATOM     12  C   LIG    1       23.073 -20.119   6.010  0.00  0.00    +0.006 C 
ENDBRANCH   1   8
BRANCH   1  13
ATOM     13  O   LIG    1       23.426 -21.489   8.251  0.00  0.00    -0.384 OA
ATOM     14  H   LIG    1       23.703 -21.072   9.081  0.00  0.00    +0.211 HD
ENDBRANCH   1  13
BRANCH   1  15
ATOM     15  C   LIG    1       25.838 -21.299   8.295  0.00  0.00    +0.055 C 
BRANCH  15  16
ATOM     16  C   LIG    1       26.792 -20.267   7.654  0.00  0.00    +0.087 C 
BRANCH  16  17
ATOM     17  N   LIG    1       27.841 -20.910   6.834  0.00  0.00    -0.302 NA
ATOM     18  C   LIG    1       28.231 -20.094   5.672  0.00  0.00    +0.084 C 
ATOM     19  C   LIG    1       29.093 -18.876   6.017  0.00  0.00    +0.015 C 
ATOM     20  C   LIG    1       30.306 -19.254   6.862  0.00  0.00    +0.002 C 
ATOM     21  C   LIG    1       29.921 -20.152   8.032  0.00  0.00    +0.015 C 
ATOM     22  C   LIG    1       29.042 -21.318   7.579  0.00  0.00    +0.084 C 
ENDBRANCH  16  17
ENDBRANCH  15  16
ENDBRANCH   1  15
TORSDOF 6
ENDMDL
MODEL 2
REMARK VINA RESULT:      -9.3      0.015      1.048
REMARK  Name = *****
REMARK                            x       y       z     vdW  Elec       q    Type
REMARK                         _______ _______ _______ _____ _____    ______ ____
ROOT
ATOM      1  C   LIG    1       24.607 -21.708   7.452  0.00  0.00    +0.095 C 
ENDROOT
BRANCH   1   2
ATOM      2  C   LIG    1       24.714 -23.183   7.010  0.00  0.00    -0.016 A 
ATOM      3  C   LIG    1       25.954 -23.854   6.948  0.00  0.00    +0.006 A 
ATOM      4  C   LIG    1       26.037 -25.190   6.537  0.00  0.00    +0.000 A 
ATOM      5  C   LIG    1       24.892 -25.895   6.201  0.00  0.00    +0.000 A 
ATOM      6  C   LIG    1       23.652 -25.259   6.256  0.00  0.00    +0.000 A 
ATOM      7  C   LIG    1       23.571 -23.917   6.649  0.00  0.00    +0.006 A 
ENDBRANCH   1   2
BRANCH   1   8
ATOM      8  C   LIG    1       24.486 -20.754   6.211  0.00  0.00    +0.025 C 
ATOM      9  C   LIG    1       24.778 -21.419   4.856  0.00  0.00    +0.006 C 
ATOM     10  C   LIG    1       24.061 -20.535   3.844  0.00  0.00    +0.000 C 
ATOM     11  C   LIG    1       22.742 -20.237   4.529  0.00  0.00    +0.000 C 
ATOM     12  C   LIG    1       23.085 -20.117   6.013  0.00  0.00    +0.006 C 
ENDBRANCH   1   8
BRANCH   1  13
ATOM     13  O   LIG    1       23.435 -21.491   8.250  0.00  0.00    -0.384 OA
ATOM     14  H   LIG    1       23.307 -22.268   8.816  0.00  0.00    +0.211 HD
ENDBRANCH   1  13
BRANCH   1  15
ATOM     15  C   LIG    1       25.847 -21.292   8.301  0.00  0.00    +0.055 C 
BRANCH  15  16
ATOM     16  C   LIG    1       26.802 -20.261   7.659  0.00  0.00    +0.087 C 
BRANCH  16  17
ATOM     17  N   LIG    1       27.847 -20.904   6.835  0.00  0.00    -0.302 NA
ATOM     18  C   LIG    1       28.237 -20.085   5.676  0.00  0.00    +0.084 C 
ATOM     19  C   LIG    1       29.105 -18.871   6.024  0.00  0.00    +0.015 C 
ATOM     20  C   LIG    1       30.318 -19.258   6.865  0.00  0.00    +0.002 C 
ATOM     21  C   LIG    1       29.932 -20.159   8.033  0.00  0.00    +0.015 C 
ATOM     22  C   LIG    1       29.047 -21.319   7.576  0.00  0.00    +0.084 C 
ENDBRANCH  16  17
ENDBRANCH  15  16
ENDBRANCH   1  15
TORSDOF 6
ENDMDL
MODEL 3
REMARK VINA RESULT:      -9.0      2.214      5.924
REMARK  Name = *****
REMARK                            x       y       z     vdW  Elec       q    Type
REMARK                         _______ _______ _______ _____ _____    ______ ____
ROOT
ATOM      1  C   LIG    1       24.152 -22.565   6.365  0.00  0.00    +0.095 C 
ENDROOT
BRANCH   1   2
ATOM      2  C   LIG    1       23.861 -21.314   5.510  0.00  0.00    -0.016 A 
ATOM      3  C   LIG    1       22.736 -20.494   5.746  0.00  0.00    +0.006 A 
ATOM      4  C   LIG    1       22.481 -19.367   4.957  0.00  0.00    +0.000 A 
ATOM      5  C   LIG    1       23.345 -19.014   3.932  0.00  0.00    +0.000 A 
ATOM      6  C   LIG    1       24.467 -19.803   3.678  0.00  0.00    +0.000 A 
ATOM      7  C   LIG    1       24.712 -20.942   4.455  0.00  0.00    +0.006 A 
ENDBRANCH   1   2
BRANCH   1   8
ATOM      8  C   LIG    1       25.172 -22.240   7.513  0.00  0.00    +0.025 C 
ATOM      9  C   LIG    1       26.636 -22.583   7.190  0.00  0.00    +0.006 C 
ATOM     10  C   LIG    1       27.443 -21.690   8.124  0.00  0.00    +0.000 C 
ATOM     11  C   LIG    1       26.703 -20.368   8.053  0.00  0.00    +0.000 C 
ATOM     12  C   LIG    1       25.229 -20.747   7.931  0.00  0.00    +0.006 C 
ENDBRANCH   1   8
BRANCH   1  13
ATOM     13  O   LIG    1       22.961 -23.047   7.001  0.00  0.00    -0.384 OA
ATOM     14  H   LIG    1       22.472 -22.283   7.345  0.00  0.00    +0.211 HD
ENDBRANCH   1  13
BRANCH   1  15
ATOM     15  C   LIG    1       24.723 -23.718   5.483  0.00  0.00    +0.055 C 
BRANCH  15  16
ATOM     16  C   LIG    1       24.254 -25.147   5.835  0.00  0.00    +0.087 C 
BRANCH  16  17
ATOM     17  N   LIG    1       25.164 -26.181   5.298  0.00  0.00    -0.302 NA
ATOM     18  C   LIG    1       26.380 -26.342   6.113  0.00  0.00    +0.084 C 
ATOM     19  C   LIG    1       26.158 -27.071   7.441  0.00  0.00    +0.015 C 
ATOM     20  C   LIG    1       25.437 -28.402   7.250  0.00  0.00    +0.002 C 
ATOM     21  C   LIG    1       24.211 -28.257   6.356  0.00  0.00    +0.015 C 
ATOM     22  C   LIG    1       24.541 -27.494   5.073  0.00  0.00    +0.084 C 
ENDBRANCH  16  17
ENDBRANCH  15  16
ENDBRANCH   1  15
TORSDOF 6
ENDMDL
MODEL 4
REMARK VINA RESULT:      -9.0      0.905      1.709
REMARK  Name = *****
REMARK                            x       y       z     vdW  Elec       q    Type
REMARK                         _______ _______ _______ _____ _____    ______ ____
ROOT
ATOM      1  C   LIG    1       24.731 -21.247   6.407  0.00  0.00    +0.095 C 
ENDROOT
BRANCH   1   2
ATOM      2  C   LIG    1       24.763 -22.789   6.467  0.00  0.00    -0.016 A 
ATOM      3  C   LIG    1       25.973 -23.506   6.581  0.00  0.00    +0.006 A 
ATOM      4  C   LIG    1       25.987 -24.905   6.626  0.00  0.00    +0.000 A 
ATOM      5  C   LIG    1       24.802 -25.622   6.582  0.00  0.00    +0.000 A 
ATOM      6  C   LIG    1       23.590 -24.941   6.473  0.00  0.00    +0.000 A 
ATOM      7  C   LIG    1       23.577 -23.542   6.409  0.00  0.00    +0.006 A 
ENDBRANCH   1   2
BRANCH   1   8
ATOM      8  C   LIG    1       23.732 -20.746   5.304  0.00  0.00    +0.025 C 
ATOM      9  C   LIG    1       22.710 -19.703   5.787  0.00  0.00    +0.006 C 
ATOM     10  C   LIG    1       22.290 -18.977   4.515  0.00  0.00    +0.000 C 
ATOM     11  C   LIG    1       23.601 -18.801   3.776  0.00  0.00    +0.000 C 
ATOM     12  C   LIG    1       24.399 -20.066   4.080  0.00  0.00    +0.006 C 
ENDBRANCH   1   8
BRANCH   1  13
ATOM     13  O   LIG    1       24.283 -20.689   7.649  0.00  0.00    -0.384 OA
ATOM     14  H   LIG    1       24.989 -20.123   7.998  0.00  0.00    +0.211 HD
ENDBRANCH   1  13
BRANCH   1  15
ATOM     15  C   LIG    1       26.151 -20.675   6.110  0.00  0.00    +0.055 C 
BRANCH  15  16
ATOM     16  C   LIG    1       27.071 -20.454   7.331  0.00  0.00    +0.087 C 
BRANCH  16  17
ATOM     17  N   LIG    1       28.470 -20.841   7.055  0.00  0.00    -0.302 NA
ATOM     18  C   LIG    1       28.994 -20.225   5.824  0.00  0.00    +0.084 C 
ATOM     19  C   LIG    1       29.317 -18.734   5.953  0.00  0.00    +0.015 C 
ATOM     20  C   LIG    1       30.222 -18.445   7.147  0.00  0.00    +0.002 C 
ATOM     21  C   LIG    1       29.721 -19.132   8.414  0.00  0.00    +0.015 C 
ATOM     22  C   LIG    1       29.406 -20.606   8.164  0.00  0.00    +0.084 C 
ENDBRANCH  16  17
ENDBRANCH  15  16
ENDBRANCH   1  15
TORSDOF 6
ENDMDL
MODEL 5
REMARK VINA RESULT:      -8.7      2.076      5.315
REMARK  Name = *****
REMARK                            x       y       z     vdW  Elec       q    Type
REMARK                         _______ _______ _______ _____ _____    ______ ____
ROOT
ATOM      1  C   LIG    1       24.155 -22.136   5.513  0.00  0.00    +0.095 C 
ENDROOT
BRANCH   1   2
ATOM      2  C   LIG    1       25.173 -21.468   6.460  0.00  0.00    -0.016 A 
ATOM      3  C   LIG    1       26.385 -20.921   5.987  0.00  0.00    +0.006 A 
ATOM      4  C   LIG    1       27.302 -20.325   6.860  0.00  0.00    +0.000 A 
ATOM      5  C   LIG    1       27.030 -20.238   8.216  0.00  0.00    +0.000 A 
ATOM      6  C   LIG    1       25.838 -20.765   8.712  0.00  0.00    +0.000 A 
ATOM      7  C   LIG    1       24.928 -21.379   7.841  0.00  0.00    +0.006 A 
ENDBRANCH   1   2
BRANCH   1   8
ATOM      8  C   LIG    1       23.219 -21.067   4.844  0.00  0.00    +0.025 C 
ATOM      9  C   LIG    1       22.782 -19.922   5.773  0.00  0.00    +0.006 C 
ATOM     10  C   LIG    1       22.421 -18.788   4.822  0.00  0.00    +0.000 C 
ATOM     11  C   LIG    1       23.526 -18.848   3.787  0.00  0.00    +0.000 C 
ATOM     12  C   LIG    1       23.834 -20.335   3.623  0.00  0.00    +0.006 C 
ENDBRANCH   1   8
BRANCH   1  13
ATOM     13  O   LIG    1       24.816 -22.825   4.443  0.00  0.00    -0.384 OA
ATOM     14  H   LIG    1       25.568 -23.311   4.817  0.00  0.00    +0.211 HD
ENDBRANCH   1  13
BRANCH   1  15
ATOM     15  C   LIG    1       23.280 -23.174   6.282  0.00  0.00    +0.055 C 
BRANCH  15  16
ATOM     16  C   LIG    1       24.011 -24.428   6.810  0.00  0.00    +0.087 C 
BRANCH  16  17
ATOM     17  N   LIG    1       24.843 -25.069   5.770  0.00  0.00    -0.302 NA
ATOM     18  C   LIG    1       26.182 -25.434   6.263  0.00  0.00    +0.084 C 
ATOM     19  C   LIG    1       26.204 -26.655   7.186  0.00  0.00    +0.015 C 
ATOM     20  C   LIG    1       25.494 -27.855   6.566  0.00  0.00    +0.002 C 
ATOM     21  C   LIG    1       24.132 -27.473   5.996  0.00  0.00    +0.015 C 
ATOM     22  C   LIG    1       24.224 -26.229   5.112  0.00  0.00    +0.084 C 
ENDBRANCH  16  17
ENDBRANCH  15  16
ENDBRANCH   1  15
TORSDOF 6
ENDMDL
MODEL 6
REMARK VINA RESULT:      -8.3      1.612      5.530
REMARK  Name = *****
REMARK                            x       y       z     vdW  Elec       q    Type
REMARK                         _______ _______ _______ _____ _____    ______ ____
ROOT
ATOM      1  C   LIG    1       26.333 -21.162   7.511  0.00  0.00    +0.095 C 
ENDROOT
BRANCH   1   2
ATOM      2  C   LIG    1       25.260 -20.717   6.496  0.00  0.00    -0.016 A 
ATOM      3  C   LIG    1       25.586 -20.378   5.165  0.00  0.00    +0.006 A 
ATOM      4  C   LIG    1       24.602 -19.968   4.258  0.00  0.00    +0.000 A 
ATOM      5  C   LIG    1       23.272 -19.906   4.642  0.00  0.00    +0.000 A 
ATOM      6  C   LIG    1       22.919 -20.238   5.950  0.00  0.00    +0.000 A 
ATOM      7  C   LIG    1       23.905 -20.630   6.863  0.00  0.00    +0.006 A 
ENDBRANCH   1   2
BRANCH   1   8
ATOM      8  C   LIG    1       27.775 -21.025   6.905  0.00  0.00    +0.025 C 
ATOM      9  C   LIG    1       28.174 -19.594   6.506  0.00  0.00    +0.006 C 
ATOM     10  C   LIG    1       29.697 -19.614   6.520  0.00  0.00    +0.000 C 
ATOM     11  C   LIG    1       30.015 -20.413   7.768  0.00  0.00    +0.000 C 
ATOM     12  C   LIG    1       28.923 -21.477   7.846  0.00  0.00    +0.006 C 
ENDBRANCH   1   8
BRANCH   1  13
ATOM     13  O   LIG    1       26.305 -20.342   8.688  0.00  0.00    -0.384 OA
ATOM     14  H   LIG    1       26.554 -20.894   9.446  0.00  0.00    +0.211 HD
ENDBRANCH   1  13
BRANCH   1  15
ATOM     15  C   LIG    1       26.100 -22.640   7.952  0.00  0.00    +0.055 C 
BRANCH  15  16
ATOM     16  C   LIG    1       26.319 -23.720   6.870  0.00  0.00    +0.087 C 
BRANCH  16  17
ATOM     17  N   LIG    1       25.361 -24.839   6.996  0.00  0.00    -0.302 NA
ATOM     18  C   LIG    1       24.364 -24.855   5.912  0.00  0.00    +0.084 C 
ATOM     19  C   LIG    1       24.908 -25.329   4.561  0.00  0.00    +0.015 C 
ATOM     20  C   LIG    1       25.629 -26.669   4.673  0.00  0.00    +0.002 C 
ATOM     21  C   LIG    1       26.618 -26.683   5.833  0.00  0.00    +0.015 C 
ATOM     22  C   LIG    1       25.978 -26.167   7.122  0.00  0.00    +0.084 C 
ENDBRANCH  16  17
ENDBRANCH  15  16
ENDBRANCH   1  15
TORSDOF 6
ENDMDL
MODEL 7
REMARK VINA RESULT:      -8.2      1.148      3.710
REMARK  Name = *****
REMARK                            x       y       z     vdW  Elec       q    Type
REMARK                         _______ _______ _______ _____ _____    ______ ____
ROOT
ATOM      1  C   LIG    1       25.587 -21.683   6.770  0.00  0.00    +0.095 C 
ENDROOT
BRANCH   1   2
ATOM      2  C   LIG    1       24.667 -20.790   5.912  0.00  0.00    -0.016 A 
ATOM      3  C   LIG    1       23.379 -20.411   6.347  0.00  0.00    +0.006 A 
ATOM      4  C   LIG    1       22.552 -19.607   5.553  0.00  0.00    +0.000 A 
ATOM      5  C   LIG    1       22.991 -19.144   4.323  0.00  0.00    +0.000 A 
ATOM      6  C   LIG    1       24.261 -19.499   3.869  0.00  0.00    +0.000 A 
ATOM      7  C   LIG    1       25.081 -20.318   4.654  0.00  0.00    +0.006 A 
ENDBRANCH   1   2
BRANCH   1   8
ATOM      8  C   LIG    1       24.862 -23.015   7.178  0.00  0.00    +0.025 C 
ATOM      9  C   LIG    1       23.684 -23.410   6.273  0.00  0.00    +0.006 C 
ATOM     10  C   LIG    1       23.545 -24.913   6.477  0.00  0.00    +0.000 C 
ATOM     11  C   LIG    1       24.984 -25.390   6.483  0.00  0.00    +0.000 C 
ATOM     12  C   LIG    1       25.766 -24.276   7.175  0.00  0.00    +0.006 C 
ENDBRANCH   1   8
BRANCH   1  13
ATOM     13  O   LIG    1       26.764 -22.064   6.044  0.00  0.00    -0.384 OA
ATOM     14  H   LIG    1       26.499 -22.677   5.341  0.00  0.00    +0.211 HD
ENDBRANCH   1  13
BRANCH   1  15
ATOM     15  C   LIG    1       26.043 -20.932   8.059  0.00  0.00    +0.055 C 
BRANCH  15  16
ATOM     16  C   LIG    1       27.292 -20.032   7.923  0.00  0.00    +0.087 C 
BRANCH  16  17
ATOM     17  N   LIG    1       28.347 -20.662   7.100  0.00  0.00    -0.302 NA
ATOM     18  C   LIG    1       28.776 -19.807   5.981  0.00  0.00    +0.084 C 
ATOM     19  C   LIG    1       29.653 -18.621   6.393  0.00  0.00    +0.015 C 
ATOM     20  C   LIG    1       30.840 -19.056   7.247  0.00  0.00    +0.002 C 
ATOM     21  C   LIG    1       30.413 -19.993   8.372  0.00  0.00    +0.015 C 
ATOM     22  C   LIG    1       29.523 -21.122   7.852  0.00  0.00    +0.084 C 
ENDBRANCH  16  17
ENDBRANCH  15  16
ENDBRANCH   1  15
TORSDOF 6
ENDMDL
MODEL 8
REMARK VINA RESULT:      -8.1      1.761      5.240
REMARK  Name = *****
REMARK                            x       y       z     vdW  Elec       q    Type
REMARK                         _______ _______ _______ _____ _____    ______ ____
ROOT
ATOM      1  C   LIG    1       25.101 -21.723   5.956  0.00  0.00    +0.095 C 
ENDROOT
BRANCH   1   2
ATOM      2  C   LIG    1       26.506 -21.222   6.350  0.00  0.00    -0.016 A 
ATOM      3  C   LIG    1       27.150 -20.181   5.649  0.00  0.00    +0.006 A 
ATOM      4  C   LIG    1       28.429 -19.743   6.013  0.00  0.00    +0.000 A 
ATOM      5  C   LIG    1       29.086 -20.310   7.093  0.00  0.00    +0.000 A 
ATOM      6  C   LIG    1       28.473 -21.338   7.808  0.00  0.00    +0.000 A 
ATOM      7  C   LIG    1       27.201 -21.789   7.432  0.00  0.00    +0.006 A 
ENDBRANCH   1   2
BRANCH   1   8
ATOM      8  C   LIG    1       24.085 -20.530   5.847  0.00  0.00    +0.025 C 
ATOM      9  C   LIG    1       24.212 -19.691   4.565  0.00  0.00    +0.006 C 
ATOM     10  C   LIG    1       22.846 -19.035   4.411  0.00  0.00    +0.000 C 
ATOM     11  C   LIG    1       21.890 -20.158   4.761  0.00  0.00    +0.000 C 
ATOM     12  C   LIG    1       22.590 -20.943   5.868  0.00  0.00    +0.006 C 
ENDBRANCH   1   8
BRANCH   1  13
ATOM     13  O   LIG    1       25.119 -22.362   4.673  0.00  0.00    -0.384 OA
ATOM     14  H   LIG    1       26.022 -22.674   4.504  0.00  0.00    +0.211 HD
ENDBRANCH   1  13
BRANCH   1  15
ATOM     15  C   LIG    1       24.569 -22.755   6.997  0.00  0.00    +0.055 C 
BRANCH  15  16
ATOM     16  C   LIG    1       24.130 -24.127   6.440  0.00  0.00    +0.087 C 
BRANCH  16  17
ATOM     17  N   LIG    1       25.203 -24.783   5.661  0.00  0.00    -0.302 NA
ATOM     18  C   LIG    1       26.301 -25.270   6.512  0.00  0.00    +0.084 C 
ATOM     19  C   LIG    1       25.966 -26.530   7.316  0.00  0.00    +0.015 C 
ATOM     20  C   LIG    1       25.412 -27.643   6.431  0.00  0.00    +0.002 C 
ATOM     21  C   LIG    1       24.316 -27.133   5.501  0.00  0.00    +0.015 C 
ATOM     22  C   LIG    1       24.748 -25.861   4.771  0.00  0.00    +0.084 C 
ENDBRANCH  16  17
ENDBRANCH  15  16
ENDBRANCH   1  15
TORSDOF 6
ENDMDL
MODEL 9
REMARK VINA RESULT:      -7.6      1.945      5.291
REMARK  Name = *****
REMARK                            x       y       z     vdW  Elec       q    Type
REMARK                         _______ _______ _______ _____ _____    ______ ____
ROOT
ATOM      1  C   LIG    1       24.528 -21.710   6.983  0.00  0.00    +0.095 C 
ENDROOT
BRANCH   1   2
ATOM      2  C   LIG    1       25.917 -21.040   6.957  0.00  0.00    -0.016 A 
ATOM      3  C   LIG    1       26.498 -20.572   5.759  0.00  0.00    +0.006 A 
ATOM      4  C   LIG    1       27.764 -19.974   5.751  0.00  0.00    +0.000 A 
ATOM      5  C   LIG    1       28.471 -19.806   6.930  0.00  0.00    +0.000 A 
ATOM      6  C   LIG    1       27.921 -20.255   8.131  0.00  0.00    +0.000 A 
ATOM      7  C   LIG    1       26.663 -20.871   8.137  0.00  0.00    +0.006 A 
ENDBRANCH   1   2
BRANCH   1   8
ATOM      8  C   LIG    1       24.652 -23.261   7.195  0.00  0.00    +0.025 C 
ATOM      9  C   LIG    1       23.515 -24.090   6.576  0.00  0.00    +0.006 C 
ATOM     10  C   LIG    1       24.120 -25.475   6.394  0.00  0.00    +0.000 C 
ATOM     11  C   LIG    1       25.512 -25.173   5.875  0.00  0.00    +0.000 C 
ATOM     12  C   LIG    1       25.936 -23.899   6.603  0.00  0.00    +0.006 C 
ENDBRANCH   1   8
BRANCH   1  13
ATOM     13  O   LIG    1       23.732 -21.212   8.066  0.00  0.00    -0.384 OA
ATOM     14  H   LIG    1       23.971 -21.703   8.868  0.00  0.00    +0.211 HD
ENDBRANCH   1  13
BRANCH   1  15
ATOM     15  C   LIG    1       23.755 -21.435   5.656  0.00  0.00    +0.055 C 
BRANCH  15  16
ATOM     16  C   LIG    1       22.814 -20.210   5.653  0.00  0.00    +0.087 C 
BRANCH  16  17
ATOM     17  N   LIG    1       22.525 -19.731   4.284  0.00  0.00    -0.302 NA
ATOM     18  C   LIG    1       21.714 -18.502   4.274  0.00  0.00    +0.084 C 
ATOM     19  C   LIG    1       22.481 -17.238   4.672  0.00  0.00    +0.015 C 
ATOM     20  C   LIG    1       23.761 -17.065   3.861  0.00  0.00    +0.002 C 
ATOM     21  C   LIG    1       24.577 -18.353   3.812  0.00  0.00    +0.015 C 
ATOM     22  C   LIG    1       23.708 -19.552   3.431  0.00  0.00    +0.084 C 
ENDBRANCH  16  17
ENDBRANCH  15  16
ENDBRANCH   1  15
TORSDOF 6
ENDMDL
