MODEL 1
REMARK VINA RESULT:      -4.8      0.000      0.000
REMARK  Name = *****
REMARK                            x       y       z     vdW  Elec       q    Type
REMARK                         _______ _______ _______ _____ _____    ______ ____
ROOT
ATOM      1  C   LIG    1       24.766 -19.314   4.037  0.00  0.00    -0.040 A 
ATOM      2  C   LIG    1       25.558 -20.053   4.930  0.00  0.00    +0.053 A 
ATOM      3  C   LIG    1       24.986 -20.804   5.967  0.00  0.00    +0.162 A 
ATOM      4  C   LIG    1       23.593 -20.818   6.101  0.00  0.00    +0.159 A 
ATOM      5  C   LIG    1       22.794 -20.077   5.226  0.00  0.00    +0.049 A 
ATOM      6  C   LIG    1       23.377 -19.327   4.202  0.00  0.00    +0.008 A 
ENDROOT
BRANCH   3   7
ATOM      7  O   LIG    1       25.901 -21.501   6.710  0.00  0.00    -0.491 OA
ATOM      8  C   LIG    1       27.203 -20.940   6.815  0.00  0.00    +0.277 C 
ENDBRANCH   3   7
BRANCH   4   9
ATOM      9  O   LIG    1       22.979 -21.572   7.062  0.00  0.00    -0.503 OA
ATOM     10  H   LIG    1       22.618 -20.982   7.743  0.00  0.00    +0.292 HD
ENDBRANCH   4   9
BRANCH   1  11
ATOM     11  C   LIG    1       25.401 -18.511   2.926  0.00  0.00    +0.061 C 
BRANCH  11  13
ATOM     12  C   LIG    1       26.061 -16.114   3.315  0.00  0.00    +0.004 C 
ATOM     13  C   LIG    1       26.307 -17.422   3.434  0.00  0.00    -0.030 C 
ENDBRANCH  11  13
ENDBRANCH   1  11
TORSDOF 4
ENDMDL
MODEL 2
REMARK VINA RESULT:      -4.6      1.824      3.767
REMARK  Name = *****
REMARK                            x       y       z     vdW  Elec       q    Type
REMARK                         _______ _______ _______ _____ _____    ______ ____
ROOT
ATOM      1  C   LIG    1       26.412 -20.410   5.899  0.00  0.00    -0.040 A 
ATOM      2  C   LIG    1       25.085 -20.683   6.267  0.00  0.00    +0.053 A 
ATOM      3  C   LIG    1       24.007 -20.311   5.450  0.00  0.00    +0.162 A 
ATOM      4  C   LIG    1       24.271 -19.663   4.239  0.00  0.00    +0.159 A 
ATOM      5  C   LIG    1       25.587 -19.374   3.866  0.00  0.00    +0.049 A 
ATOM      6  C   LIG    1       26.651 -19.742   4.693  0.00  0.00    +0.008 A 
ENDROOT
BRANCH   3   7
ATOM      7  O   LIG    1       22.788 -20.699   5.939  0.00  0.00    -0.491 OA
ATOM      8  C   LIG    1       22.795 -21.571   7.061  0.00  0.00    +0.277 C 
ENDBRANCH   3   7
BRANCH   4   9
ATOM      9  O   LIG    1       23.263 -19.322   3.381  0.00  0.00    -0.503 OA
ATOM     10  H   LIG    1       22.717 -20.105   3.207  0.00  0.00    +0.292 HD
ENDBRANCH   4   9
BRANCH   1  11
ATOM     11  C   LIG    1       27.560 -20.819   6.793  0.00  0.00    +0.061 C 
BRANCH  11  13
ATOM     12  C   LIG    1       29.468 -19.199   7.055  0.00  0.00    +0.004 C 
ATOM     13  C   LIG    1       28.867 -20.190   6.390  0.00  0.00    -0.030 C 
ENDBRANCH  11  13
ENDBRANCH   1  11
TORSDOF 4
ENDMDL
MODEL 3
REMARK VINA RESULT:      -4.6      2.595      3.819
REMARK  Name = *****
REMARK                            x       y       z     vdW  Elec       q    Type
REMARK                         _______ _______ _______ _____ _____    ______ ____
ROOT
ATOM      1  C   LIG    1       25.064 -20.686   5.225  0.00  0.00    -0.040 A 
ATOM      2  C   LIG    1       26.061 -19.794   4.800  0.00  0.00    +0.053 A 
ATOM      3  C   LIG    1       27.323 -19.760   5.411  0.00  0.00    +0.162 A 
ATOM      4  C   LIG    1       27.587 -20.645   6.462  0.00  0.00    +0.159 A 
ATOM      5  C   LIG    1       26.599 -21.530   6.903  0.00  0.00    +0.049 A 
ATOM      6  C   LIG    1       25.344 -21.548   6.291  0.00  0.00    +0.008 A 
ENDROOT
BRANCH   3   7
ATOM      7  O   LIG    1       28.187 -18.865   4.838  0.00  0.00    -0.491 OA
ATOM      8  C   LIG    1       29.317 -18.481   5.610  0.00  0.00    +0.277 C 
ENDBRANCH   3   7
BRANCH   4   9
ATOM      9  O   LIG    1       28.814 -20.690   7.062  0.00  0.00    -0.503 OA
ATOM     10  H   LIG    1       28.766 -21.270   7.838  0.00  0.00    +0.292 HD
ENDBRANCH   4   9
BRANCH   1  11
ATOM     11  C   LIG    1       23.711 -20.708   4.553  0.00  0.00    +0.061 C 
BRANCH  11  13
ATOM     12  C   LIG    1       22.353 -18.591   4.639  0.00  0.00    +0.004 C 
ATOM     13  C   LIG    1       22.730 -19.754   5.180  0.00  0.00    -0.030 C 
ENDBRANCH  11  13
ENDBRANCH   1  11
TORSDOF 4
ENDMDL
MODEL 4
REMARK VINA RESULT:      -4.4      4.394      6.314
REMARK  Name = *****
REMARK                            x       y       z     vdW  Elec       q    Type
REMARK                         _______ _______ _______ _____ _____    ______ ____
ROOT
ATOM      1  C   LIG    1       25.523 -16.183   3.500  0.00  0.00    -0.040 A 
ATOM      2  C   LIG    1       26.440 -15.152   3.244  0.00  0.00    +0.053 A 
ATOM      3  C   LIG    1       26.094 -13.804   3.419  0.00  0.00    +0.162 A 
ATOM      4  C   LIG    1       24.807 -13.490   3.869  0.00  0.00    +0.159 A 
ATOM      5  C   LIG    1       23.880 -14.507   4.116  0.00  0.00    +0.049 A 
ATOM      6  C   LIG    1       24.235 -15.845   3.930  0.00  0.00    +0.008 A 
ENDROOT
BRANCH   3   7
ATOM      7  O   LIG    1       27.125 -12.936   3.171  0.00  0.00    -0.491 OA
ATOM      8  C   LIG    1       28.380 -13.246   3.760  0.00  0.00    +0.277 C 
ENDBRANCH   3   7
BRANCH   4   9
ATOM      9  O   LIG    1       24.432 -12.197   4.104  0.00  0.00    -0.503 OA
ATOM     10  H   LIG    1       25.045 -11.601   3.645  0.00  0.00    +0.292 HD
ENDBRANCH   4   9
BRANCH   1  11
ATOM     11  C   LIG    1       25.914 -17.630   3.306  0.00  0.00    +0.061 C 
BRANCH  11  13
ATOM     12  C   LIG    1       24.906 -19.913   3.622  0.00  0.00    +0.004 C 
ATOM     13  C   LIG    1       24.782 -18.583   3.578  0.00  0.00    -0.030 C 
ENDBRANCH  11  13
ENDBRANCH   1  11
TORSDOF 4
ENDMDL
MODEL 5
REMARK VINA RESULT:      -4.4      2.196      4.152
REMARK  Name = *****
REMARK                            x       y       z     vdW  Elec       q    Type
REMARK                         _______ _______ _______ _____ _____    ______ ____
ROOT
ATOM      1  C   LIG    1       23.219 -19.788   4.603  0.00  0.00    -0.040 A 
ATOM      2  C   LIG    1       23.990 -18.946   3.787  0.00  0.00    +0.053 A 
ATOM      3  C   LIG    1       25.392 -18.970   3.826  0.00  0.00    +0.162 A 
ATOM      4  C   LIG    1       26.027 -19.864   4.695  0.00  0.00    +0.159 A 
ATOM      5  C   LIG    1       25.271 -20.700   5.522  0.00  0.00    +0.049 A 
ATOM      6  C   LIG    1       23.875 -20.660   5.478  0.00  0.00    +0.008 A 
ENDROOT
BRANCH   3   7
ATOM      7  O   LIG    1       25.982 -18.119   2.929  0.00  0.00    -0.491 OA
ATOM      8  C   LIG    1       26.171 -16.775   3.350  0.00  0.00    +0.277 C 
ENDBRANCH   3   7
BRANCH   4   9
ATOM      9  O   LIG    1       27.389 -19.966   4.739  0.00  0.00    -0.503 OA
ATOM     10  H   LIG    1       27.630 -20.819   5.135  0.00  0.00    +0.292 HD
ENDBRANCH   4   9
BRANCH   1  11
ATOM     11  C   LIG    1       21.709 -19.747   4.546  0.00  0.00    +0.061 C 
BRANCH  11  13
ATOM     12  C   LIG    1       19.989 -18.525   3.175  0.00  0.00    +0.004 C 
ATOM     13  C   LIG    1       21.185 -18.569   3.770  0.00  0.00    -0.030 C 
ENDBRANCH  11  13
ENDBRANCH   1  11
TORSDOF 4
ENDMDL
MODEL 6
REMARK VINA RESULT:      -4.1      1.321      2.903
REMARK  Name = *****
REMARK                            x       y       z     vdW  Elec       q    Type
REMARK                         _______ _______ _______ _____ _____    ______ ____
ROOT
ATOM      1  C   LIG    1       25.363 -19.091   4.097  0.00  0.00    -0.040 A 
ATOM      2  C   LIG    1       23.969 -18.982   3.981  0.00  0.00    +0.053 A 
ATOM      3  C   LIG    1       23.106 -19.815   4.708  0.00  0.00    +0.162 A 
ATOM      4  C   LIG    1       23.657 -20.767   5.573  0.00  0.00    +0.159 A 
ATOM      5  C   LIG    1       25.045 -20.894   5.688  0.00  0.00    +0.049 A 
ATOM      6  C   LIG    1       25.892 -20.063   4.952  0.00  0.00    +0.008 A 
ENDROOT
BRANCH   3   7
ATOM      7  O   LIG    1       21.779 -19.538   4.511  0.00  0.00    -0.491 OA
ATOM      8  C   LIG    1       21.457 -18.227   4.070  0.00  0.00    +0.277 C 
ENDBRANCH   3   7
BRANCH   4   9
ATOM      9  O   LIG    1       22.865 -21.572   6.343  0.00  0.00    -0.503 OA
ATOM     10  H   LIG    1       22.414 -21.028   7.008  0.00  0.00    +0.292 HD
ENDBRANCH   4   9
BRANCH   1  11
ATOM     11  C   LIG    1       26.276 -18.183   3.305  0.00  0.00    +0.061 C 
BRANCH  11  13
ATOM     12  C   LIG    1       26.630 -15.692   3.345  0.00  0.00    +0.004 C 
ATOM     13  C   LIG    1       25.815 -16.751   3.299  0.00  0.00    -0.030 C 
ENDBRANCH  11  13
ENDBRANCH   1  11
TORSDOF 4
ENDMDL
MODEL 7
REMARK VINA RESULT:      -4.0      4.935      7.276
REMARK  Name = *****
REMARK                            x       y       z     vdW  Elec       q    Type
REMARK                         _______ _______ _______ _____ _____    ______ ____
ROOT
ATOM      1  C   LIG    1       23.951 -15.284   4.039  0.00  0.00    -0.040 A 
ATOM      2  C   LIG    1       23.844 -13.903   3.818  0.00  0.00    +0.053 A 
ATOM      3  C   LIG    1       24.931 -13.150   3.348  0.00  0.00    +0.162 A 
ATOM      4  C   LIG    1       26.141 -13.801   3.089  0.00  0.00    +0.159 A 
ATOM      5  C   LIG    1       26.265 -15.175   3.316  0.00  0.00    +0.049 A 
ATOM      6  C   LIG    1       25.177 -15.911   3.792  0.00  0.00    +0.008 A 
ENDROOT
BRANCH   3   7
ATOM      7  O   LIG    1       24.635 -11.828   3.142  0.00  0.00    -0.491 OA
ATOM      8  C   LIG    1       24.290 -11.447   1.817  0.00  0.00    +0.277 C 
ENDBRANCH   3   7
BRANCH   4   9
ATOM      9  O   LIG    1       27.217 -13.127   2.583  0.00  0.00    -0.503 OA
ATOM     10  H   LIG    1       27.028 -12.175   2.594  0.00  0.00    +0.292 HD
ENDBRANCH   4   9
BRANCH   1  11
ATOM     11  C   LIG    1       22.769 -16.079   4.545  0.00  0.00    +0.061 C 
BRANCH  11  13
ATOM     12  C   LIG    1       22.287 -18.538   4.770  0.00  0.00    +0.004 C 
ATOM     13  C   LIG    1       22.782 -17.509   4.076  0.00  0.00    -0.030 C 
ENDBRANCH  11  13
ENDBRANCH   1  11
TORSDOF 4
ENDMDL
MODEL 8
REMARK VINA RESULT:      -3.9      1.780      3.709
REMARK  Name = *****
REMARK                            x       y       z     vdW  Elec       q    Type
REMARK                         _______ _______ _______ _____ _____    ______ ____
ROOT
ATOM      1  C   LIG    1       25.760 -20.834   6.384  0.00  0.00    -0.040 A 
ATOM      2  C   LIG    1       25.635 -20.191   5.143  0.00  0.00    +0.053 A 
ATOM      3  C   LIG    1       24.378 -19.922   4.581  0.00  0.00    +0.162 A 
ATOM      4  C   LIG    1       23.229 -20.297   5.286  0.00  0.00    +0.159 A 
ATOM      5  C   LIG    1       23.341 -20.949   6.518  0.00  0.00    +0.049 A 
ATOM      6  C   LIG    1       24.599 -21.219   7.062  0.00  0.00    +0.008 A 
ENDROOT
BRANCH   3   7
ATOM      7  O   LIG    1       24.441 -19.246   3.392  0.00  0.00    -0.491 OA
ATOM      8  C   LIG    1       25.371 -18.174   3.312  0.00  0.00    +0.277 C 
ENDBRANCH   3   7
BRANCH   4   9
ATOM      9  O   LIG    1       21.979 -20.016   4.811  0.00  0.00    -0.503 OA
ATOM     10  H   LIG    1       22.016 -19.953   3.843  0.00  0.00    +0.292 HD
ENDBRANCH   4   9
BRANCH   1  11
ATOM     11  C   LIG    1       27.124 -21.115   6.973  0.00  0.00    +0.061 C 
BRANCH  11  13
ATOM     12  C   LIG    1       29.411 -20.070   6.885  0.00  0.00    +0.004 C 
ATOM     13  C   LIG    1       28.216 -20.302   6.332  0.00  0.00    -0.030 C 
ENDBRANCH  11  13
ENDBRANCH   1  11
TORSDOF 4
ENDMDL
MODEL 9
REMARK VINA RESULT:      -3.9      4.762      7.325
REMARK  Name = *****
REMARK                            x       y       z     vdW  Elec       q    Type
REMARK                         _______ _______ _______ _____ _____    ______ ____
ROOT
ATOM      1  C   LIG    1       25.837 -15.634   3.419  0.00  0.00    -0.040 A 
ATOM      2  C   LIG    1       25.352 -14.434   2.878  0.00  0.00    +0.053 A 
ATOM      3  C   LIG    1       26.157 -13.287   2.801  0.00  0.00    +0.162 A 
ATOM      4  C   LIG    1       27.474 -13.355   3.268  0.00  0.00    +0.159 A 
ATOM      5  C   LIG    1       27.966 -14.541   3.819  0.00  0.00    +0.049 A 
ATOM      6  C   LIG    1       27.151 -15.673   3.898  0.00  0.00    +0.008 A 
ENDROOT
BRANCH   3   7
ATOM      7  O   LIG    1       25.539 -12.222   2.201  0.00  0.00    -0.491 OA
ATOM      8  C   LIG    1       24.174 -12.004   2.529  0.00  0.00    +0.277 C 
ENDBRANCH   3   7
BRANCH   4   9
ATOM      9  O   LIG    1       28.318 -12.284   3.172  0.00  0.00    -0.503 OA
ATOM     10  H   LIG    1       29.107 -12.547   2.673  0.00  0.00    +0.292 HD
ENDBRANCH   4   9
BRANCH   1  11
ATOM     11  C   LIG    1       24.955 -16.859   3.493  0.00  0.00    +0.061 C 
BRANCH  11  13
ATOM     12  C   LIG    1       25.256 -19.350   3.682  0.00  0.00    +0.004 C 
ATOM     13  C   LIG    1       25.725 -18.144   3.347  0.00  0.00    -0.030 C 
ENDBRANCH  11  13
ENDBRANCH   1  11
TORSDOF 4
ENDMDL
