MODEL 1
REMARK VINA RESULT:      -8.3      0.000      0.000
REMARK  Name = *****
REMARK                            x       y       z     vdW  Elec       q    Type
REMARK                         _______ _______ _______ _____ _____    ______ ____
ROOT
ATOM      1  C   LIG    1       25.319 -21.481   6.889  0.00  0.00    +0.197 C 
ENDROOT
BRANCH   1   2
ATOM      2  C   LIG    1       25.041 -22.979   6.787  0.00  0.00    -0.013 A 
ATOM      3  C   LIG    1       26.096 -23.909   6.750  0.00  0.00    +0.008 A 
ATOM      4  C   LIG    1       25.848 -25.254   6.480  0.00  0.00    +0.020 A 
ATOM      5  C   LIG    1       24.539 -25.694   6.309  0.00  0.00    +0.041 A 
ATOM      6 CL   LIG    1       24.238 -27.344   5.926  0.00  0.00    -0.084 Cl
ATOM      7  C   LIG    1       23.474 -24.804   6.432  0.00  0.00    +0.020 A 
ATOM      8  C   LIG    1       23.724 -23.450   6.670  0.00  0.00    +0.008 A 
ENDBRANCH   1   2
BRANCH   1   9
ATOM      9  C   LIG    1       24.501 -20.676   5.869  0.00  0.00    +0.074 A 
ATOM     10  N   LIG    1       25.070 -20.416   4.657  0.00  0.00    -0.257 NA
ATOM     11  C   LIG    1       24.328 -19.736   3.750  0.00  0.00    +0.111 A 
ATOM     12  C   LIG    1       23.036 -19.293   3.987  0.00  0.00    +0.020 A 
ATOM     13  C   LIG    1       22.470 -19.554   5.222  0.00  0.00    +0.003 A 
ATOM     14  C   LIG    1       23.202 -20.256   6.178  0.00  0.00    +0.026 A 
ENDBRANCH   1   9
BRANCH   1  15
ATOM     15  O   LIG    1       25.081 -20.984   8.230  0.00  0.00    -0.365 OA
BRANCH  15  16
ATOM     16  C   LIG    1       26.234 -20.389   8.846  0.00  0.00    +0.176 C 
BRANCH  16  17
ATOM     17  C   LIG    1       27.376 -20.322   7.813  0.00  0.00    +0.112 C 
BRANCH  17  19
ATOM     18  C   LIG    1       29.558 -21.404   7.973  0.00  0.00    +0.104 C 
ATOM     19  N   LIG    1       28.738 -20.264   8.383  0.00  0.00    -0.306 NA
ATOM     20  C   LIG    1       29.397 -19.017   7.978  0.00  0.00    +0.104 C 
ENDBRANCH  17  19
ENDBRANCH  16  17
ENDBRANCH  15  16
ENDBRANCH   1  15
TORSDOF 6
ENDMDL
MODEL 2
REMARK VINA RESULT:      -8.2      2.607      4.656
REMARK  Name = *****
REMARK                            x       y       z     vdW  Elec       q    Type
REMARK                         _______ _______ _______ _____ _____    ______ ____
ROOT
ATOM      1  C   LIG    1       25.579 -22.988   7.034  0.00  0.00    +0.197 C 
ENDROOT
BRANCH   1   2
ATOM      2  C   LIG    1       24.660 -21.999   6.319  0.00  0.00    -0.013 A 
ATOM      3  C   LIG    1       24.819 -21.725   4.949  0.00  0.00    +0.008 A 
ATOM      4  C   LIG    1       24.099 -20.697   4.342  0.00  0.00    +0.020 A 
ATOM      5  C   LIG    1       23.167 -19.976   5.082  0.00  0.00    +0.041 A 
ATOM      6 CL   LIG    1       22.316 -18.676   4.345  0.00  0.00    -0.084 Cl
ATOM      7  C   LIG    1       22.930 -20.293   6.418  0.00  0.00    +0.020 A 
ATOM      8  C   LIG    1       23.675 -21.301   7.036  0.00  0.00    +0.008 A 
ENDBRANCH   1   2
BRANCH   1   9
ATOM      9  C   LIG    1       25.397 -24.420   6.509  0.00  0.00    +0.074 A 
ATOM     10  N   LIG    1       26.518 -25.138   6.210  0.00  0.00    -0.257 NA
ATOM     11  C   LIG    1       26.350 -26.412   5.782  0.00  0.00    +0.111 A 
ATOM     12  C   LIG    1       25.113 -27.018   5.630  0.00  0.00    +0.020 A 
ATOM     13  C   LIG    1       23.981 -26.280   5.927  0.00  0.00    +0.003 A 
ATOM     14  C   LIG    1       24.116 -24.967   6.376  0.00  0.00    +0.026 A 
ENDBRANCH   1   9
BRANCH   1  15
ATOM     15  O   LIG    1       26.969 -22.590   6.939  0.00  0.00    -0.365 OA
BRANCH  15  16
ATOM     16  C   LIG    1       27.342 -21.547   7.854  0.00  0.00    +0.176 C 
BRANCH  16  17
ATOM     17  C   LIG    1       28.681 -20.936   7.398  0.00  0.00    +0.112 C 
BRANCH  17  19
ATOM     18  C   LIG    1       30.780 -21.119   8.630  0.00  0.00    +0.104 C 
ATOM     19  N   LIG    1       29.523 -20.386   8.481  0.00  0.00    -0.306 NA
ATOM     20  C   LIG    1       29.810 -18.970   8.221  0.00  0.00    +0.104 C 
ENDBRANCH  17  19
ENDBRANCH  16  17
ENDBRANCH  15  16
ENDBRANCH   1  15
TORSDOF 6
ENDMDL
MODEL 3
REMARK VINA RESULT:      -7.8      2.674      5.754
REMARK  Name = *****
REMARK                            x       y       z     vdW  Elec       q    Type
REMARK                         _______ _______ _______ _____ _____    ______ ____
ROOT
ATOM      1  C   LIG    1       26.141 -21.474   6.157  0.00  0.00    +0.197 C 
ENDROOT
BRANCH   1   2
ATOM      2  C   LIG    1       24.987 -20.619   5.638  0.00  0.00    -0.013 A 
ATOM      3  C   LIG    1       23.786 -20.509   6.362  0.00  0.00    +0.008 A 
ATOM      4  C   LIG    1       22.676 -19.876   5.805  0.00  0.00    +0.020 A 
ATOM      5  C   LIG    1       22.774 -19.290   4.547  0.00  0.00    +0.041 A 
ATOM      6 CL   LIG    1       21.389 -18.552   3.840  0.00  0.00    -0.084 Cl
ATOM      7  C   LIG    1       23.982 -19.309   3.852  0.00  0.00    +0.020 A 
ATOM      8  C   LIG    1       25.085 -19.972   4.396  0.00  0.00    +0.008 A 
ENDBRANCH   1   2
BRANCH   1   9
ATOM      9  C   LIG    1       27.326 -20.615   6.622  0.00  0.00    +0.074 A 
ATOM     10  N   LIG    1       27.607 -20.582   7.956  0.00  0.00    -0.257 NA
ATOM     11  C   LIG    1       28.675 -19.851   8.353  0.00  0.00    +0.111 A 
ATOM     12  C   LIG    1       29.488 -19.139   7.485  0.00  0.00    +0.020 A 
ATOM     13  C   LIG    1       29.191 -19.170   6.135  0.00  0.00    +0.003 A 
ATOM     14  C   LIG    1       28.102 -19.917   5.689  0.00  0.00    +0.026 A 
ENDBRANCH   1   9
BRANCH   1  15
ATOM     15  O   LIG    1       25.713 -22.359   7.221  0.00  0.00    -0.365 OA
BRANCH  15  16
ATOM     16  C   LIG    1       25.996 -23.746   6.977  0.00  0.00    +0.176 C 
BRANCH  16  17
ATOM     17  C   LIG    1       25.230 -24.199   5.718  0.00  0.00    +0.112 C 
BRANCH  17  19
ATOM     18  C   LIG    1       26.516 -26.253   6.013  0.00  0.00    +0.104 C 
ATOM     19  N   LIG    1       25.338 -25.639   5.400  0.00  0.00    -0.306 NA
ATOM     20  C   LIG    1       24.131 -26.342   5.849  0.00  0.00    +0.104 C 
ENDBRANCH  17  19
ENDBRANCH  16  17
ENDBRANCH  15  16
ENDBRANCH   1  15
TORSDOF 6
ENDMDL
MODEL 4
REMARK VINA RESULT:      -7.7      2.946      5.234
REMARK  Name = *****
REMARK                            x       y       z     vdW  Elec       q    Type
REMARK                         _______ _______ _______ _____ _____    ______ ____
ROOT
ATOM      1  C   LIG    1       25.474 -21.617   6.540  0.00  0.00    +0.197 C 
ENDROOT
BRANCH   1   2
ATOM      2  C   LIG    1       26.851 -20.986   6.734  0.00  0.00    -0.013 A 
ATOM      3  C   LIG    1       27.308 -19.969   5.876  0.00  0.00    +0.008 A 
ATOM      4  C   LIG    1       28.626 -19.520   5.945  0.00  0.00    +0.020 A 
ATOM      5  C   LIG    1       29.482 -20.036   6.912  0.00  0.00    +0.041 A 
ATOM      6 CL   LIG    1       31.121 -19.518   6.964  0.00  0.00    -0.084 Cl
ATOM      7  C   LIG    1       29.022 -20.979   7.831  0.00  0.00    +0.020 A 
ATOM      8  C   LIG    1       27.710 -21.453   7.741  0.00  0.00    +0.008 A 
ENDBRANCH   1   2
BRANCH   1   9
ATOM      9  C   LIG    1       24.559 -20.740   5.674  0.00  0.00    +0.074 A 
ATOM     10  N   LIG    1       24.957 -20.466   4.398  0.00  0.00    -0.257 NA
ATOM     11  C   LIG    1       24.127 -19.721   3.630  0.00  0.00    +0.111 A 
ATOM     12  C   LIG    1       22.908 -19.227   4.066  0.00  0.00    +0.020 A 
ATOM     13  C   LIG    1       22.515 -19.502   5.363  0.00  0.00    +0.003 A 
ATOM     14  C   LIG    1       23.342 -20.270   6.181  0.00  0.00    +0.026 A 
ENDBRANCH   1   9
BRANCH   1  15
ATOM     15  O   LIG    1       25.572 -22.950   5.980  0.00  0.00    -0.365 OA
BRANCH  15  16
ATOM     16  C   LIG    1       25.253 -23.999   6.907  0.00  0.00    +0.176 C 
BRANCH  16  17
ATOM     17  C   LIG    1       26.037 -25.268   6.517  0.00  0.00    +0.112 C 
BRANCH  17  19
ATOM     18  C   LIG    1       26.369 -27.126   4.970  0.00  0.00    +0.104 C 
ATOM     19  N   LIG    1       25.554 -25.958   5.302  0.00  0.00    -0.306 NA
ATOM     20  C   LIG    1       24.157 -26.370   5.483  0.00  0.00    +0.104 C 
ENDBRANCH  17  19
ENDBRANCH  16  17
ENDBRANCH  15  16
ENDBRANCH   1  15
TORSDOF 6
ENDMDL
MODEL 5
REMARK VINA RESULT:      -7.4      2.996      5.778
REMARK  Name = *****
REMARK                            x       y       z     vdW  Elec       q    Type
REMARK                         _______ _______ _______ _____ _____    ______ ____
ROOT
ATOM      1  C   LIG    1       24.919 -21.645   5.996  0.00  0.00    +0.197 C 
ENDROOT
BRANCH   1   2
ATOM      2  C   LIG    1       26.159 -20.900   6.484  0.00  0.00    -0.013 A 
ATOM      3  C   LIG    1       27.107 -20.399   5.574  0.00  0.00    +0.008 A 
ATOM      4  C   LIG    1       28.320 -19.880   6.025  0.00  0.00    +0.020 A 
ATOM      5  C   LIG    1       28.570 -19.795   7.391  0.00  0.00    +0.041 A 
ATOM      6 CL   LIG    1       30.086 -19.199   7.945  0.00  0.00    -0.084 Cl
ATOM      7  C   LIG    1       27.606 -20.202   8.311  0.00  0.00    +0.020 A 
ATOM      8  C   LIG    1       26.404 -20.754   7.859  0.00  0.00    +0.008 A 
ENDBRANCH   1   2
BRANCH   1   9
ATOM      9  C   LIG    1       25.132 -23.165   5.979  0.00  0.00    +0.074 A 
ATOM     10  N   LIG    1       24.823 -23.842   4.836  0.00  0.00    -0.257 NA
ATOM     11  C   LIG    1       25.048 -25.177   4.818  0.00  0.00    +0.111 A 
ATOM     12  C   LIG    1       25.569 -25.886   5.890  0.00  0.00    +0.020 A 
ATOM     13  C   LIG    1       25.873 -25.194   7.047  0.00  0.00    +0.003 A 
ATOM     14  C   LIG    1       25.659 -23.817   7.100  0.00  0.00    +0.026 A 
ENDBRANCH   1   9
BRANCH   1  15
ATOM     15  O   LIG    1       23.750 -21.309   6.784  0.00  0.00    -0.365 OA
BRANCH  15  16
ATOM     16  C   LIG    1       22.925 -20.288   6.201  0.00  0.00    +0.176 C 
BRANCH  16  17
ATOM     17  C   LIG    1       22.913 -20.468   4.670  0.00  0.00    +0.112 C 
BRANCH  17  19
ATOM     18  C   LIG    1       22.223 -18.129   4.556  0.00  0.00    +0.104 C 
ATOM     19  N   LIG    1       22.945 -19.213   3.889  0.00  0.00    -0.306 NA
ATOM     20  C   LIG    1       24.335 -18.805   3.656  0.00  0.00    +0.104 C 
ENDBRANCH  17  19
ENDBRANCH  16  17
ENDBRANCH  15  16
ENDBRANCH   1  15
TORSDOF 6
ENDMDL
MODEL 6
REMARK VINA RESULT:      -7.3      1.194      4.544
REMARK  Name = *****
REMARK                            x       y       z     vdW  Elec       q    Type
REMARK                         _______ _______ _______ _____ _____    ______ ____
ROOT
ATOM      1  C   LIG    1       25.336 -21.600   7.709  0.00  0.00    +0.197 C 
ENDROOT
BRANCH   1   2
ATOM      2  C   LIG    1       25.069 -22.981   7.117  0.00  0.00    -0.013 A 
ATOM      3  C   LIG    1       23.757 -23.419   6.863  0.00  0.00    +0.008 A 
ATOM      4  C   LIG    1       23.507 -24.739   6.491  0.00  0.00    +0.020 A 
ATOM      5  C   LIG    1       24.569 -25.617   6.305  0.00  0.00    +0.041 A 
ATOM      6 CL   LIG    1       24.257 -27.258   5.894  0.00  0.00    -0.084 Cl
ATOM      7  C   LIG    1       25.883 -25.178   6.463  0.00  0.00    +0.020 A 
ATOM      8  C   LIG    1       26.132 -23.864   6.869  0.00  0.00    +0.008 A 
ENDBRANCH   1   2
BRANCH   1   9
ATOM      9  C   LIG    1       26.743 -21.091   7.366  0.00  0.00    +0.074 A 
ATOM     10  N   LIG    1       27.761 -21.402   8.220  0.00  0.00    -0.257 NA
ATOM     11  C   LIG    1       29.005 -20.980   7.891  0.00  0.00    +0.111 A 
ATOM     12  C   LIG    1       29.296 -20.255   6.745  0.00  0.00    +0.020 A 
ATOM     13  C   LIG    1       28.258 -19.937   5.890  0.00  0.00    +0.003 A 
ATOM     14  C   LIG    1       26.964 -20.359   6.193  0.00  0.00    +0.026 A 
ENDBRANCH   1   9
BRANCH   1  15
ATOM     15  O   LIG    1       24.337 -20.637   7.290  0.00  0.00    -0.365 OA
BRANCH  15  16
ATOM     16  C   LIG    1       24.003 -20.711   5.895  0.00  0.00    +0.176 C 
BRANCH  16  17
ATOM     17  C   LIG    1       22.698 -19.927   5.650  0.00  0.00    +0.112 C 
BRANCH  17  19
ATOM     18  C   LIG    1       22.152 -17.828   4.530  0.00  0.00    +0.104 C 
ATOM     19  N   LIG    1       22.632 -19.200   4.365  0.00  0.00    -0.306 NA
ATOM     20  C   LIG    1       23.956 -19.182   3.732  0.00  0.00    +0.104 C 
ENDBRANCH  17  19
ENDBRANCH  16  17
ENDBRANCH  15  16
ENDBRANCH   1  15
TORSDOF 6
ENDMDL
MODEL 7
REMARK VINA RESULT:      -7.0      1.601      4.245
REMARK  Name = *****
REMARK                            x       y       z     vdW  Elec       q    Type
REMARK                         _______ _______ _______ _____ _____    ______ ____
ROOT
ATOM      1  C   LIG    1       24.479 -22.645   6.814  0.00  0.00    +0.197 C 
ENDROOT
BRANCH   1   2
ATOM      2  C   LIG    1       24.786 -24.125   6.595  0.00  0.00    -0.013 A 
ATOM      3  C   LIG    1       26.110 -24.599   6.616  0.00  0.00    +0.008 A 
ATOM      4  C   LIG    1       26.401 -25.910   6.242  0.00  0.00    +0.020 A 
ATOM      5  C   LIG    1       25.367 -26.779   5.908  0.00  0.00    +0.041 A 
ATOM      6 CL   LIG    1       25.731 -28.381   5.399  0.00  0.00    -0.084 Cl
ATOM      7  C   LIG    1       24.041 -26.354   5.969  0.00  0.00    +0.020 A 
ATOM      8  C   LIG    1       23.752 -25.029   6.311  0.00  0.00    +0.008 A 
ENDBRANCH   1   2
BRANCH   1   9
ATOM      9  C   LIG    1       25.759 -21.809   6.958  0.00  0.00    +0.074 A 
ATOM     10  N   LIG    1       26.160 -21.065   5.887  0.00  0.00    -0.257 NA
ATOM     11  C   LIG    1       27.270 -20.303   6.035  0.00  0.00    +0.111 A 
ATOM     12  C   LIG    1       28.015 -20.242   7.202  0.00  0.00    +0.020 A 
ATOM     13  C   LIG    1       27.607 -21.007   8.280  0.00  0.00    +0.003 A 
ATOM     14  C   LIG    1       26.465 -21.799   8.166  0.00  0.00    +0.026 A 
ENDBRANCH   1   9
BRANCH   1  15
ATOM     15  O   LIG    1       23.645 -22.111   5.756  0.00  0.00    -0.365 OA
BRANCH  15  16
ATOM     16  C   LIG    1       22.744 -21.078   6.187  0.00  0.00    +0.176 C 
BRANCH  16  17
ATOM     17  C   LIG    1       22.287 -20.268   4.958  0.00  0.00    +0.112 C 
BRANCH  17  19
ATOM     18  C   LIG    1       24.021 -19.193   3.619  0.00  0.00    +0.104 C 
ATOM     19  N   LIG    1       23.051 -19.029   4.701  0.00  0.00    -0.306 NA
ATOM     20  C   LIG    1       22.131 -17.934   4.370  0.00  0.00    +0.104 C 
ENDBRANCH  17  19
ENDBRANCH  16  17
ENDBRANCH  15  16
ENDBRANCH   1  15
TORSDOF 6
ENDMDL
MODEL 8
REMARK VINA RESULT:      -6.8      3.060      5.868
REMARK  Name = *****
REMARK                            x       y       z     vdW  Elec       q    Type
REMARK                         _______ _______ _______ _____ _____    ______ ____
ROOT
ATOM      1  C   LIG    1       25.173 -21.982   5.521  0.00  0.00    +0.197 C 
ENDROOT
BRANCH   1   2
ATOM      2  C   LIG    1       24.162 -20.991   4.949  0.00  0.00    -0.013 A 
ATOM      3  C   LIG    1       24.574 -19.947   4.102  0.00  0.00    +0.008 A 
ATOM      4  C   LIG    1       23.682 -18.944   3.726  0.00  0.00    +0.020 A 
ATOM      5  C   LIG    1       22.355 -19.009   4.138  0.00  0.00    +0.041 A 
ATOM      6 CL   LIG    1       21.267 -17.746   3.714  0.00  0.00    -0.084 Cl
ATOM      7  C   LIG    1       21.906 -20.085   4.902  0.00  0.00    +0.020 A 
ATOM      8  C   LIG    1       22.808 -21.072   5.307  0.00  0.00    +0.008 A 
ENDBRANCH   1   2
BRANCH   1   9
ATOM      9  C   LIG    1       26.068 -21.336   6.589  0.00  0.00    +0.074 A 
ATOM     10  N   LIG    1       27.329 -20.963   6.226  0.00  0.00    -0.257 NA
ATOM     11  C   LIG    1       28.098 -20.362   7.165  0.00  0.00    +0.111 A 
ATOM     12  C   LIG    1       27.677 -20.109   8.461  0.00  0.00    +0.020 A 
ATOM     13  C   LIG    1       26.401 -20.498   8.823  0.00  0.00    +0.003 A 
ATOM     14  C   LIG    1       25.579 -21.115   7.882  0.00  0.00    +0.026 A 
ENDBRANCH   1   9
BRANCH   1  15
ATOM     15  O   LIG    1       24.521 -23.160   6.057  0.00  0.00    -0.365 OA
BRANCH  15  16
ATOM     16  C   LIG    1       25.188 -24.393   5.741  0.00  0.00    +0.176 C 
BRANCH  16  17
ATOM     17  C   LIG    1       24.190 -25.557   5.897  0.00  0.00    +0.112 C 
BRANCH  17  19
ATOM     18  C   LIG    1       24.440 -27.945   5.458  0.00  0.00    +0.104 C 
ATOM     19  N   LIG    1       24.780 -26.835   6.348  0.00  0.00    -0.306 NA
ATOM     20  C   LIG    1       26.239 -26.708   6.438  0.00  0.00    +0.104 C 
ENDBRANCH  17  19
ENDBRANCH  16  17
ENDBRANCH  15  16
ENDBRANCH   1  15
TORSDOF 6
ENDMDL
MODEL 9
REMARK VINA RESULT:      -6.0      6.187      9.563
REMARK  Name = *****
REMARK                            x       y       z     vdW  Elec       q    Type
REMARK                         _______ _______ _______ _____ _____    ______ ____
ROOT
ATOM      1  C   LIG    1       25.426 -29.273   6.769  0.00  0.00    +0.197 C 
ENDROOT
BRANCH   1   2
ATOM      2  C   LIG    1       25.213 -27.783   6.514  0.00  0.00    -0.013 A 
ATOM      3  C   LIG    1       24.217 -27.336   5.627  0.00  0.00    +0.008 A 
ATOM      4  C   LIG    1       24.141 -25.992   5.263  0.00  0.00    +0.020 A 
ATOM      5  C   LIG    1       25.017 -25.072   5.830  0.00  0.00    +0.041 A 
ATOM      6 CL   LIG    1       24.955 -23.424   5.342  0.00  0.00    -0.084 Cl
ATOM      7  C   LIG    1       25.952 -25.481   6.780  0.00  0.00    +0.020 A 
ATOM      8  C   LIG    1       26.050 -26.833   7.120  0.00  0.00    +0.008 A 
ENDBRANCH   1   2
BRANCH   1   9
ATOM      9  C   LIG    1       24.976 -29.684   8.178  0.00  0.00    +0.074 A 
ATOM     10  N   LIG    1       23.655 -29.965   8.371  0.00  0.00    -0.257 NA
ATOM     11  C   LIG    1       23.273 -30.360   9.609  0.00  0.00    +0.111 A 
ATOM     12  C   LIG    1       24.144 -30.491  10.680  0.00  0.00    +0.020 A 
ATOM     13  C   LIG    1       25.479 -30.196  10.478  0.00  0.00    +0.003 A 
ATOM     14  C   LIG    1       25.910 -29.791   9.215  0.00  0.00    +0.026 A 
ENDBRANCH   1   9
BRANCH   1  15
ATOM     15  O   LIG    1       24.759 -30.086   5.771  0.00  0.00    -0.365 OA
BRANCH  15  16
ATOM     16  C   LIG    1       25.570 -31.148   5.244  0.00  0.00    +0.176 C 
BRANCH  16  17
ATOM     17  C   LIG    1       24.996 -32.498   5.715  0.00  0.00    +0.112 C 
BRANCH  17  19
ATOM     18  C   LIG    1       27.138 -32.599   6.882  0.00  0.00    +0.104 C 
ATOM     19  N   LIG    1       25.838 -33.238   6.680  0.00  0.00    -0.306 NA
ATOM     20  C   LIG    1       25.142 -33.351   7.967  0.00  0.00    +0.104 C 
ENDBRANCH  17  19
ENDBRANCH  16  17
ENDBRANCH  15  16
ENDBRANCH   1  15
TORSDOF 6
ENDMDL
