MODEL 1
REMARK VINA RESULT:      -4.2      0.000      0.000
REMARK  Name = *****
REMARK                            x       y       z     vdW  Elec       q    Type
REMARK                         _______ _______ _______ _____ _____    ______ ____
ROOT
ATOM      1  C   LIG    1       25.489 -14.346   3.919  0.00  0.00    +0.104 C 
ATOM      2  C   LIG    1       25.689 -13.822   2.470  0.00  0.00    +0.158 C 
ATOM      3  O   LIG    1       26.789 -13.786   1.909  0.00  0.00    -0.295 OA
ATOM      4  C   LIG    1       24.474 -13.193   1.812  0.00  0.00    +0.076 C 
ATOM      5  C   LIG    1       24.045 -11.978   2.623  0.00  0.00    +0.008 C 
ATOM      6  C   LIG    1       23.854 -12.332   4.095  0.00  0.00    +0.003 C 
ATOM      7  C   LIG    1       25.106 -13.014   4.664  0.00  0.00    +0.035 C 
ENDROOT
BRANCH   1   8
ATOM      8  C   LIG    1       24.432 -15.464   4.089  0.00  0.00    -0.002 A 
ATOM      9  C   LIG    1       24.633 -16.828   3.778  0.00  0.00    +0.046 A 
ATOM     10 CL   LIG    1       26.119 -17.478   3.174  0.00  0.00    -0.083 Cl
ATOM     11  C   LIG    1       23.620 -17.781   3.983  0.00  0.00    +0.020 A 
ATOM     12  C   LIG    1       22.391 -17.413   4.520  0.00  0.00    +0.001 A 
ATOM     13  C   LIG    1       22.177 -16.092   4.875  0.00  0.00    +0.001 A 
ATOM     14  C   LIG    1       23.184 -15.141   4.679  0.00  0.00    +0.007 A 
ENDBRANCH   1   8
BRANCH   1  16
ATOM     15  C   LIG    1       27.486 -13.664   5.260  0.00  0.00    +0.102 C 
ATOM     16  N   LIG    1       26.797 -14.728   4.538  0.00  0.00    -0.304 NA
ATOM     17  H   LIG    1       26.597 -15.461   5.224  0.00  0.00    +0.123 HD
ENDBRANCH   1  16
TORSDOF 2
ENDMDL
MODEL 2
REMARK VINA RESULT:      -3.9      2.038      3.419
REMARK  Name = *****
REMARK                            x       y       z     vdW  Elec       q    Type
REMARK                         _______ _______ _______ _____ _____    ______ ____
ROOT
ATOM      1  C   LIG    1       25.162 -14.079   3.487  0.00  0.00    +0.104 C 
ATOM      2  C   LIG    1       25.410 -13.315   4.817  0.00  0.00    +0.158 C 
ATOM      3  O   LIG    1       24.693 -12.389   5.211  0.00  0.00    -0.295 OA
ATOM      4  C   LIG    1       26.694 -13.654   5.554  0.00  0.00    +0.076 C 
ATOM      5  C   LIG    1       27.881 -13.310   4.666  0.00  0.00    +0.008 C 
ATOM      6  C   LIG    1       27.752 -13.958   3.290  0.00  0.00    +0.003 C 
ATOM      7  C   LIG    1       26.404 -13.612   2.642  0.00  0.00    +0.035 C 
ENDROOT
BRANCH   1   8
ATOM      8  C   LIG    1       25.052 -15.619   3.607  0.00  0.00    -0.002 A 
ATOM      9  C   LIG    1       23.924 -16.318   4.091  0.00  0.00    +0.046 A 
ATOM     10 CL   LIG    1       22.458 -15.559   4.610  0.00  0.00    -0.083 Cl
ATOM     11  C   LIG    1       23.905 -17.723   4.148  0.00  0.00    +0.020 A 
ATOM     12  C   LIG    1       24.991 -18.470   3.707  0.00  0.00    +0.001 A 
ATOM     13  C   LIG    1       26.096 -17.817   3.187  0.00  0.00    +0.001 A 
ATOM     14  C   LIG    1       26.117 -16.420   3.124  0.00  0.00    +0.007 A 
ENDBRANCH   1   8
BRANCH   1  16
ATOM     15  C   LIG    1       24.317 -12.426   1.812  0.00  0.00    +0.102 C 
ATOM     16  N   LIG    1       23.997 -13.502   2.745  0.00  0.00    -0.304 NA
ATOM     17  H   LIG    1       23.598 -14.260   2.186  0.00  0.00    +0.123 HD
ENDBRANCH   1  16
TORSDOF 2
ENDMDL
MODEL 3
REMARK VINA RESULT:      -2.5      2.561      4.559
REMARK  Name = *****
REMARK                            x       y       z     vdW  Elec       q    Type
REMARK                         _______ _______ _______ _____ _____    ______ ____
ROOT
ATOM      1  C   LIG    1       25.460 -14.010   3.314  0.00  0.00    +0.104 C 
ATOM      2  C   LIG    1       24.223 -13.705   4.204  0.00  0.00    +0.158 C 
ATOM      3  O   LIG    1       23.475 -14.582   4.649  0.00  0.00    -0.295 OA
ATOM      4  C   LIG    1       23.870 -12.238   4.379  0.00  0.00    +0.076 C 
ATOM      5  C   LIG    1       23.542 -11.642   3.017  0.00  0.00    +0.008 C 
ATOM      6  C   LIG    1       24.659 -11.908   2.010  0.00  0.00    +0.003 C 
ATOM      7  C   LIG    1       24.991 -13.405   1.940  0.00  0.00    +0.035 C 
ENDROOT
BRANCH   1   8
ATOM      8  C   LIG    1       26.805 -13.424   3.810  0.00  0.00    -0.002 A 
ATOM      9  C   LIG    1       27.157 -13.229   5.165  0.00  0.00    +0.046 A 
ATOM     10 CL   LIG    1       26.139 -13.640   6.503  0.00  0.00    -0.083 Cl
ATOM     11  C   LIG    1       28.412 -12.707   5.525  0.00  0.00    +0.020 A 
ATOM     12  C   LIG    1       29.357 -12.387   4.557  0.00  0.00    +0.001 A 
ATOM     13  C   LIG    1       29.059 -12.606   3.222  0.00  0.00    +0.001 A 
ATOM     14  C   LIG    1       27.815 -13.130   2.860  0.00  0.00    +0.007 A 
ENDBRANCH   1   8
BRANCH   1  16
ATOM     15  C   LIG    1       26.745 -16.137   3.588  0.00  0.00    +0.102 C 
ATOM     16  N   LIG    1       25.570 -15.476   3.031  0.00  0.00    -0.304 NA
ATOM     17  H   LIG    1       24.756 -15.921   3.462  0.00  0.00    +0.123 HD
ENDBRANCH   1  16
TORSDOF 2
ENDMDL
MODEL 4
REMARK VINA RESULT:      -2.5      0.996      1.314
REMARK  Name = *****
REMARK                            x       y       z     vdW  Elec       q    Type
REMARK                         _______ _______ _______ _____ _____    ______ ____
ROOT
ATOM      1  C   LIG    1       25.393 -14.314   3.595  0.00  0.00    +0.104 C 
ATOM      2  C   LIG    1       24.792 -13.079   2.869  0.00  0.00    +0.158 C 
ATOM      3  O   LIG    1       25.247 -12.626   1.813  0.00  0.00    -0.295 OA
ATOM      4  C   LIG    1       23.692 -12.338   3.608  0.00  0.00    +0.076 C 
ATOM      5  C   LIG    1       24.252 -11.800   4.917  0.00  0.00    +0.008 C 
ATOM      6  C   LIG    1       24.926 -12.903   5.729  0.00  0.00    +0.003 C 
ATOM      7  C   LIG    1       25.980 -13.638   4.889  0.00  0.00    +0.035 C 
ENDROOT
BRANCH   1   8
ATOM      8  C   LIG    1       24.401 -15.461   3.906  0.00  0.00    -0.002 A 
ATOM      9  C   LIG    1       24.666 -16.837   3.725  0.00  0.00    +0.046 A 
ATOM     10 CL   LIG    1       26.170 -17.470   3.145  0.00  0.00    -0.083 Cl
ATOM     11  C   LIG    1       23.710 -17.815   4.052  0.00  0.00    +0.020 A 
ATOM     12  C   LIG    1       22.476 -17.457   4.585  0.00  0.00    +0.001 A 
ATOM     13  C   LIG    1       22.201 -16.119   4.815  0.00  0.00    +0.001 A 
ATOM     14  C   LIG    1       23.152 -15.144   4.496  0.00  0.00    +0.007 A 
ENDBRANCH   1   8
BRANCH   1  16
ATOM     15  C   LIG    1       27.884 -14.307   3.375  0.00  0.00    +0.102 C 
ATOM     16  N   LIG    1       26.609 -14.818   2.882  0.00  0.00    -0.304 NA
ATOM     17  H   LIG    1       26.632 -15.832   3.018  0.00  0.00    +0.123 HD
ENDBRANCH   1  16
TORSDOF 2
ENDMDL
MODEL 5
REMARK VINA RESULT:      -1.8      3.676      6.309
REMARK  Name = *****
REMARK                            x       y       z     vdW  Elec       q    Type
REMARK                         _______ _______ _______ _____ _____    ______ ____
ROOT
ATOM      1  C   LIG    1       24.592 -20.179   4.470  0.00  0.00    +0.104 C 
ATOM      2  C   LIG    1       25.481 -20.446   5.717  0.00  0.00    +0.158 C 
ATOM      3  O   LIG    1       26.671 -20.769   5.644  0.00  0.00    -0.295 OA
ATOM      4  C   LIG    1       24.768 -20.450   7.058  0.00  0.00    +0.076 C 
ATOM      5  C   LIG    1       23.726 -21.560   7.062  0.00  0.00    +0.008 C 
ATOM      6  C   LIG    1       22.799 -21.456   5.854  0.00  0.00    +0.003 C 
ATOM      7  C   LIG    1       23.602 -21.399   4.547  0.00  0.00    +0.035 C 
ENDROOT
BRANCH   1   8
ATOM      8  C   LIG    1       23.870 -18.809   4.441  0.00  0.00    -0.002 A 
ATOM      9  C   LIG    1       24.446 -17.595   4.004  0.00  0.00    +0.046 A 
ATOM     10 CL   LIG    1       26.062 -17.447   3.401  0.00  0.00    -0.083 Cl
ATOM     11  C   LIG    1       23.708 -16.399   3.994  0.00  0.00    +0.020 A 
ATOM     12  C   LIG    1       22.377 -16.377   4.395  0.00  0.00    +0.001 A 
ATOM     13  C   LIG    1       21.770 -17.558   4.789  0.00  0.00    +0.001 A 
ATOM     14  C   LIG    1       22.498 -18.752   4.795  0.00  0.00    +0.007 A 
ENDBRANCH   1   8
BRANCH   1  16
ATOM     15  C   LIG    1       24.557 -20.424   1.982  0.00  0.00    +0.102 C 
ATOM     16  N   LIG    1       25.353 -20.425   3.205  0.00  0.00    -0.304 NA
ATOM     17  H   LIG    1       26.027 -19.661   3.112  0.00  0.00    +0.123 HD
ENDBRANCH   1  16
TORSDOF 2
ENDMDL
MODEL 6
REMARK VINA RESULT:      -1.7      1.655      2.810
REMARK  Name = *****
REMARK                            x       y       z     vdW  Elec       q    Type
REMARK                         _______ _______ _______ _____ _____    ______ ____
ROOT
ATOM      1  C   LIG    1       24.681 -13.954   3.600  0.00  0.00    +0.104 C 
ATOM      2  C   LIG    1       24.906 -13.081   4.866  0.00  0.00    +0.158 C 
ATOM      3  O   LIG    1       24.416 -11.957   5.010  0.00  0.00    -0.295 OA
ATOM      4  C   LIG    1       25.907 -13.615   5.877  0.00  0.00    +0.076 C 
ATOM      5  C   LIG    1       27.273 -13.719   5.213  0.00  0.00    +0.008 C 
ATOM      6  C   LIG    1       27.200 -14.517   3.914  0.00  0.00    +0.003 C 
ATOM      7  C   LIG    1       26.126 -13.947   2.977  0.00  0.00    +0.035 C 
ENDROOT
BRANCH   1   8
ATOM      8  C   LIG    1       24.134 -15.380   3.855  0.00  0.00    -0.002 A 
ATOM      9  C   LIG    1       24.845 -16.578   3.615  0.00  0.00    +0.046 A 
ATOM     10 CL   LIG    1       26.467 -16.643   3.015  0.00  0.00    -0.083 Cl
ATOM     11  C   LIG    1       24.275 -17.832   3.894  0.00  0.00    +0.020 A 
ATOM     12  C   LIG    1       22.999 -17.933   4.436  0.00  0.00    +0.001 A 
ATOM     13  C   LIG    1       22.293 -16.776   4.723  0.00  0.00    +0.001 A 
ATOM     14  C   LIG    1       22.858 -15.526   4.453  0.00  0.00    +0.007 A 
ENDBRANCH   1   8
BRANCH   1  16
ATOM     15  C   LIG    1       24.567 -12.203   1.818  0.00  0.00    +0.102 C 
ATOM     16  N   LIG    1       23.859 -13.224   2.584  0.00  0.00    -0.304 NA
ATOM     17  H   LIG    1       23.538 -13.921   1.908  0.00  0.00    +0.123 HD
ENDBRANCH   1  16
TORSDOF 2
ENDMDL
MODEL 7
REMARK VINA RESULT:      -1.6      4.769      6.597
REMARK  Name = *****
REMARK                            x       y       z     vdW  Elec       q    Type
REMARK                         _______ _______ _______ _____ _____    ______ ____
ROOT
ATOM      1  C   LIG    1       23.913 -20.445   4.169  0.00  0.00    +0.104 C 
ATOM      2  C   LIG    1       22.571 -20.399   4.950  0.00  0.00    +0.158 C 
ATOM      3  O   LIG    1       21.667 -21.227   4.794  0.00  0.00    -0.295 OA
ATOM      4  C   LIG    1       22.344 -19.175   5.820  0.00  0.00    +0.076 C 
ATOM      5  C   LIG    1       22.338 -17.935   4.938  0.00  0.00    +0.008 C 
ATOM      6  C   LIG    1       23.588 -17.867   4.065  0.00  0.00    +0.003 C 
ATOM      7  C   LIG    1       23.772 -19.164   3.265  0.00  0.00    +0.035 C 
ENDROOT
BRANCH   1   8
ATOM      8  C   LIG    1       25.196 -20.439   5.036  0.00  0.00    -0.002 A 
ATOM      9  C   LIG    1       26.338 -19.642   4.794  0.00  0.00    +0.046 A 
ATOM     10 CL   LIG    1       26.477 -18.512   3.490  0.00  0.00    -0.083 Cl
ATOM     11  C   LIG    1       27.454 -19.687   5.648  0.00  0.00    +0.020 A 
ATOM     12  C   LIG    1       27.461 -20.506   6.772  0.00  0.00    +0.001 A 
ATOM     13  C   LIG    1       26.341 -21.268   7.060  0.00  0.00    +0.001 A 
ATOM     14  C   LIG    1       25.226 -21.221   6.218  0.00  0.00    +0.007 A 
ENDBRANCH   1   8
BRANCH   1  16
ATOM     15  C   LIG    1       23.488 -21.225   1.832  0.00  0.00    +0.102 C 
ATOM     16  N   LIG    1       23.923 -21.570   3.181  0.00  0.00    -0.304 NA
ATOM     17  H   LIG    1       24.893 -21.885   3.102  0.00  0.00    +0.123 HD
ENDBRANCH   1  16
TORSDOF 2
ENDMDL
MODEL 8
REMARK VINA RESULT:      -1.3      3.692      6.285
REMARK  Name = *****
REMARK                            x       y       z     vdW  Elec       q    Type
REMARK                         _______ _______ _______ _____ _____    ______ ____
ROOT
ATOM      1  C   LIG    1       23.124 -19.907   4.634  0.00  0.00    +0.104 C 
ATOM      2  C   LIG    1       24.418 -20.679   4.254  0.00  0.00    +0.158 C 
ATOM      3  O   LIG    1       24.449 -21.570   3.398  0.00  0.00    -0.295 OA
ATOM      4  C   LIG    1       25.640 -20.398   5.110  0.00  0.00    +0.076 C 
ATOM      5  C   LIG    1       25.341 -20.799   6.548  0.00  0.00    +0.008 C 
ATOM      6  C   LIG    1       24.054 -20.148   7.050  0.00  0.00    +0.003 C 
ATOM      7  C   LIG    1       22.885 -20.433   6.097  0.00  0.00    +0.035 C 
ENDROOT
BRANCH   1   8
ATOM      8  C   LIG    1       23.213 -18.364   4.549  0.00  0.00    -0.002 A 
ATOM      9  C   LIG    1       24.250 -17.643   3.916  0.00  0.00    +0.046 A 
ATOM     10 CL   LIG    1       25.591 -18.378   3.104  0.00  0.00    -0.083 Cl
ATOM     11  C   LIG    1       24.240 -16.238   3.871  0.00  0.00    +0.020 A 
ATOM     12  C   LIG    1       23.194 -15.512   4.430  0.00  0.00    +0.001 A 
ATOM     13  C   LIG    1       22.140 -16.190   5.020  0.00  0.00    +0.001 A 
ATOM     14  C   LIG    1       22.143 -17.588   5.062  0.00  0.00    +0.007 A 
ENDBRANCH   1   8
BRANCH   1  16
ATOM     15  C   LIG    1       21.135 -21.423   4.580  0.00  0.00    +0.102 C 
ATOM     16  N   LIG    1       21.943 -20.432   3.877  0.00  0.00    -0.304 NA
ATOM     17  H   LIG    1       21.329 -19.633   3.697  0.00  0.00    +0.123 HD
ENDBRANCH   1  16
TORSDOF 2
ENDMDL
