MODEL 1
REMARK VINA RESULT:       3.4      0.000      0.000
REMARK  Name = *****
REMARK                            x       y       z     vdW  Elec       q    Type
REMARK                         _______ _______ _______ _____ _____    ______ ____
ROOT
ATOM      1  C   LIG    1       26.624 -20.000   5.695  0.00  0.00    +0.021 C 
ATOM      2  C   LIG    1       27.365 -21.227   5.086  0.00  0.00    +0.016 C 
ATOM      3  C   LIG    1       28.899 -21.183   5.092  0.00  0.00    +0.001 C 
ATOM      4  C   LIG    1       29.475 -20.852   6.453  0.00  0.00    +0.000 C 
ATOM      5  C   LIG    1       28.847 -19.614   7.062  0.00  0.00    +0.001 C 
ATOM      6  C   LIG    1       27.329 -19.713   7.056  0.00  0.00    +0.016 C 
ENDROOT
BRANCH   1  10
ATOM      7  C   LIG    1       27.133 -16.278   3.329  0.00  0.00    +0.122 A 
ATOM      8  C   LIG    1       26.152 -17.158   2.963  0.00  0.00    +0.046 A 
ATOM      9  C   LIG    1       25.998 -18.372   3.683  0.00  0.00    +0.008 A 
ATOM     10  C   LIG    1       26.775 -18.764   4.793  0.00  0.00    -0.037 A 
ATOM     11  C   LIG    1       27.803 -17.915   5.050  0.00  0.00    +0.008 A 
ATOM     12  C   LIG    1       27.947 -16.764   4.320  0.00  0.00    +0.046 A 
BRANCH   7  13
ATOM     13  O   LIG    1       27.239 -15.039   2.753  0.00  0.00    -0.475 OA
BRANCH  13  14
ATOM     14  C   LIG    1       26.961 -13.844   3.551  0.00  0.00    +0.203 C 
ATOM     15  C   LIG    1       26.084 -12.862   2.750  0.00  0.00    +0.068 C 
BRANCH  14  17
ATOM     16  C   LIG    1       25.285 -13.409   5.634  0.00  0.00    +0.008 C 
ATOM     17  C   LIG    1       26.433 -14.156   4.996  0.00  0.00    +0.056 C 
ENDBRANCH  14  17
BRANCH  14  18
ATOM     18  C   LIG    1       28.319 -13.110   3.926  0.00  0.00    +0.349 C 
ATOM     19  O   LIG    1       28.500 -12.504   5.002  0.00  0.00    -0.246 OA
BRANCH  18  20
ATOM     20  O   LIG    1       29.279 -13.017   2.979  0.00  0.00    -0.478 OA
ATOM     21  H   LIG    1       30.176 -13.316   3.202  0.00  0.00    +0.295 HD
ENDBRANCH  18  20
ENDBRANCH  14  18
ENDBRANCH  13  14
ENDBRANCH   7  13
ENDBRANCH   1  10
BRANCH   1  22
ATOM     22  C   LIG    1       25.054 -20.377   5.907  0.00  0.00    -0.033 A 
ATOM     23  C   LIG    1       24.010 -19.982   5.011  0.00  0.00    +0.050 A 
ATOM     24  C   LIG    1       22.644 -20.081   5.253  0.00  0.00    +0.122 A 
ATOM     25  C   LIG    1       22.280 -20.969   6.254  0.00  0.00    +0.045 A 
ATOM     26  C   LIG    1       23.267 -21.561   7.062  0.00  0.00    +0.004 A 
ATOM     27  C   LIG    1       24.627 -21.225   6.928  0.00  0.00    +0.005 A 
BRANCH  24  28
ATOM     28  O   LIG    1       21.655 -19.434   4.565  0.00  0.00    -0.475 OA
BRANCH  28  29
ATOM     29  C   LIG    1       21.799 -18.225   3.756  0.00  0.00    +0.203 C 
ATOM     30  C   LIG    1       22.980 -18.577   2.791  0.00  0.00    +0.068 C 
BRANCH  29  31
ATOM     31  C   LIG    1       22.213 -17.005   4.659  0.00  0.00    +0.349 C 
ATOM     32  O   LIG    1       21.715 -16.757   5.710  0.00  0.00    -0.246 OA
BRANCH  31  33
ATOM     33  O   LIG    1       23.204 -16.189   4.166  0.00  0.00    -0.478 OA
ATOM     34  H   LIG    1       24.129 -16.390   4.338  0.00  0.00    +0.295 HD
ENDBRANCH  31  33
ENDBRANCH  29  31
BRANCH  29  35
ATOM     35  C   LIG    1       20.682 -17.862   2.719  0.00  0.00    +0.056 C 
ATOM     36  C   LIG    1       19.356 -18.554   2.649  0.00  0.00    +0.008 C 
ENDBRANCH  29  35
ENDBRANCH  28  29
ENDBRANCH  24  28
ENDBRANCH   1  22
TORSDOF 12
ENDMDL
MODEL 2
REMARK VINA RESULT:       3.5      1.041      1.621
REMARK  Name = *****
REMARK                            x       y       z     vdW  Elec       q    Type
REMARK                         _______ _______ _______ _____ _____    ______ ____
ROOT
ATOM      1  C   LIG    1       26.571 -19.926   5.640  0.00  0.00    +0.021 C 
ATOM      2  C   LIG    1       27.432 -21.093   5.070  0.00  0.00    +0.016 C 
ATOM      3  C   LIG    1       28.955 -20.916   5.117  0.00  0.00    +0.001 C 
ATOM      4  C   LIG    1       29.462 -20.520   6.488  0.00  0.00    +0.000 C 
ATOM      5  C   LIG    1       28.713 -19.332   7.060  0.00  0.00    +0.001 C 
ATOM      6  C   LIG    1       27.210 -19.562   7.014  0.00  0.00    +0.016 C 
ENDROOT
BRANCH   1  10
ATOM      7  C   LIG    1       26.888 -16.219   3.218  0.00  0.00    +0.122 A 
ATOM      8  C   LIG    1       25.826 -17.054   3.002  0.00  0.00    +0.046 A 
ATOM      9  C   LIG    1       25.728 -18.264   3.738  0.00  0.00    +0.008 A 
ATOM     10  C   LIG    1       26.641 -18.693   4.723  0.00  0.00    -0.037 A 
ATOM     11  C   LIG    1       27.732 -17.890   4.826  0.00  0.00    +0.008 A 
ATOM     12  C   LIG    1       27.817 -16.743   4.080  0.00  0.00    +0.046 A 
BRANCH   7  13
ATOM     13  O   LIG    1       26.961 -14.982   2.631  0.00  0.00    -0.475 OA
BRANCH  13  14
ATOM     14  C   LIG    1       26.639 -13.789   3.414  0.00  0.00    +0.203 C 
ATOM     15  C   LIG    1       26.224 -14.187   4.843  0.00  0.00    +0.068 C 
BRANCH  14  17
ATOM     16  C   LIG    1       29.110 -12.822   3.958  0.00  0.00    +0.008 C 
ATOM     17  C   LIG    1       27.738 -12.669   3.344  0.00  0.00    +0.056 C 
ENDBRANCH  14  17
BRANCH  14  18
ATOM     18  C   LIG    1       25.431 -13.005   2.742  0.00  0.00    +0.349 C 
ATOM     19  O   LIG    1       25.097 -11.847   3.064  0.00  0.00    -0.246 OA
BRANCH  18  20
ATOM     20  O   LIG    1       24.637 -13.674   1.876  0.00  0.00    -0.478 OA
ATOM     21  H   LIG    1       24.575 -14.639   1.961  0.00  0.00    +0.295 HD
ENDBRANCH  18  20
ENDBRANCH  14  18
ENDBRANCH  13  14
ENDBRANCH   7  13
ENDBRANCH   1  10
BRANCH   1  22
ATOM     22  C   LIG    1       25.034 -20.434   5.815  0.00  0.00    -0.033 A 
ATOM     23  C   LIG    1       24.042 -20.348   4.787  0.00  0.00    +0.050 A 
ATOM     24  C   LIG    1       22.676 -20.555   4.947  0.00  0.00    +0.122 A 
ATOM     25  C   LIG    1       22.312 -21.264   6.082  0.00  0.00    +0.045 A 
ATOM     26  C   LIG    1       23.275 -21.566   7.062  0.00  0.00    +0.004 A 
ATOM     27  C   LIG    1       24.602 -21.107   6.957  0.00  0.00    +0.005 A 
BRANCH  24  28
ATOM     28  O   LIG    1       21.696 -20.177   4.074  0.00  0.00    -0.475 OA
BRANCH  28  29
ATOM     29  C   LIG    1       21.324 -18.809   3.714  0.00  0.00    +0.203 C 
ATOM     30  C   LIG    1       21.970 -18.621   2.301  0.00  0.00    +0.068 C 
BRANCH  29  31
ATOM     31  C   LIG    1       21.968 -17.782   4.719  0.00  0.00    +0.349 C 
ATOM     32  O   LIG    1       22.168 -18.013   5.867  0.00  0.00    -0.246 OA
BRANCH  31  33
ATOM     33  O   LIG    1       22.293 -16.549   4.206  0.00  0.00    -0.478 OA
ATOM     34  H   LIG    1       22.559 -15.833   4.791  0.00  0.00    +0.295 HD
ENDBRANCH  31  33
ENDBRANCH  29  31
BRANCH  29  35
ATOM     35  C   LIG    1       19.826 -18.483   3.389  0.00  0.00    +0.056 C 
ATOM     36  C   LIG    1       19.369 -17.880   2.097  0.00  0.00    +0.008 C 
ENDBRANCH  29  35
ENDBRANCH  28  29
ENDBRANCH  24  28
ENDBRANCH   1  22
TORSDOF 12
ENDMDL
MODEL 3
REMARK VINA RESULT:       6.0      1.977      5.258
REMARK  Name = *****
REMARK                            x       y       z     vdW  Elec       q    Type
REMARK                         _______ _______ _______ _____ _____    ______ ____
ROOT
ATOM      1  C   LIG    1       22.253 -18.568   4.309  0.00  0.00    +0.021 C 
ATOM      2  C   LIG    1       20.743 -18.496   4.686  0.00  0.00    +0.016 C 
ATOM      3  C   LIG    1       19.808 -17.822   3.673  0.00  0.00    +0.001 C 
ATOM      4  C   LIG    1       19.965 -18.367   2.269  0.00  0.00    +0.000 C 
ATOM      5  C   LIG    1       21.412 -18.384   1.815  0.00  0.00    +0.001 C 
ATOM      6  C   LIG    1       22.297 -19.081   2.837  0.00  0.00    +0.016 C 
ENDROOT
BRANCH   1  10
ATOM      7  C   LIG    1       24.378 -14.674   4.490  0.00  0.00    +0.122 A 
ATOM      8  C   LIG    1       23.136 -14.770   5.056  0.00  0.00    +0.046 A 
ATOM      9  C   LIG    1       22.424 -15.995   4.975  0.00  0.00    +0.008 A 
ATOM     10  C   LIG    1       22.899 -17.173   4.362  0.00  0.00    -0.037 A 
ATOM     11  C   LIG    1       24.083 -17.000   3.720  0.00  0.00    +0.008 A 
ATOM     12  C   LIG    1       24.736 -15.796   3.789  0.00  0.00    +0.046 A 
BRANCH   7  13
ATOM     13  O   LIG    1       25.158 -13.559   4.653  0.00  0.00    -0.475 OA
BRANCH  13  14
ATOM     14  C   LIG    1       26.442 -13.465   3.957  0.00  0.00    +0.203 C 
ATOM     15  C   LIG    1       26.241 -12.877   2.547  0.00  0.00    +0.068 C 
BRANCH  14  17
ATOM     16  C   LIG    1       28.863 -12.273   4.193  0.00  0.00    +0.008 C 
ATOM     17  C   LIG    1       27.569 -12.766   4.798  0.00  0.00    +0.056 C 
ENDBRANCH  14  17
BRANCH  14  18
ATOM     18  C   LIG    1       27.089 -14.908   3.810  0.00  0.00    +0.349 C 
ATOM     19  O   LIG    1       27.941 -15.365   4.599  0.00  0.00    -0.246 OA
BRANCH  18  20
ATOM     20  O   LIG    1       26.809 -15.625   2.698  0.00  0.00    -0.478 OA
ATOM     21  H   LIG    1       26.305 -16.449   2.798  0.00  0.00    +0.295 HD
ENDBRANCH  18  20
ENDBRANCH  14  18
ENDBRANCH  13  14
ENDBRANCH   7  13
ENDBRANCH   1  10
BRANCH   1  22
ATOM     22  C   LIG    1       23.007 -19.597   5.320  0.00  0.00    -0.033 A 
ATOM     23  C   LIG    1       24.319 -19.380   5.849  0.00  0.00    +0.050 A 
ATOM     24  C   LIG    1       25.092 -20.315   6.528  0.00  0.00    +0.122 A 
ATOM     25  C   LIG    1       24.396 -21.389   7.059  0.00  0.00    +0.045 A 
ATOM     26  C   LIG    1       23.037 -21.570   6.746  0.00  0.00    +0.004 A 
ATOM     27  C   LIG    1       22.369 -20.721   5.844  0.00  0.00    +0.005 A 
BRANCH  24  28
ATOM     28  O   LIG    1       26.438 -20.234   6.757  0.00  0.00    -0.475 OA
BRANCH  28  29
ATOM     29  C   LIG    1       27.497 -20.218   5.749  0.00  0.00    +0.203 C 
ATOM     30  C   LIG    1       28.360 -21.471   6.116  0.00  0.00    +0.068 C 
BRANCH  29  31
ATOM     31  C   LIG    1       28.377 -18.921   5.896  0.00  0.00    +0.349 C 
ATOM     32  O   LIG    1       28.940 -18.610   6.896  0.00  0.00    -0.246 OA
BRANCH  31  33
ATOM     33  O   LIG    1       28.466 -18.115   4.786  0.00  0.00    -0.478 OA
ATOM     34  H   LIG    1       28.856 -17.239   4.851  0.00  0.00    +0.295 HD
ENDBRANCH  31  33
ENDBRANCH  29  31
BRANCH  29  35
ATOM     35  C   LIG    1       27.140 -20.544   4.259  0.00  0.00    +0.056 C 
ATOM     36  C   LIG    1       26.131 -19.778   3.460  0.00  0.00    +0.008 C 
ENDBRANCH  29  35
ENDBRANCH  28  29
ENDBRANCH  24  28
ENDBRANCH   1  22
TORSDOF 12
ENDMDL
