MODEL 1
REMARK VINA RESULT:      -9.3      0.000      0.000
REMARK  Name = *****
REMARK                            x       y       z     vdW  Elec       q    Type
REMARK                         _______ _______ _______ _____ _____    ______ ____
ROOT
ATOM      1  C   LIG    1       30.728 -19.367   7.419  0.00  0.00    +0.127 A 
ATOM      2  C   LIG    1       30.027 -20.558   7.691  0.00  0.00    +0.013 A 
ATOM      3  C   LIG    1       30.547 -21.491   8.748  0.00  0.00    +0.049 C 
ATOM      4  C   LIG    1       28.867 -20.832   6.943  0.00  0.00    +0.060 A 
ATOM      5  N   LIG    1       28.419 -19.985   5.974  0.00  0.00    -0.259 NA
ATOM      6  C   LIG    1       29.093 -18.835   5.774  0.00  0.00    +0.114 A 
ATOM      7  C   LIG    1       30.216 -18.471   6.486  0.00  0.00    +0.065 A 
ENDROOT
BRANCH   1   8
ATOM      8  O   LIG    1       31.891 -19.141   8.129  0.00  0.00    -0.491 OA
BRANCH   8   9
ATOM      9  C   LIG    1       32.008 -17.841   8.725  0.00  0.00    +0.231 C 
BRANCH   9  10
ATOM     10  C   LIG    1       31.704 -17.882  10.221  0.00  0.00    +0.069 C 
BRANCH  10  11
ATOM     11  C   LIG    1       30.302 -17.362  10.518  0.00  0.00    +0.163 C 
BRANCH  11  13
ATOM     12  C   LIG    1       31.607 -16.249  12.118  0.00  0.00    +0.193 C 
ATOM     13  O   LIG    1       30.372 -16.245  11.406  0.00  0.00    -0.383 OA
ENDBRANCH  11  13
ENDBRANCH  10  11
ENDBRANCH   9  10
ENDBRANCH   8   9
ENDBRANCH   1   8
BRANCH   4  14
ATOM     14  C   LIG    1       27.954 -22.007   7.226  0.00  0.00    +0.167 C 
BRANCH  14  15
ATOM     15  S   LIG    1       26.518 -21.637   8.259  0.00  0.00    +0.095 S 
ATOM     16  O   LIG    1       26.635 -20.418   9.116  0.00  0.00    -0.249 OA
BRANCH  15  17
ATOM     17  C   LIG    1       25.405 -21.186   7.016  0.00  0.00    +0.198 A 
ATOM     18  N   LIG    1       25.764 -21.105   5.688  0.00  0.00    -0.331 N 
ATOM     19  H   LIG    1       26.674 -21.381   5.337  0.00  0.00    +0.168 HD
ATOM     20  C   LIG    1       24.770 -20.456   5.035  0.00  0.00    +0.067 A 
ATOM     21  C   LIG    1       23.754 -20.330   5.975  0.00  0.00    +0.090 A 
ATOM     22  C   LIG    1       22.546 -19.716   5.613  0.00  0.00    +0.030 A 
ATOM     23  C   LIG    1       22.437 -19.170   4.328  0.00  0.00    +0.002 A 
ATOM     24  C   LIG    1       23.485 -19.273   3.411  0.00  0.00    +0.002 A 
ATOM     25  C   LIG    1       24.674 -19.944   3.734  0.00  0.00    +0.028 A 
ATOM     26  N   LIG    1       24.153 -20.805   7.199  0.00  0.00    -0.220 NA
ENDBRANCH  15  17
ENDBRANCH  14  15
ENDBRANCH   4  14
TORSDOF 8
ENDMDL
MODEL 2
REMARK VINA RESULT:      -8.6      2.858      8.386
REMARK  Name = *****
REMARK                            x       y       z     vdW  Elec       q    Type
REMARK                         _______ _______ _______ _____ _____    ______ ____
ROOT
ATOM      1  C   LIG    1       24.998 -20.727   6.455  0.00  0.00    +0.127 A 
ATOM      2  C   LIG    1       26.149 -20.641   7.264  0.00  0.00    +0.013 A 
ATOM      3  C   LIG    1       26.060 -21.035   8.711  0.00  0.00    +0.049 C 
ATOM      4  C   LIG    1       27.338 -20.170   6.678  0.00  0.00    +0.060 A 
ATOM      5  N   LIG    1       27.397 -19.798   5.368  0.00  0.00    -0.259 NA
ATOM      6  C   LIG    1       26.286 -19.937   4.618  0.00  0.00    +0.114 A 
ATOM      7  C   LIG    1       25.090 -20.424   5.100  0.00  0.00    +0.065 A 
ENDROOT
BRANCH   1   8
ATOM      8  O   LIG    1       23.829 -21.144   7.061  0.00  0.00    -0.491 OA
BRANCH   8   9
ATOM      9  C   LIG    1       22.986 -21.987   6.263  0.00  0.00    +0.231 C 
BRANCH   9  10
ATOM     10  C   LIG    1       22.846 -23.379   6.876  0.00  0.00    +0.069 C 
BRANCH  10  11
ATOM     11  C   LIG    1       24.040 -24.261   6.532  0.00  0.00    +0.163 C 
BRANCH  11  13
ATOM     12  C   LIG    1       24.541 -26.531   6.219  0.00  0.00    +0.193 C 
ATOM     13  O   LIG    1       23.592 -25.497   5.972  0.00  0.00    -0.383 OA
ENDBRANCH  11  13
ENDBRANCH  10  11
ENDBRANCH   9  10
ENDBRANCH   8   9
ENDBRANCH   1   8
BRANCH   4  14
ATOM     14  C   LIG    1       28.670 -20.154   7.400  0.00  0.00    +0.167 C 
BRANCH  14  15
ATOM     15  S   LIG    1       29.983 -19.226   6.574  0.00  0.00    +0.095 S 
ATOM     16  O   LIG    1       29.538 -18.033   5.790  0.00  0.00    -0.249 OA
BRANCH  15  17
ATOM     17  C   LIG    1       30.756 -18.561   7.969  0.00  0.00    +0.198 A 
ATOM     18  N   LIG    1       30.225 -18.666   9.236  0.00  0.00    -0.331 N 
ATOM     19  H   LIG    1       29.394 -19.205   9.452  0.00  0.00    +0.168 HD
ATOM     20  C   LIG    1       30.904 -17.808  10.036  0.00  0.00    +0.067 A 
ATOM     21  C   LIG    1       31.953 -17.347   9.249  0.00  0.00    +0.090 A 
ATOM     22  C   LIG    1       32.881 -16.445   9.789  0.00  0.00    +0.030 A 
ATOM     23  C   LIG    1       32.669 -15.971  11.090  0.00  0.00    +0.002 A 
ATOM     24  C   LIG    1       31.587 -16.417  11.850  0.00  0.00    +0.002 A 
ATOM     25  C   LIG    1       30.686 -17.371  11.350  0.00  0.00    +0.028 A 
ATOM     26  N   LIG    1       31.863 -17.838   7.971  0.00  0.00    -0.220 NA
ENDBRANCH  15  17
ENDBRANCH  14  15
ENDBRANCH   4  14
TORSDOF 8
ENDMDL
MODEL 3
REMARK VINA RESULT:      -7.8      2.717      3.762
REMARK  Name = *****
REMARK                            x       y       z     vdW  Elec       q    Type
REMARK                         _______ _______ _______ _____ _____    ______ ____
ROOT
ATOM      1  C   LIG    1       30.536 -19.577   7.527  0.00  0.00    +0.127 A 
ATOM      2  C   LIG    1       29.359 -19.567   6.753  0.00  0.00    +0.013 A 
ATOM      3  C   LIG    1       29.179 -18.505   5.705  0.00  0.00    +0.049 C 
ATOM      4  C   LIG    1       28.388 -20.552   7.008  0.00  0.00    +0.060 A 
ATOM      5  N   LIG    1       28.557 -21.497   7.976  0.00  0.00    -0.259 NA
ATOM      6  C   LIG    1       29.716 -21.499   8.664  0.00  0.00    +0.114 A 
ATOM      7  C   LIG    1       30.735 -20.595   8.455  0.00  0.00    +0.065 A 
ENDROOT
BRANCH   1   8
ATOM      8  O   LIG    1       31.454 -18.572   7.296  0.00  0.00    -0.491 OA
BRANCH   8   9
ATOM      9  C   LIG    1       32.161 -18.102   8.452  0.00  0.00    +0.231 C 
BRANCH   9  10
ATOM     10  C   LIG    1       31.363 -17.034   9.199  0.00  0.00    +0.069 C 
BRANCH  10  11
ATOM     11  C   LIG    1       32.200 -16.376  10.290  0.00  0.00    +0.163 C 
BRANCH  11  13
ATOM     12  C   LIG    1       32.412 -16.708  12.602  0.00  0.00    +0.193 C 
ATOM     13  O   LIG    1       32.494 -17.323  11.319  0.00  0.00    -0.383 OA
ENDBRANCH  11  13
ENDBRANCH  10  11
ENDBRANCH   9  10
ENDBRANCH   8   9
ENDBRANCH   1   8
BRANCH   4  14
ATOM     14  C   LIG    1       27.143 -20.731   6.162  0.00  0.00    +0.167 C 
BRANCH  14  15
ATOM     15  S   LIG    1       25.594 -20.843   7.085  0.00  0.00    +0.095 S 
ATOM     16  O   LIG    1       24.398 -20.244   6.417  0.00  0.00    -0.249 OA
BRANCH  15  17
ATOM     17  C   LIG    1       25.341 -22.549   6.975  0.00  0.00    +0.198 A 
ATOM     18  N   LIG    1       26.374 -23.459   7.017  0.00  0.00    -0.331 N 
ATOM     19  H   LIG    1       27.338 -23.203   7.197  0.00  0.00    +0.168 HD
ATOM     20  C   LIG    1       25.881 -24.656   6.617  0.00  0.00    +0.067 A 
ATOM     21  C   LIG    1       24.508 -24.458   6.524  0.00  0.00    +0.090 A 
ATOM     22  C   LIG    1       23.677 -25.525   6.151  0.00  0.00    +0.030 A 
ATOM     23  C   LIG    1       24.275 -26.743   5.803  0.00  0.00    +0.002 A 
ATOM     24  C   LIG    1       25.659 -26.910   5.867  0.00  0.00    +0.002 A 
ATOM     25  C   LIG    1       26.500 -25.874   6.302  0.00  0.00    +0.028 A 
ATOM     26  N   LIG    1       24.181 -23.148   6.767  0.00  0.00    -0.220 NA
ENDBRANCH  15  17
ENDBRANCH  14  15
ENDBRANCH   4  14
TORSDOF 8
ENDMDL
MODEL 4
REMARK VINA RESULT:      -7.8      1.232      2.196
REMARK  Name = *****
REMARK                            x       y       z     vdW  Elec       q    Type
REMARK                         _______ _______ _______ _____ _____    ______ ____
ROOT
ATOM      1  C   LIG    1       31.090 -18.954   8.209  0.00  0.00    +0.127 A 
ATOM      2  C   LIG    1       30.052 -19.436   7.387  0.00  0.00    +0.013 A 
ATOM      3  C   LIG    1       29.461 -18.530   6.344  0.00  0.00    +0.049 C 
ATOM      4  C   LIG    1       29.601 -20.753   7.590  0.00  0.00    +0.060 A 
ATOM      5  N   LIG    1       30.135 -21.557   8.554  0.00  0.00    -0.259 NA
ATOM      6  C   LIG    1       31.155 -21.073   9.290  0.00  0.00    +0.114 A 
ATOM      7  C   LIG    1       31.683 -19.809   9.133  0.00  0.00    +0.065 A 
ENDROOT
BRANCH   1   8
ATOM      8  O   LIG    1       31.484 -17.644   8.027  0.00  0.00    -0.491 OA
BRANCH   8   9
ATOM      9  C   LIG    1       32.402 -17.132   9.004  0.00  0.00    +0.231 C 
BRANCH   9  10
ATOM     10  C   LIG    1       31.667 -16.551  10.211  0.00  0.00    +0.069 C 
BRANCH  10  11
ATOM     11  C   LIG    1       32.596 -16.406  11.411  0.00  0.00    +0.163 C 
BRANCH  11  13
ATOM     12  C   LIG    1       32.295 -15.889  13.679  0.00  0.00    +0.193 C 
ATOM     13  O   LIG    1       31.902 -16.750  12.612  0.00  0.00    -0.383 OA
ENDBRANCH  11  13
ENDBRANCH  10  11
ENDBRANCH   9  10
ENDBRANCH   8   9
ENDBRANCH   1   8
BRANCH   4  14
ATOM     14  C   LIG    1       28.588 -21.433   6.692  0.00  0.00    +0.167 C 
BRANCH  14  15
ATOM     15  S   LIG    1       27.049 -21.926   7.501  0.00  0.00    +0.095 S 
ATOM     16  O   LIG    1       26.879 -21.457   8.910  0.00  0.00    -0.249 OA
BRANCH  15  17
ATOM     17  C   LIG    1       25.946 -20.957   6.588  0.00  0.00    +0.198 A 
ATOM     18  N   LIG    1       24.631 -20.778   6.956  0.00  0.00    -0.331 N 
ATOM     19  H   LIG    1       24.240 -21.129   7.823  0.00  0.00    +0.168 HD
ATOM     20  C   LIG    1       23.982 -20.228   5.901  0.00  0.00    +0.067 A 
ATOM     21  C   LIG    1       24.987 -19.924   4.989  0.00  0.00    +0.090 A 
ATOM     22  C   LIG    1       24.657 -19.307   3.774  0.00  0.00    +0.030 A 
ATOM     23  C   LIG    1       23.303 -19.092   3.483  0.00  0.00    +0.002 A 
ATOM     24  C   LIG    1       22.307 -19.441   4.397  0.00  0.00    +0.002 A 
ATOM     25  C   LIG    1       22.624 -19.997   5.646  0.00  0.00    +0.028 A 
ATOM     26  N   LIG    1       26.207 -20.365   5.435  0.00  0.00    -0.220 NA
ENDBRANCH  15  17
ENDBRANCH  14  15
ENDBRANCH   4  14
TORSDOF 8
ENDMDL
MODEL 5
REMARK VINA RESULT:      -7.7      3.272      4.437
REMARK  Name = *****
REMARK                            x       y       z     vdW  Elec       q    Type
REMARK                         _______ _______ _______ _____ _____    ______ ____
ROOT
ATOM      1  C   LIG    1       28.178 -20.591   7.155  0.00  0.00    +0.127 A 
ATOM      2  C   LIG    1       26.828 -20.863   7.452  0.00  0.00    +0.013 A 
ATOM      3  C   LIG    1       26.479 -21.493   8.772  0.00  0.00    +0.049 C 
ATOM      4  C   LIG    1       25.857 -20.546   6.484  0.00  0.00    +0.060 A 
ATOM      5  N   LIG    1       26.192 -19.993   5.284  0.00  0.00    -0.259 NA
ATOM      6  C   LIG    1       27.489 -19.707   5.056  0.00  0.00    +0.114 A 
ATOM      7  C   LIG    1       28.499 -19.951   5.962  0.00  0.00    +0.065 A 
ENDROOT
BRANCH   1   8
ATOM      8  O   LIG    1       29.119 -20.955   8.097  0.00  0.00    -0.491 OA
BRANCH   8   9
ATOM      9  C   LIG    1       30.398 -20.318   7.972  0.00  0.00    +0.231 C 
BRANCH   9  10
ATOM     10  C   LIG    1       30.512 -19.106   8.897  0.00  0.00    +0.069 C 
BRANCH  10  11
ATOM     11  C   LIG    1       31.864 -18.418   8.748  0.00  0.00    +0.163 C 
BRANCH  11  13
ATOM     12  C   LIG    1       32.717 -16.615   9.981  0.00  0.00    +0.193 C 
ATOM     13  O   LIG    1       32.337 -17.988  10.026  0.00  0.00    -0.383 OA
ENDBRANCH  11  13
ENDBRANCH  10  11
ENDBRANCH   9  10
ENDBRANCH   8   9
ENDBRANCH   1   8
BRANCH   4  14
ATOM     14  C   LIG    1       24.367 -20.667   6.730  0.00  0.00    +0.167 C 
BRANCH  14  15
ATOM     15  S   LIG    1       23.467 -21.672   5.528  0.00  0.00    +0.095 S 
ATOM     16  O   LIG    1       23.622 -21.265   4.098  0.00  0.00    -0.249 OA
BRANCH  15  17
ATOM     17  C   LIG    1       24.382 -23.132   5.663  0.00  0.00    +0.198 A 
ATOM     18  N   LIG    1       24.774 -23.869   4.568  0.00  0.00    -0.331 N 
ATOM     19  H   LIG    1       24.629 -23.569   3.610  0.00  0.00    +0.168 HD
ATOM     20  C   LIG    1       25.203 -25.073   5.017  0.00  0.00    +0.067 A 
ATOM     21  C   LIG    1       25.224 -24.945   6.402  0.00  0.00    +0.090 A 
ATOM     22  C   LIG    1       25.653 -26.022   7.191  0.00  0.00    +0.030 A 
ATOM     23  C   LIG    1       25.969 -27.229   6.554  0.00  0.00    +0.002 A 
ATOM     24  C   LIG    1       25.905 -27.348   5.165  0.00  0.00    +0.002 A 
ATOM     25  C   LIG    1       25.543 -26.261   4.355  0.00  0.00    +0.028 A 
ATOM     26  N   LIG    1       24.729 -23.726   6.792  0.00  0.00    -0.220 NA
ENDBRANCH  15  17
ENDBRANCH  14  15
ENDBRANCH   4  14
TORSDOF 8
ENDMDL
MODEL 6
REMARK VINA RESULT:      -7.6      3.548      8.524
REMARK  Name = *****
REMARK                            x       y       z     vdW  Elec       q    Type
REMARK                         _______ _______ _______ _____ _____    ______ ____
ROOT
ATOM      1  C   LIG    1       24.906 -22.671   5.793  0.00  0.00    +0.127 A 
ATOM      2  C   LIG    1       25.792 -22.167   6.765  0.00  0.00    +0.013 A 
ATOM      3  C   LIG    1       26.161 -23.029   7.940  0.00  0.00    +0.049 C 
ATOM      4  C   LIG    1       26.286 -20.860   6.599  0.00  0.00    +0.060 A 
ATOM      5  N   LIG    1       25.926 -20.084   5.537  0.00  0.00    -0.259 NA
ATOM      6  C   LIG    1       25.111 -20.619   4.607  0.00  0.00    +0.114 A 
ATOM      7  C   LIG    1       24.611 -21.902   4.671  0.00  0.00    +0.065 A 
ENDROOT
BRANCH   1   8
ATOM      8  O   LIG    1       24.394 -23.937   6.000  0.00  0.00    -0.491 OA
BRANCH   8   9
ATOM      9  C   LIG    1       24.866 -24.950   5.100  0.00  0.00    +0.231 C 
BRANCH   9  10
ATOM     10  C   LIG    1       25.739 -25.976   5.821  0.00  0.00    +0.069 C 
BRANCH  10  11
ATOM     11  C   LIG    1       26.036 -27.177   4.930  0.00  0.00    +0.163 C 
BRANCH  11  13
ATOM     12  C   LIG    1       24.291 -28.676   5.386  0.00  0.00    +0.193 C 
ATOM     13  O   LIG    1       25.670 -28.385   5.600  0.00  0.00    -0.383 OA
ENDBRANCH  11  13
ENDBRANCH  10  11
ENDBRANCH   9  10
ENDBRANCH   8   9
ENDBRANCH   1   8
BRANCH   4  14
ATOM     14  C   LIG    1       27.342 -20.250   7.497  0.00  0.00    +0.167 C 
BRANCH  14  15
ATOM     15  S   LIG    1       28.995 -20.133   6.775  0.00  0.00    +0.095 S 
ATOM     16  O   LIG    1       29.075 -19.446   5.450  0.00  0.00    -0.249 OA
BRANCH  15  17
ATOM     17  C   LIG    1       29.692 -19.009   7.887  0.00  0.00    +0.198 A 
ATOM     18  N   LIG    1       30.839 -18.298   7.607  0.00  0.00    -0.331 N 
ATOM     19  H   LIG    1       31.305 -18.320   6.707  0.00  0.00    +0.168 HD
ATOM     20  C   LIG    1       31.272 -17.747   8.767  0.00  0.00    +0.067 A 
ATOM     21  C   LIG    1       30.253 -18.000   9.679  0.00  0.00    +0.090 A 
ATOM     22  C   LIG    1       30.370 -17.533  10.996  0.00  0.00    +0.030 A 
ATOM     23  C   LIG    1       31.558 -16.893  11.372  0.00  0.00    +0.002 A 
ATOM     24  C   LIG    1       32.585 -16.684  10.451  0.00  0.00    +0.002 A 
ATOM     25  C   LIG    1       32.457 -17.084   9.111  0.00  0.00    +0.028 A 
ATOM     26  N   LIG    1       29.266 -18.769   9.115  0.00  0.00    -0.220 NA
ENDBRANCH  15  17
ENDBRANCH  14  15
ENDBRANCH   4  14
TORSDOF 8
ENDMDL
MODEL 7
REMARK VINA RESULT:      -7.5      2.529      7.788
REMARK  Name = *****
REMARK                            x       y       z     vdW  Elec       q    Type
REMARK                         _______ _______ _______ _____ _____    ______ ____
ROOT
ATOM      1  C   LIG    1       24.261 -22.399   7.004  0.00  0.00    +0.127 A 
ATOM      2  C   LIG    1       25.391 -21.656   7.399  0.00  0.00    +0.013 A 
ATOM      3  C   LIG    1       25.214 -20.230   7.840  0.00  0.00    +0.049 C 
ATOM      4  C   LIG    1       26.649 -22.283   7.348  0.00  0.00    +0.060 A 
ATOM      5  N   LIG    1       26.795 -23.572   6.926  0.00  0.00    -0.259 NA
ATOM      6  C   LIG    1       25.684 -24.262   6.599  0.00  0.00    +0.114 A 
ATOM      7  C   LIG    1       24.410 -23.738   6.655  0.00  0.00    +0.065 A 
ENDROOT
BRANCH   1   8
ATOM      8  O   LIG    1       23.042 -21.750   7.014  0.00  0.00    -0.491 OA
BRANCH   8   9
ATOM      9  C   LIG    1       22.557 -21.325   5.733  0.00  0.00    +0.231 C 
BRANCH   9  10
ATOM     10  C   LIG    1       22.558 -19.802   5.612  0.00  0.00    +0.069 C 
BRANCH  10  11
ATOM     11  C   LIG    1       23.042 -19.353   4.238  0.00  0.00    +0.163 C 
BRANCH  11  13
ATOM     12  C   LIG    1       25.309 -19.603   3.689  0.00  0.00    +0.193 C 
ATOM     13  O   LIG    1       24.041 -20.252   3.753  0.00  0.00    -0.383 OA
ENDBRANCH  11  13
ENDBRANCH  10  11
ENDBRANCH   9  10
ENDBRANCH   8   9
ENDBRANCH   1   8
BRANCH   4  14
ATOM     14  C   LIG    1       27.919 -21.642   7.866  0.00  0.00    +0.167 C 
BRANCH  14  15
ATOM     15  S   LIG    1       28.899 -20.761   6.629  0.00  0.00    +0.095 S 
ATOM     16  O   LIG    1       28.118 -20.026   5.588  0.00  0.00    -0.249 OA
BRANCH  15  17
ATOM     17  C   LIG    1       29.548 -19.518   7.640  0.00  0.00    +0.198 A 
ATOM     18  N   LIG    1       30.727 -18.865   7.354  0.00  0.00    -0.331 N 
ATOM     19  H   LIG    1       31.252 -19.007   6.499  0.00  0.00    +0.168 HD
ATOM     20  C   LIG    1       31.096 -18.181   8.465  0.00  0.00    +0.067 A 
ATOM     21  C   LIG    1       30.013 -18.303   9.328  0.00  0.00    +0.090 A 
ATOM     22  C   LIG    1       30.053 -17.678  10.583  0.00  0.00    +0.030 A 
ATOM     23  C   LIG    1       31.229 -17.015  10.959  0.00  0.00    +0.002 A 
ATOM     24  C   LIG    1       32.320 -16.938  10.091  0.00  0.00    +0.002 A 
ATOM     25  C   LIG    1       32.272 -17.500   8.806  0.00  0.00    +0.028 A 
ATOM     26  N   LIG    1       29.048 -19.120   8.797  0.00  0.00    -0.220 NA
ENDBRANCH  15  17
ENDBRANCH  14  15
ENDBRANCH   4  14
TORSDOF 8
ENDMDL
MODEL 8
REMARK VINA RESULT:      -7.5      2.636      8.331
REMARK  Name = *****
REMARK                            x       y       z     vdW  Elec       q    Type
REMARK                         _______ _______ _______ _____ _____    ______ ____
ROOT
ATOM      1  C   LIG    1       25.880 -21.521   6.418  0.00  0.00    +0.127 A 
ATOM      2  C   LIG    1       26.842 -20.496   6.319  0.00  0.00    +0.013 A 
ATOM      3  C   LIG    1       26.840 -19.603   5.110  0.00  0.00    +0.049 C 
ATOM      4  C   LIG    1       27.780 -20.363   7.358  0.00  0.00    +0.060 A 
ATOM      5  N   LIG    1       27.781 -21.194   8.439  0.00  0.00    -0.259 NA
ATOM      6  C   LIG    1       26.817 -22.133   8.517  0.00  0.00    +0.114 A 
ATOM      7  C   LIG    1       25.838 -22.310   7.563  0.00  0.00    +0.065 A 
ENDROOT
BRANCH   1   8
ATOM      8  O   LIG    1       25.000 -21.667   5.364  0.00  0.00    -0.491 OA
BRANCH   8   9
ATOM      9  C   LIG    1       23.781 -22.360   5.668  0.00  0.00    +0.231 C 
BRANCH   9  10
ATOM     10  C   LIG    1       22.565 -21.447   5.514  0.00  0.00    +0.069 C 
BRANCH  10  11
ATOM     11  C   LIG    1       22.918 -19.995   5.817  0.00  0.00    +0.163 C 
BRANCH  11  13
ATOM     12  C   LIG    1       23.441 -18.930   3.794  0.00  0.00    +0.193 C 
ATOM     13  O   LIG    1       22.431 -19.145   4.777  0.00  0.00    -0.383 OA
ENDBRANCH  11  13
ENDBRANCH  10  11
ENDBRANCH   9  10
ENDBRANCH   8   9
ENDBRANCH   1   8
BRANCH   4  14
ATOM     14  C   LIG    1       28.779 -19.226   7.436  0.00  0.00    +0.167 C 
BRANCH  14  15
ATOM     15  S   LIG    1       30.500 -19.690   7.139  0.00  0.00    +0.095 S 
ATOM     16  O   LIG    1       31.105 -19.158   5.880  0.00  0.00    -0.249 OA
BRANCH  15  17
ATOM     17  C   LIG    1       31.244 -18.769   8.398  0.00  0.00    +0.198 A 
ATOM     18  N   LIG    1       30.884 -18.891   9.722  0.00  0.00    -0.331 N 
ATOM     19  H   LIG    1       30.222 -19.579  10.061  0.00  0.00    +0.168 HD
ATOM     20  C   LIG    1       31.431 -17.847  10.392  0.00  0.00    +0.067 A 
ATOM     21  C   LIG    1       32.264 -17.231   9.465  0.00  0.00    +0.090 A 
ATOM     22  C   LIG    1       33.017 -16.111   9.845  0.00  0.00    +0.030 A 
ATOM     23  C   LIG    1       32.839 -15.597  11.136  0.00  0.00    +0.002 A 
ATOM     24  C   LIG    1       31.969 -16.209  12.040  0.00  0.00    +0.002 A 
ATOM     25  C   LIG    1       31.258 -17.370  11.698  0.00  0.00    +0.028 A 
ATOM     26  N   LIG    1       32.155 -17.825   8.233  0.00  0.00    -0.220 NA
ENDBRANCH  15  17
ENDBRANCH  14  15
ENDBRANCH   4  14
TORSDOF 8
ENDMDL
MODEL 9
REMARK VINA RESULT:      -7.3      5.009      7.055
REMARK  Name = *****
REMARK                            x       y       z     vdW  Elec       q    Type
REMARK                         _______ _______ _______ _____ _____    ______ ____
ROOT
ATOM      1  C   LIG    1       26.029 -20.918   6.152  0.00  0.00    +0.127 A 
ATOM      2  C   LIG    1       25.806 -22.204   6.683  0.00  0.00    +0.013 A 
ATOM      3  C   LIG    1       26.534 -22.618   7.932  0.00  0.00    +0.049 C 
ATOM      4  C   LIG    1       24.916 -23.058   6.007  0.00  0.00    +0.060 A 
ATOM      5  N   LIG    1       24.279 -22.674   4.864  0.00  0.00    -0.259 NA
ATOM      6  C   LIG    1       24.485 -21.421   4.413  0.00  0.00    +0.114 A 
ATOM      7  C   LIG    1       25.311 -20.507   5.033  0.00  0.00    +0.065 A 
ENDROOT
BRANCH   1   8
ATOM      8  O   LIG    1       26.943 -20.114   6.803  0.00  0.00    -0.491 OA
BRANCH   8   9
ATOM      9  C   LIG    1       28.111 -19.768   6.045  0.00  0.00    +0.231 C 
BRANCH   9  10
ATOM     10  C   LIG    1       29.381 -20.319   6.692  0.00  0.00    +0.069 C 
BRANCH  10  11
ATOM     11  C   LIG    1       30.538 -19.333   6.576  0.00  0.00    +0.163 C 
BRANCH  11  13
ATOM     12  C   LIG    1       31.346 -19.576   8.765  0.00  0.00    +0.193 C 
ATOM     13  O   LIG    1       31.635 -19.768   7.382  0.00  0.00    -0.383 OA
ENDBRANCH  11  13
ENDBRANCH  10  11
ENDBRANCH   9  10
ENDBRANCH   8   9
ENDBRANCH   1   8
BRANCH   4  14
ATOM     14  C   LIG    1       24.492 -24.410   6.543  0.00  0.00    +0.167 C 
BRANCH  14  15
ATOM     15  S   LIG    1       24.528 -25.760   5.343  0.00  0.00    +0.095 S 
ATOM     16  O   LIG    1       25.611 -25.685   4.316  0.00  0.00    -0.249 OA
BRANCH  15  17
ATOM     17  C   LIG    1       25.019 -27.039   6.396  0.00  0.00    +0.198 A 
ATOM     18  N   LIG    1       24.365 -28.250   6.454  0.00  0.00    -0.331 N 
ATOM     19  H   LIG    1       23.608 -28.507   5.831  0.00  0.00    +0.168 HD
ATOM     20  C   LIG    1       24.804 -28.900   7.559  0.00  0.00    +0.067 A 
ATOM     21  C   LIG    1       25.855 -28.122   8.031  0.00  0.00    +0.090 A 
ATOM     22  C   LIG    1       26.563 -28.530   9.171  0.00  0.00    +0.030 A 
ATOM     23  C   LIG    1       26.128 -29.676   9.849  0.00  0.00    +0.002 A 
ATOM     24  C   LIG    1       25.045 -30.422   9.380  0.00  0.00    +0.002 A 
ATOM     25  C   LIG    1       24.368 -30.066   8.203  0.00  0.00    +0.028 A 
ATOM     26  N   LIG    1       25.993 -26.977   7.289  0.00  0.00    -0.220 NA
ENDBRANCH  15  17
ENDBRANCH  14  15
ENDBRANCH   4  14
TORSDOF 8
ENDMDL
