MODEL 1
REMARK VINA RESULT:      -6.5      0.000      0.000
REMARK  Name = *****
REMARK                            x       y       z     vdW  Elec       q    Type
REMARK                         _______ _______ _______ _____ _____    ______ ____
ROOT
ATOM      1  C   LIG    1       25.890 -20.645   8.008  0.00  0.00    +0.059 C 
ATOM      2  C   LIG    1       25.029 -21.345   6.977  0.00  0.00    +0.037 C 
ATOM      3  C   LIG    1       26.527 -21.550   7.000  0.00  0.00    +0.029 C 
ENDROOT
BRANCH   2   4
ATOM      4  C   LIG    1       24.390 -20.549   5.863  0.00  0.00    -0.043 A 
ATOM      5  C   LIG    1       25.126 -20.162   4.730  0.00  0.00    +0.004 A 
ATOM      6  C   LIG    1       24.544 -19.414   3.703  0.00  0.00    +0.000 A 
ATOM      7  C   LIG    1       23.210 -19.030   3.793  0.00  0.00    +0.000 A 
ATOM      8  C   LIG    1       22.460 -19.391   4.908  0.00  0.00    +0.000 A 
ATOM      9  C   LIG    1       23.048 -20.140   5.932  0.00  0.00    +0.004 A 
ENDBRANCH   2   4
BRANCH   1  10
ATOM     10  N   LIG    1       25.825 -21.057   9.410  0.00  0.00    -0.327 NA
ATOM     11  H   LIG    1       24.865 -21.084   9.750  0.00  0.00    +0.118 HD
ATOM     12  H   LIG    1       26.189 -22.002   9.522  0.00  0.00    +0.118 HD
ENDBRANCH   1  10
TORSDOF 2
ENDMDL
MODEL 2
REMARK VINA RESULT:      -6.5      4.159      5.150
REMARK  Name = *****
REMARK                            x       y       z     vdW  Elec       q    Type
REMARK                         _______ _______ _______ _____ _____    ______ ____
ROOT
ATOM      1  C   LIG    1       25.815 -26.302   5.167  0.00  0.00    +0.059 C 
ATOM      2  C   LIG    1       25.378 -25.900   6.560  0.00  0.00    +0.037 C 
ATOM      3  C   LIG    1       24.584 -26.910   5.764  0.00  0.00    +0.029 C 
ENDROOT
BRANCH   2   4
ATOM      4  C   LIG    1       24.819 -24.518   6.805  0.00  0.00    -0.043 A 
ATOM      5  C   LIG    1       25.637 -23.472   7.264  0.00  0.00    +0.004 A 
ATOM      6  C   LIG    1       25.123 -22.196   7.506  0.00  0.00    +0.000 A 
ATOM      7  C   LIG    1       23.771 -21.941   7.301  0.00  0.00    +0.000 A 
ATOM      8  C   LIG    1       22.935 -22.961   6.857  0.00  0.00    +0.000 A 
ATOM      9  C   LIG    1       23.456 -24.235   6.616  0.00  0.00    +0.004 A 
ENDBRANCH   2   4
BRANCH   1  10
ATOM     10  N   LIG    1       27.012 -27.123   4.988  0.00  0.00    -0.327 NA
ATOM     11  H   LIG    1       26.839 -28.098   5.229  0.00  0.00    +0.118 HD
ATOM     12  H   LIG    1       27.303 -27.123   4.011  0.00  0.00    +0.118 HD
ENDBRANCH   1  10
TORSDOF 2
ENDMDL
MODEL 3
REMARK VINA RESULT:      -6.4      4.204      5.336
REMARK  Name = *****
REMARK                            x       y       z     vdW  Elec       q    Type
REMARK                         _______ _______ _______ _____ _____    ______ ____
ROOT
ATOM      1  C   LIG    1       25.809 -26.328   5.144  0.00  0.00    +0.059 C 
ATOM      2  C   LIG    1       25.328 -25.970   6.534  0.00  0.00    +0.037 C 
ATOM      3  C   LIG    1       24.546 -26.934   5.671  0.00  0.00    +0.029 C 
ENDROOT
BRANCH   2   4
ATOM      4  C   LIG    1       24.784 -24.588   6.812  0.00  0.00    -0.043 A 
ATOM      5  C   LIG    1       23.425 -24.288   6.618  0.00  0.00    +0.004 A 
ATOM      6  C   LIG    1       22.918 -23.009   6.858  0.00  0.00    +0.000 A 
ATOM      7  C   LIG    1       23.767 -21.996   7.293  0.00  0.00    +0.000 A 
ATOM      8  C   LIG    1       25.120 -22.262   7.484  0.00  0.00    +0.000 A 
ATOM      9  C   LIG    1       25.620 -23.544   7.241  0.00  0.00    +0.004 A 
ENDBRANCH   2   4
BRANCH   1  10
ATOM     10  N   LIG    1       26.998 -27.164   4.978  0.00  0.00    -0.327 NA
ATOM     11  H   LIG    1       26.855 -27.887   4.274  0.00  0.00    +0.118 HD
ATOM     12  H   LIG    1       27.785 -26.605   4.650  0.00  0.00    +0.118 HD
ENDBRANCH   1  10
TORSDOF 2
ENDMDL
MODEL 4
REMARK VINA RESULT:      -6.2      1.663      2.019
REMARK  Name = *****
REMARK                            x       y       z     vdW  Elec       q    Type
REMARK                         _______ _______ _______ _____ _____    ______ ____
ROOT
ATOM      1  C   LIG    1       24.779 -23.328   6.159  0.00  0.00    +0.059 C 
ATOM      2  C   LIG    1       24.434 -21.938   6.650  0.00  0.00    +0.037 C 
ATOM      3  C   LIG    1       23.500 -23.099   6.904  0.00  0.00    +0.029 C 
ENDROOT
BRANCH   2   4
ATOM      4  C   LIG    1       24.054 -20.861   5.660  0.00  0.00    -0.043 A 
ATOM      5  C   LIG    1       24.948 -20.443   4.661  0.00  0.00    +0.004 A 
ATOM      6  C   LIG    1       24.608 -19.438   3.751  0.00  0.00    +0.000 A 
ATOM      7  C   LIG    1       23.363 -18.822   3.830  0.00  0.00    +0.000 A 
ATOM      8  C   LIG    1       22.461 -19.209   4.817  0.00  0.00    +0.000 A 
ATOM      9  C   LIG    1       22.808 -20.215   5.723  0.00  0.00    +0.004 A 
ENDBRANCH   2   4
BRANCH   1  10
ATOM     10  N   LIG    1       25.862 -24.076   6.797  0.00  0.00    -0.327 NA
ATOM     11  H   LIG    1       25.960 -25.009   6.398  0.00  0.00    +0.118 HD
ATOM     12  H   LIG    1       26.756 -23.611   6.643  0.00  0.00    +0.118 HD
ENDBRANCH   1  10
TORSDOF 2
ENDMDL
MODEL 5
REMARK VINA RESULT:      -6.1      3.003      4.307
REMARK  Name = *****
REMARK                            x       y       z     vdW  Elec       q    Type
REMARK                         _______ _______ _______ _____ _____    ______ ____
ROOT
ATOM      1  C   LIG    1       30.007 -19.430   7.198  0.00  0.00    +0.059 C 
ATOM      2  C   LIG    1       29.004 -20.070   6.262  0.00  0.00    +0.037 C 
ATOM      3  C   LIG    1       29.482 -18.655   6.029  0.00  0.00    +0.029 C 
ENDROOT
BRANCH   2   4
ATOM      4  C   LIG    1       27.590 -20.325   6.732  0.00  0.00    -0.043 A 
ATOM      5  C   LIG    1       26.522 -20.393   5.821  0.00  0.00    +0.004 A 
ATOM      6  C   LIG    1       25.211 -20.614   6.250  0.00  0.00    +0.000 A 
ATOM      7  C   LIG    1       24.940 -20.765   7.606  0.00  0.00    +0.000 A 
ATOM      8  C   LIG    1       25.977 -20.693   8.531  0.00  0.00    +0.000 A 
ATOM      9  C   LIG    1       27.287 -20.471   8.095  0.00  0.00    +0.004 A 
ENDBRANCH   2   4
BRANCH   1  10
ATOM     10  N   LIG    1       31.397 -19.886   7.197  0.00  0.00    -0.327 NA
ATOM     11  H   LIG    1       31.982 -19.309   7.800  0.00  0.00    +0.118 HD
ATOM     12  H   LIG    1       31.462 -20.834   7.567  0.00  0.00    +0.118 HD
ENDBRANCH   1  10
TORSDOF 2
ENDMDL
MODEL 6
REMARK VINA RESULT:      -6.1      2.994      4.351
REMARK  Name = *****
REMARK                            x       y       z     vdW  Elec       q    Type
REMARK                         _______ _______ _______ _____ _____    ______ ____
ROOT
ATOM      1  C   LIG    1       29.993 -19.416   7.192  0.00  0.00    +0.059 C 
ATOM      2  C   LIG    1       28.992 -20.076   6.267  0.00  0.00    +0.037 C 
ATOM      3  C   LIG    1       29.482 -18.672   5.997  0.00  0.00    +0.029 C 
ENDROOT
BRANCH   2   4
ATOM      4  C   LIG    1       27.573 -20.307   6.733  0.00  0.00    -0.043 A 
ATOM      5  C   LIG    1       27.272 -20.469   8.096  0.00  0.00    +0.004 A 
ATOM      6  C   LIG    1       25.964 -20.698   8.531  0.00  0.00    +0.000 A 
ATOM      7  C   LIG    1       24.927 -20.777   7.607  0.00  0.00    +0.000 A 
ATOM      8  C   LIG    1       25.199 -20.630   6.250  0.00  0.00    +0.000 A 
ATOM      9  C   LIG    1       26.509 -20.402   5.821  0.00  0.00    +0.004 A 
ENDBRANCH   2   4
BRANCH   1  10
ATOM     10  N   LIG    1       31.379 -19.882   7.215  0.00  0.00    -0.327 NA
ATOM     11  H   LIG    1       31.964 -19.293   7.805  0.00  0.00    +0.118 HD
ATOM     12  H   LIG    1       31.434 -20.820   7.613  0.00  0.00    +0.118 HD
ENDBRANCH   1  10
TORSDOF 2
ENDMDL
MODEL 7
REMARK VINA RESULT:      -6.1      2.372      3.944
REMARK  Name = *****
REMARK                            x       y       z     vdW  Elec       q    Type
REMARK                         _______ _______ _______ _____ _____    ______ ____
ROOT
ATOM      1  C   LIG    1       23.233 -22.665   6.220  0.00  0.00    +0.059 C 
ATOM      2  C   LIG    1       23.610 -21.457   7.052  0.00  0.00    +0.037 C 
ATOM      3  C   LIG    1       22.795 -21.300   5.788  0.00  0.00    +0.029 C 
ENDROOT
BRANCH   2   4
ATOM      4  C   LIG    1       25.045 -20.987   7.092  0.00  0.00    -0.043 A 
ATOM      5  C   LIG    1       25.728 -20.633   5.916  0.00  0.00    +0.004 A 
ATOM      6  C   LIG    1       27.060 -20.211   5.945  0.00  0.00    +0.000 A 
ATOM      7  C   LIG    1       27.741 -20.142   7.156  0.00  0.00    +0.000 A 
ATOM      8  C   LIG    1       27.092 -20.497   8.335  0.00  0.00    +0.000 A 
ATOM      9  C   LIG    1       25.760 -20.918   8.299  0.00  0.00    +0.004 A 
ENDBRANCH   2   4
BRANCH   1  10
ATOM     10  N   LIG    1       22.243 -23.616   6.725  0.00  0.00    -0.327 NA
ATOM     11  H   LIG    1       21.307 -23.402   6.383  0.00  0.00    +0.118 HD
ATOM     12  H   LIG    1       22.453 -24.559   6.397  0.00  0.00    +0.118 HD
ENDBRANCH   1  10
TORSDOF 2
ENDMDL
MODEL 8
REMARK VINA RESULT:      -6.1      3.518      4.808
REMARK  Name = *****
REMARK                            x       y       z     vdW  Elec       q    Type
REMARK                         _______ _______ _______ _____ _____    ______ ____
ROOT
ATOM      1  C   LIG    1       25.214 -25.446   5.134  0.00  0.00    +0.059 C 
ATOM      2  C   LIG    1       25.130 -25.072   6.599  0.00  0.00    +0.037 C 
ATOM      3  C   LIG    1       23.991 -25.799   5.922  0.00  0.00    +0.029 C 
ENDROOT
BRANCH   2   4
ATOM      4  C   LIG    1       24.973 -23.623   6.999  0.00  0.00    -0.043 A 
ATOM      5  C   LIG    1       23.782 -22.923   6.745  0.00  0.00    +0.004 A 
ATOM      6  C   LIG    1       23.636 -21.579   7.100  0.00  0.00    +0.000 A 
ATOM      7  C   LIG    1       24.687 -20.904   7.712  0.00  0.00    +0.000 A 
ATOM      8  C   LIG    1       25.882 -21.571   7.967  0.00  0.00    +0.000 A 
ATOM      9  C   LIG    1       26.021 -22.914   7.610  0.00  0.00    +0.004 A 
ENDBRANCH   2   4
BRANCH   1  10
ATOM     10  N   LIG    1       26.128 -26.504   4.704  0.00  0.00    -0.327 NA
ATOM     11  H   LIG    1       25.789 -26.977   3.867  0.00  0.00    +0.118 HD
ATOM     12  H   LIG    1       27.036 -26.113   4.457  0.00  0.00    +0.118 HD
ENDBRANCH   1  10
TORSDOF 2
ENDMDL
MODEL 9
REMARK VINA RESULT:      -6.0      3.154      4.879
REMARK  Name = *****
REMARK                            x       y       z     vdW  Elec       q    Type
REMARK                         _______ _______ _______ _____ _____    ______ ____
ROOT
ATOM      1  C   LIG    1       23.764 -20.761   6.091  0.00  0.00    +0.059 C 
ATOM      2  C   LIG    1       23.565 -21.864   7.109  0.00  0.00    +0.037 C 
ATOM      3  C   LIG    1       24.465 -20.688   7.412  0.00  0.00    +0.029 C 
ENDROOT
BRANCH   2   4
ATOM      4  C   LIG    1       24.160 -23.231   6.867  0.00  0.00    -0.043 A 
ATOM      5  C   LIG    1       23.360 -24.309   6.449  0.00  0.00    +0.004 A 
ATOM      6  C   LIG    1       23.901 -25.579   6.237  0.00  0.00    +0.000 A 
ATOM      7  C   LIG    1       25.259 -25.800   6.447  0.00  0.00    +0.000 A 
ATOM      8  C   LIG    1       26.072 -24.753   6.871  0.00  0.00    +0.000 A 
ATOM      9  C   LIG    1       25.524 -23.485   7.081  0.00  0.00    +0.004 A 
ENDBRANCH   2   4
BRANCH   1  10
ATOM     10  N   LIG    1       22.671 -19.833   5.800  0.00  0.00    -0.327 NA
ATOM     11  H   LIG    1       22.561 -19.684   4.798  0.00  0.00    +0.118 HD
ATOM     12  H   LIG    1       21.783 -20.215   6.125  0.00  0.00    +0.118 HD
ENDBRANCH   1  10
TORSDOF 2
ENDMDL
