MODEL 1
REMARK VINA RESULT:      11.0      0.000      0.000
REMARK  Name = *****
REMARK                            x       y       z     vdW  Elec       q    Type
REMARK                         _______ _______ _______ _____ _____    ______ ____
ROOT
ATOM      1  C   LIG    1       25.420 -19.921   6.071  0.00  0.00    +0.252 C 
ATOM      2  O   LIG    1       24.261 -19.055   5.782  0.00  0.00    -0.334 OA
ATOM      3  C   LIG    1       24.514 -18.598   4.449  0.00  0.00    +0.164 C 
ATOM      4  C   LIG    1       26.030 -18.510   4.531  0.00  0.00    +0.161 C 
ATOM      5  C   LIG    1       26.451 -17.767   3.273  0.00  0.00    +0.039 C 
ATOM      6  C   LIG    1       25.535 -16.554   3.513  0.00  0.00    +0.004 C 
ATOM      7  C   LIG    1       25.368 -15.364   2.584  0.00  0.00    -0.000 C 
ATOM      8  C   LIG    1       24.696 -14.204   3.412  0.00  0.00    +0.035 C 
ATOM      9  C   LIG    1       23.538 -14.686   4.394  0.00  0.00    +0.120 C 
ATOM     10  C   LIG    1       23.606 -16.138   4.967  0.00  0.00    +0.042 C 
ATOM     11  C   LIG    1       25.699 -13.185   4.118  0.00  0.00    +0.013 C 
ATOM     12  C   LIG    1       26.999 -12.970   3.312  0.00  0.00    -0.056 C 
ATOM     13  C   LIG    1       27.885 -12.052   3.765  0.00  0.00    +0.051 C 
ATOM     14  C   LIG    1       28.322 -12.403   5.169  0.00  0.00    +0.179 C 
ATOM     15  C   LIG    1       27.375 -13.207   6.001  0.00  0.00    +0.047 C 
ATOM     16  O   LIG    1       29.376 -11.979   5.632  0.00  0.00    -0.288 OA
ATOM     17  C   LIG    1       27.616 -14.222   2.726  0.00  0.00    +0.032 C 
ATOM     18  C   LIG    1       24.930 -11.833   4.235  0.00  0.00    +0.020 C 
ATOM     19  C   LIG    1       26.161 -13.555   5.531  0.00  0.00    -0.012 C 
ATOM     20  C   LIG    1       26.627 -14.936   1.837  0.00  0.00    +0.008 C 
ATOM     21  C   LIG    1       24.136 -17.152   3.942  0.00  0.00    +0.012 C 
ATOM     22  C   LIG    1       23.125 -17.240   2.762  0.00  0.00    +0.015 C 
ATOM     23  O   LIG    1       26.390 -19.785   4.989  0.00  0.00    -0.345 OA
ENDROOT
BRANCH   9  24
ATOM     24  O   LIG    1       22.278 -14.553   3.722  0.00  0.00    -0.391 OA
ATOM     25  H   LIG    1       21.602 -14.343   4.390  0.00  0.00    +0.210 HD
ENDBRANCH   9  24
BRANCH   3  26
ATOM     26  C   LIG    1       24.019 -19.732   3.485  0.00  0.00    +0.193 C 
ATOM     27  O   LIG    1       24.723 -20.220   2.595  0.00  0.00    -0.292 OA
BRANCH  26  28
ATOM     28  C   LIG    1       22.547 -20.151   3.600  0.00  0.00    +0.233 C 
BRANCH  28  29
ATOM     29  O   LIG    1       21.804 -19.295   4.461  0.00  0.00    -0.387 OA
ATOM     30  H   LIG    1       21.668 -19.790   5.293  0.00  0.00    +0.210 HD
ENDBRANCH  28  29
ENDBRANCH  26  28
ENDBRANCH   3  26
BRANCH   1  31
ATOM     31  C   LIG    1       25.043 -21.390   6.248  0.00  0.00    +0.061 C 
BRANCH  31  33
ATOM     32  C   LIG    1       22.531 -21.562   6.170  0.00  0.00    +0.004 C 
ATOM     33  C   LIG    1       23.762 -21.572   7.061  0.00  0.00    +0.002 C 
ENDBRANCH  31  33
ENDBRANCH   1  31
TORSDOF 6
ENDMDL
