MODEL 1
REMARK VINA RESULT:      -6.1      0.000      0.000
REMARK  Name = *****
REMARK                            x       y       z     vdW  Elec       q    Type
REMARK                         _______ _______ _______ _____ _____    ______ ____
ROOT
ATOM      1  C   LIG    1       24.184 -21.187   6.503  0.00  0.00    +0.188 C 
ATOM      2  C   LIG    1       23.077 -20.243   6.056  0.00  0.00    +0.066 C 
ATOM      3  C   LIG    1       25.544 -20.697   6.049  0.00  0.00    +0.268 C 
ATOM      4  O   LIG    1       25.867 -20.439   4.899  0.00  0.00    -0.271 OA
ATOM      5  N   LIG    1       26.321 -20.583   7.153  0.00  0.00    -0.207 N 
ATOM      6  C   LIG    1       27.680 -20.109   7.147  0.00  0.00    +0.144 C 
ATOM      7  C   LIG    1       25.580 -20.749   8.267  0.00  0.00    +0.410 C 
ATOM      8  O   LIG    1       25.949 -20.589   9.420  0.00  0.00    -0.226 OA
ATOM      9  O   LIG    1       24.304 -21.098   7.939  0.00  0.00    -0.434 OA
ENDROOT
BRANCH   1  11
ATOM     10  C   LIG    1       22.766 -23.313   6.837  0.00  0.00    +0.008 C 
ATOM     11  C   LIG    1       23.955 -22.661   6.147  0.00  0.00    +0.054 C 
ENDBRANCH   1  11
TORSDOF 1
ENDMDL
MODEL 2
REMARK VINA RESULT:      -5.9      2.227      3.746
REMARK  Name = *****
REMARK                            x       y       z     vdW  Elec       q    Type
REMARK                         _______ _______ _______ _____ _____    ______ ____
ROOT
ATOM      1  C   LIG    1       24.371 -23.025   6.583  0.00  0.00    +0.188 C 
ATOM      2  C   LIG    1       25.644 -23.103   7.413  0.00  0.00    +0.066 C 
ATOM      3  C   LIG    1       23.581 -21.772   6.900  0.00  0.00    +0.268 C 
ATOM      4  O   LIG    1       23.194 -21.427   8.006  0.00  0.00    -0.271 OA
ATOM      5  N   LIG    1       23.403 -21.103   5.735  0.00  0.00    -0.207 N 
ATOM      6  C   LIG    1       22.727 -19.837   5.619  0.00  0.00    +0.144 C 
ATOM      7  C   LIG    1       24.138 -21.664   4.754  0.00  0.00    +0.410 C 
ATOM      8  O   LIG    1       24.296 -21.233   3.623  0.00  0.00    -0.226 OA
ATOM      9  O   LIG    1       24.740 -22.800   5.206  0.00  0.00    -0.434 OA
ENDROOT
BRANCH   1  11
ATOM     10  C   LIG    1       24.158 -25.548   6.100  0.00  0.00    +0.008 C 
ATOM     11  C   LIG    1       23.497 -24.284   6.628  0.00  0.00    +0.054 C 
ENDBRANCH   1  11
TORSDOF 1
ENDMDL
MODEL 3
REMARK VINA RESULT:      -5.7      1.702      2.522
REMARK  Name = *****
REMARK                            x       y       z     vdW  Elec       q    Type
REMARK                         _______ _______ _______ _____ _____    ______ ____
ROOT
ATOM      1  C   LIG    1       24.717 -20.777   6.008  0.00  0.00    +0.188 C 
ATOM      2  C   LIG    1       25.408 -19.999   4.897  0.00  0.00    +0.066 C 
ATOM      3  C   LIG    1       24.931 -22.268   5.852  0.00  0.00    +0.268 C 
ATOM      4  O   LIG    1       24.663 -22.933   4.863  0.00  0.00    -0.271 OA
ATOM      5  N   LIG    1       25.486 -22.718   7.003  0.00  0.00    -0.207 N 
ATOM      6  C   LIG    1       25.876 -24.084   7.240  0.00  0.00    +0.144 C 
ATOM      7  C   LIG    1       25.831 -21.683   7.794  0.00  0.00    +0.410 C 
ATOM      8  O   LIG    1       26.460 -21.740   8.839  0.00  0.00    -0.226 OA
ATOM      9  O   LIG    1       25.408 -20.508   7.247  0.00  0.00    -0.434 OA
ENDROOT
BRANCH   1  11
ATOM     10  C   LIG    1       22.614 -19.586   5.112  0.00  0.00    +0.008 C 
ATOM     11  C   LIG    1       23.239 -20.425   6.216  0.00  0.00    +0.054 C 
ENDBRANCH   1  11
TORSDOF 1
ENDMDL
MODEL 4
REMARK VINA RESULT:      -5.6      1.148      1.184
REMARK  Name = *****
REMARK                            x       y       z     vdW  Elec       q    Type
REMARK                         _______ _______ _______ _____ _____    ______ ____
ROOT
ATOM      1  C   LIG    1       24.747 -21.672   7.148  0.00  0.00    +0.188 C 
ATOM      2  C   LIG    1       23.357 -21.059   7.237  0.00  0.00    +0.066 C 
ATOM      3  C   LIG    1       25.539 -21.078   6.001  0.00  0.00    +0.268 C 
ATOM      4  O   LIG    1       25.192 -21.044   4.831  0.00  0.00    -0.271 OA
ATOM      5  N   LIG    1       26.688 -20.581   6.520  0.00  0.00    -0.207 N 
ATOM      6  C   LIG    1       27.698 -19.898   5.754  0.00  0.00    +0.144 C 
ATOM      7  C   LIG    1       26.644 -20.606   7.867  0.00  0.00    +0.410 C 
ATOM      8  O   LIG    1       27.462 -20.122   8.633  0.00  0.00    -0.226 OA
ATOM      9  O   LIG    1       25.511 -21.233   8.292  0.00  0.00    -0.434 OA
ENDROOT
BRANCH   1  11
ATOM     10  C   LIG    1       23.472 -23.870   6.712  0.00  0.00    +0.008 C 
ATOM     11  C   LIG    1       24.774 -23.205   7.134  0.00  0.00    +0.054 C 
ENDBRANCH   1  11
TORSDOF 1
ENDMDL
MODEL 5
REMARK VINA RESULT:      -5.6      1.086      2.745
REMARK  Name = *****
REMARK                            x       y       z     vdW  Elec       q    Type
REMARK                         _______ _______ _______ _____ _____    ______ ____
ROOT
ATOM      1  C   LIG    1       24.657 -21.540   6.966  0.00  0.00    +0.188 C 
ATOM      2  C   LIG    1       24.427 -23.041   6.858  0.00  0.00    +0.066 C 
ATOM      3  C   LIG    1       25.680 -21.215   8.035  0.00  0.00    +0.268 C 
ATOM      4  O   LIG    1       25.630 -21.557   9.206  0.00  0.00    -0.271 OA
ATOM      5  N   LIG    1       26.664 -20.493   7.445  0.00  0.00    -0.207 N 
ATOM      6  C   LIG    1       27.844 -20.019   8.121  0.00  0.00    +0.144 C 
ATOM      7  C   LIG    1       26.499 -20.481   6.107  0.00  0.00    +0.410 C 
ATOM      8  O   LIG    1       27.273 -20.025   5.280  0.00  0.00    -0.226 OA
ATOM      9  O   LIG    1       25.331 -21.097   5.769  0.00  0.00    -0.434 OA
ENDROOT
BRANCH   1  11
ATOM     10  C   LIG    1       22.823 -20.141   5.818  0.00  0.00    +0.008 C 
ATOM     11  C   LIG    1       23.381 -20.704   7.117  0.00  0.00    +0.054 C 
ENDBRANCH   1  11
TORSDOF 1
ENDMDL
MODEL 6
REMARK VINA RESULT:      -5.6      5.323      7.362
REMARK  Name = *****
REMARK                            x       y       z     vdW  Elec       q    Type
REMARK                         _______ _______ _______ _____ _____    ______ ____
ROOT
ATOM      1  C   LIG    1       31.156 -18.208   9.292  0.00  0.00    +0.188 C 
ATOM      2  C   LIG    1       32.126 -17.214   8.669  0.00  0.00    +0.066 C 
ATOM      3  C   LIG    1       30.238 -18.810   8.248  0.00  0.00    +0.268 C 
ATOM      4  O   LIG    1       29.519 -18.189   7.480  0.00  0.00    -0.271 OA
ATOM      5  N   LIG    1       30.377 -20.156   8.317  0.00  0.00    -0.207 N 
ATOM      6  C   LIG    1       29.696 -21.090   7.459  0.00  0.00    +0.144 C 
ATOM      7  C   LIG    1       31.403 -20.481   9.130  0.00  0.00    +0.410 C 
ATOM      8  O   LIG    1       31.866 -21.596   9.311  0.00  0.00    -0.226 OA
ATOM      9  O   LIG    1       31.907 -19.362   9.725  0.00  0.00    -0.434 OA
ENDROOT
BRANCH   1  11
ATOM     10  C   LIG    1       31.103 -16.610  11.314  0.00  0.00    +0.008 C 
ATOM     11  C   LIG    1       30.382 -17.677  10.504  0.00  0.00    +0.054 C 
ENDBRANCH   1  11
TORSDOF 1
ENDMDL
MODEL 7
REMARK VINA RESULT:      -5.5      5.045      6.125
REMARK  Name = *****
REMARK                            x       y       z     vdW  Elec       q    Type
REMARK                         _______ _______ _______ _____ _____    ______ ____
ROOT
ATOM      1  C   LIG    1       29.776 -19.789   7.770  0.00  0.00    +0.188 C 
ATOM      2  C   LIG    1       28.959 -19.559   6.508  0.00  0.00    +0.066 C 
ATOM      3  C   LIG    1       31.108 -19.070   7.704  0.00  0.00    +0.268 C 
ATOM      4  O   LIG    1       31.946 -19.190   6.825  0.00  0.00    -0.271 OA
ATOM      5  N   LIG    1       31.183 -18.262   8.789  0.00  0.00    -0.207 N 
ATOM      6  C   LIG    1       32.286 -17.380   9.072  0.00  0.00    +0.144 C 
ATOM      7  C   LIG    1       29.999 -18.226   9.432  0.00  0.00    +0.410 C 
ATOM      8  O   LIG    1       29.698 -17.504  10.369  0.00  0.00    -0.226 OA
ATOM      9  O   LIG    1       29.126 -19.105   8.863  0.00  0.00    -0.434 OA
ENDROOT
BRANCH   1  11
ATOM     10  C   LIG    1       31.161 -21.567   9.021  0.00  0.00    +0.008 C 
ATOM     11  C   LIG    1       29.935 -21.260   8.174  0.00  0.00    +0.054 C 
ENDBRANCH   1  11
TORSDOF 1
ENDMDL
MODEL 8
REMARK VINA RESULT:      -5.5      6.229      8.055
REMARK  Name = *****
REMARK                            x       y       z     vdW  Elec       q    Type
REMARK                         _______ _______ _______ _____ _____    ______ ____
ROOT
ATOM      1  C   LIG    1       31.172 -18.280   8.821  0.00  0.00    +0.188 C 
ATOM      2  C   LIG    1       31.860 -19.623   8.626  0.00  0.00    +0.066 C 
ATOM      3  C   LIG    1       31.011 -17.951  10.291  0.00  0.00    +0.268 C 
ATOM      4  O   LIG    1       30.462 -18.651  11.128  0.00  0.00    -0.271 OA
ATOM      5  N   LIG    1       31.603 -16.751  10.503  0.00  0.00    -0.207 N 
ATOM      6  C   LIG    1       31.697 -16.104  11.786  0.00  0.00    +0.144 C 
ATOM      7  C   LIG    1       32.286 -16.364   9.406  0.00  0.00    +0.410 C 
ATOM      8  O   LIG    1       33.024 -15.396   9.309  0.00  0.00    -0.226 OA
ATOM      9  O   LIG    1       32.072 -17.240   8.384  0.00  0.00    -0.434 OA
ENDROOT
BRANCH   1  11
ATOM     10  C   LIG    1       29.595 -19.171   6.987  0.00  0.00    +0.008 C 
ATOM     11  C   LIG    1       29.859 -18.112   8.047  0.00  0.00    +0.054 C 
ENDBRANCH   1  11
TORSDOF 1
ENDMDL
MODEL 9
REMARK VINA RESULT:      -5.4      2.248      3.319
REMARK  Name = *****
REMARK                            x       y       z     vdW  Elec       q    Type
REMARK                         _______ _______ _______ _____ _____    ______ ____
ROOT
ATOM      1  C   LIG    1       23.913 -21.506   6.372  0.00  0.00    +0.188 C 
ATOM      2  C   LIG    1       23.724 -20.551   7.542  0.00  0.00    +0.066 C 
ATOM      3  C   LIG    1       25.235 -22.239   6.466  0.00  0.00    +0.268 C 
ATOM      4  O   LIG    1       26.338 -21.722   6.562  0.00  0.00    -0.271 OA
ATOM      5  N   LIG    1       24.963 -23.566   6.441  0.00  0.00    -0.207 N 
ATOM      6  C   LIG    1       25.957 -24.603   6.545  0.00  0.00    +0.144 C 
ATOM      7  C   LIG    1       23.635 -23.775   6.539  0.00  0.00    +0.410 C 
ATOM      8  O   LIG    1       23.073 -24.851   6.667  0.00  0.00    -0.226 OA
ATOM      9  O   LIG    1       22.966 -22.587   6.512  0.00  0.00    -0.434 OA
ENDROOT
BRANCH   1  11
ATOM     10  C   LIG    1       22.564 -19.867   4.909  0.00  0.00    +0.008 C 
ATOM     11  C   LIG    1       23.698 -20.879   4.989  0.00  0.00    +0.054 C 
ENDBRANCH   1  11
TORSDOF 1
ENDMDL
