MODEL 1
REMARK VINA RESULT:      -7.1      0.000      0.000
REMARK  Name = *****
REMARK                            x       y       z     vdW  Elec       q    Type
REMARK                         _______ _______ _______ _____ _____    ______ ____
ROOT
ATOM      1  C   LIG    1       22.879 -21.368   5.233  0.00  0.00    +0.135 C 
ATOM      2  C   LIG    1       24.425 -21.644   5.155  0.00  0.00    +0.032 C 
ATOM      3  C   LIG    1       24.871 -21.690   6.667  0.00  0.00    +0.010 C 
ATOM      4  C   LIG    1       25.581 -20.390   7.120  0.00  0.00    +0.024 C 
ATOM      5  C   LIG    1       26.701 -20.046   6.148  0.00  0.00    -0.041 C 
ATOM      6  C   LIG    1       26.206 -19.856   4.799  0.00  0.00    +0.001 C 
ATOM      7  C   LIG    1       27.997 -19.892   6.505  0.00  0.00    -0.040 C 
ATOM      8  C   LIG    1       28.438 -20.234   7.861  0.00  0.00    -0.041 C 
ATOM      9  C   LIG    1       29.679 -19.989   8.309  0.00  0.00    +0.050 C 
ATOM     10  C   LIG    1       30.730 -19.504   7.390  0.00  0.00    +0.157 C 
ATOM     11  C   LIG    1       30.486 -19.685   5.918  0.00  0.00    +0.083 C 
ATOM     12  O   LIG    1       31.799 -19.104   7.843  0.00  0.00    -0.293 OA
ATOM     13  C   LIG    1       27.448 -20.948   8.748  0.00  0.00    +0.036 C 
ATOM     14  C   LIG    1       29.050 -19.335   5.563  0.00  0.00    +0.043 C 
ATOM     15  C   LIG    1       26.046 -20.388   8.588  0.00  0.00    +0.013 C 
ATOM     16  C   LIG    1       23.583 -21.950   7.482  0.00  0.00    +0.009 C 
ATOM     17  C   LIG    1       25.164 -20.567   4.345  0.00  0.00    -0.016 C 
ATOM     18  C   LIG    1       22.438 -22.121   6.490  0.00  0.00    +0.049 C 
ENDROOT
BRANCH   1  20
ATOM     19  C   LIG    1       22.297 -18.810   5.469  0.00  0.00    +0.007 C 
ATOM     20  C   LIG    1       22.560 -19.966   5.363  0.00  0.00    -0.070 C 
ENDBRANCH   1  20
BRANCH   2  21
ATOM     21  C   LIG    1       24.808 -22.975   4.422  0.00  0.00    +0.011 C 
ATOM     22  C   LIG    1       25.090 -24.216   5.258  0.00  0.00    +0.005 C 
ENDBRANCH   2  21
BRANCH   1  23
ATOM     23  O   LIG    1       22.196 -21.886   4.097  0.00  0.00    -0.376 OA
ATOM     24  H   LIG    1       22.197 -21.185   3.423  0.00  0.00    +0.211 HD
ENDBRANCH   1  23
TORSDOF 3
ENDMDL
MODEL 2
REMARK VINA RESULT:      -6.2      6.944     10.137
REMARK  Name = *****
REMARK                            x       y       z     vdW  Elec       q    Type
REMARK                         _______ _______ _______ _____ _____    ______ ____
ROOT
ATOM      1  C   LIG    1       25.098 -32.185   9.806  0.00  0.00    +0.135 C 
ATOM      2  C   LIG    1       24.662 -30.686   9.619  0.00  0.00    +0.032 C 
ATOM      3  C   LIG    1       24.037 -30.658   8.172  0.00  0.00    +0.010 C 
ATOM      4  C   LIG    1       24.993 -30.041   7.121  0.00  0.00    +0.024 C 
ATOM      5  C   LIG    1       25.498 -28.691   7.610  0.00  0.00    -0.041 C 
ATOM      6  C   LIG    1       26.207 -28.803   8.870  0.00  0.00    +0.001 C 
ATOM      7  C   LIG    1       25.344 -27.530   6.932  0.00  0.00    -0.040 C 
ATOM      8  C   LIG    1       24.500 -27.478   5.734  0.00  0.00    -0.041 C 
ATOM      9  C   LIG    1       24.406 -26.390   4.953  0.00  0.00    +0.050 C 
ATOM     10  C   LIG    1       25.034 -25.116   5.359  0.00  0.00    +0.157 C 
ATOM     11  C   LIG    1       25.406 -24.968   6.807  0.00  0.00    +0.083 C 
ATOM     12  O   LIG    1       25.105 -24.189   4.556  0.00  0.00    -0.293 OA
ATOM     13  C   LIG    1       23.663 -28.696   5.427  0.00  0.00    +0.036 C 
ATOM     14  C   LIG    1       26.046 -26.244   7.331  0.00  0.00    +0.043 C 
ATOM     15  C   LIG    1       24.427 -29.981   5.691  0.00  0.00    +0.013 C 
ATOM     16  C   LIG    1       23.687 -32.125   7.832  0.00  0.00    +0.009 C 
ATOM     17  C   LIG    1       25.842 -29.716   9.781  0.00  0.00    -0.016 C 
ATOM     18  C   LIG    1       24.024 -32.973   9.053  0.00  0.00    +0.049 C 
ENDROOT
BRANCH   1  20
ATOM     19  C   LIG    1       27.470 -32.704   8.785  0.00  0.00    +0.007 C 
ATOM     20  C   LIG    1       26.398 -32.470   9.247  0.00  0.00    -0.070 C 
ENDBRANCH   1  20
BRANCH   2  21
ATOM     21  C   LIG    1       23.627 -30.177  10.681  0.00  0.00    +0.011 C 
ATOM     22  C   LIG    1       24.128 -29.333  11.845  0.00  0.00    +0.005 C 
ENDBRANCH   2  21
BRANCH   1  23
ATOM     23  O   LIG    1       25.101 -32.564  11.177  0.00  0.00    -0.376 OA
ATOM     24  H   LIG    1       24.416 -32.033  11.619  0.00  0.00    +0.211 HD
ENDBRANCH   1  23
TORSDOF 3
ENDMDL
MODEL 3
REMARK VINA RESULT:      -6.1      8.731     11.080
REMARK  Name = *****
REMARK                            x       y       z     vdW  Elec       q    Type
REMARK                         _______ _______ _______ _____ _____    ______ ____
ROOT
ATOM      1  C   LIG    1       25.132 -31.915   8.450  0.00  0.00    +0.135 C 
ATOM      2  C   LIG    1       24.626 -30.497   8.903  0.00  0.00    +0.032 C 
ATOM      3  C   LIG    1       25.775 -29.976   9.848  0.00  0.00    +0.010 C 
ATOM      4  C   LIG    1       25.411 -30.090  11.350  0.00  0.00    +0.024 C 
ATOM      5  C   LIG    1       24.055 -29.447  11.603  0.00  0.00    -0.041 C 
ATOM      6  C   LIG    1       23.005 -30.075  10.824  0.00  0.00    +0.001 C 
ATOM      7  C   LIG    1       23.842 -28.440  12.481  0.00  0.00    -0.040 C 
ATOM      8  C   LIG    1       24.974 -27.770  13.129  0.00  0.00    -0.041 C 
ATOM      9  C   LIG    1       24.823 -26.851  14.095  0.00  0.00    +0.050 C 
ATOM     10  C   LIG    1       23.482 -26.342  14.448  0.00  0.00    +0.157 C 
ATOM     11  C   LIG    1       22.382 -26.564  13.447  0.00  0.00    +0.083 C 
ATOM     12  O   LIG    1       23.337 -25.651  15.453  0.00  0.00    -0.293 OA
ATOM     13  C   LIG    1       26.355 -28.104  12.620  0.00  0.00    +0.036 C 
ATOM     14  C   LIG    1       22.452 -27.970  12.875  0.00  0.00    +0.043 C 
ATOM     15  C   LIG    1       26.497 -29.585  12.317  0.00  0.00    +0.013 C 
ATOM     16  C   LIG    1       27.025 -30.818   9.500  0.00  0.00    +0.009 C 
ATOM     17  C   LIG    1       23.260 -30.567   9.603  0.00  0.00    -0.016 C 
ATOM     18  C   LIG    1       26.650 -31.745   8.351  0.00  0.00    +0.049 C 
ENDROOT
BRANCH   1  20
ATOM     19  C   LIG    1       24.556 -33.817  10.178  0.00  0.00    +0.007 C 
ATOM     20  C   LIG    1       24.816 -32.957   9.397  0.00  0.00    -0.070 C 
ENDBRANCH   1  20
BRANCH   2  21
ATOM     21  C   LIG    1       24.378 -29.493   7.726  0.00  0.00    +0.011 C 
ATOM     22  C   LIG    1       25.335 -28.322   7.548  0.00  0.00    +0.005 C 
ENDBRANCH   2  21
BRANCH   1  23
ATOM     23  O   LIG    1       24.604 -32.280   7.180  0.00  0.00    -0.376 OA
ATOM     24  H   LIG    1       25.271 -32.033   6.515  0.00  0.00    +0.211 HD
ENDBRANCH   1  23
TORSDOF 3
ENDMDL
MODEL 4
REMARK VINA RESULT:      -5.9      1.439      3.484
REMARK  Name = *****
REMARK                            x       y       z     vdW  Elec       q    Type
REMARK                         _______ _______ _______ _____ _____    ______ ____
ROOT
ATOM      1  C   LIG    1       24.299 -22.662   6.359  0.00  0.00    +0.135 C 
ATOM      2  C   LIG    1       24.892 -21.388   7.065  0.00  0.00    +0.032 C 
ATOM      3  C   LIG    1       25.782 -20.723   5.946  0.00  0.00    +0.010 C 
ATOM      4  C   LIG    1       27.295 -20.988   6.152  0.00  0.00    +0.024 C 
ATOM      5  C   LIG    1       27.696 -20.617   7.572  0.00  0.00    -0.041 C 
ATOM      6  C   LIG    1       26.956 -21.379   8.560  0.00  0.00    +0.001 C 
ATOM      7  C   LIG    1       28.659 -19.718   7.881  0.00  0.00    -0.040 C 
ATOM      8  C   LIG    1       29.265 -18.893   6.831  0.00  0.00    -0.041 C 
ATOM      9  C   LIG    1       30.305 -18.074   7.056  0.00  0.00    +0.050 C 
ATOM     10  C   LIG    1       30.795 -17.837   8.429  0.00  0.00    +0.157 C 
ATOM     11  C   LIG    1       29.867 -18.196   9.556  0.00  0.00    +0.083 C 
ATOM     12  O   LIG    1       31.856 -17.243   8.605  0.00  0.00    -0.293 OA
ATOM     13  C   LIG    1       28.630 -18.941   5.463  0.00  0.00    +0.036 C 
ATOM     14  C   LIG    1       29.190 -19.531   9.291  0.00  0.00    +0.043 C 
ATOM     15  C   LIG    1       28.210 -20.352   5.090  0.00  0.00    +0.013 C 
ATOM     16  C   LIG    1       25.280 -21.303   4.604  0.00  0.00    +0.009 C 
ATOM     17  C   LIG    1       25.687 -21.745   8.330  0.00  0.00    -0.016 C 
ATOM     18  C   LIG    1       24.098 -22.216   4.910  0.00  0.00    +0.049 C 
ENDROOT
BRANCH   1  20
ATOM     19  C   LIG    1       25.923 -24.735   6.440  0.00  0.00    +0.007 C 
ATOM     20  C   LIG    1       25.190 -23.798   6.403  0.00  0.00    -0.070 C 
ENDBRANCH   1  20
BRANCH   2  21
ATOM     21  C   LIG    1       23.812 -20.379   7.588  0.00  0.00    +0.011 C 
ATOM     22  C   LIG    1       22.884 -19.714   6.581  0.00  0.00    +0.005 C 
ENDBRANCH   2  21
BRANCH   1  23
ATOM     23  O   LIG    1       23.050 -23.043   6.924  0.00  0.00    -0.376 OA
ATOM     24  H   LIG    1       22.745 -22.294   7.465  0.00  0.00    +0.211 HD
ENDBRANCH   1  23
TORSDOF 3
ENDMDL
MODEL 5
REMARK VINA RESULT:      -5.9      8.258     11.053
REMARK  Name = *****
REMARK                            x       y       z     vdW  Elec       q    Type
REMARK                         _______ _______ _______ _____ _____    ______ ____
ROOT
ATOM      1  C   LIG    1       26.090 -28.766  14.486  0.00  0.00    +0.135 C 
ATOM      2  C   LIG    1       25.528 -28.118  13.168  0.00  0.00    +0.032 C 
ATOM      3  C   LIG    1       24.713 -29.289  12.496  0.00  0.00    +0.010 C 
ATOM      4  C   LIG    1       25.474 -29.945  11.316  0.00  0.00    +0.024 C 
ATOM      5  C   LIG    1       25.944 -28.873  10.344  0.00  0.00    -0.041 C 
ATOM      6  C   LIG    1       26.822 -27.912  10.981  0.00  0.00    +0.001 C 
ATOM      7  C   LIG    1       25.619 -28.842   9.031  0.00  0.00    -0.040 C 
ATOM      8  C   LIG    1       24.619 -29.770   8.492  0.00  0.00    -0.041 C 
ATOM      9  C   LIG    1       24.345 -29.868   7.182  0.00  0.00    +0.050 C 
ATOM     10  C   LIG    1       24.930 -28.916   6.216  0.00  0.00    +0.157 C 
ATOM     11  C   LIG    1       25.483 -27.634   6.771  0.00  0.00    +0.083 C 
ATOM     12  O   LIG    1       24.827 -29.130   5.010  0.00  0.00    -0.293 OA
ATOM     13  C   LIG    1       23.836 -30.591   9.487  0.00  0.00    +0.036 C 
ATOM     14  C   LIG    1       26.276 -27.895   8.041  0.00  0.00    +0.043 C 
ATOM     15  C   LIG    1       24.716 -31.090  10.619  0.00  0.00    +0.013 C 
ATOM     16  C   LIG    1       24.425 -30.306  13.624  0.00  0.00    +0.009 C 
ATOM     17  C   LIG    1       26.649 -27.575  12.268  0.00  0.00    -0.016 C 
ATOM     18  C   LIG    1       24.982 -29.728  14.919  0.00  0.00    +0.049 C 
ENDROOT
BRANCH   1  20
ATOM     19  C   LIG    1       28.333 -30.094  14.109  0.00  0.00    +0.007 C 
ATOM     20  C   LIG    1       27.320 -29.494  14.279  0.00  0.00    -0.070 C 
ENDBRANCH   1  20
BRANCH   2  21
ATOM     21  C   LIG    1       24.613 -26.868  13.401  0.00  0.00    +0.011 C 
ATOM     22  C   LIG    1       23.107 -27.023  13.244  0.00  0.00    +0.005 C 
ENDBRANCH   2  21
BRANCH   1  23
ATOM     23  O   LIG    1       26.304 -27.791  15.500  0.00  0.00    -0.376 OA
ATOM     24  H   LIG    1       26.043 -26.932  15.126  0.00  0.00    +0.211 HD
ENDBRANCH   1  23
TORSDOF 3
ENDMDL
MODEL 6
REMARK VINA RESULT:      -5.7      9.159     10.867
REMARK  Name = *****
REMARK                            x       y       z     vdW  Elec       q    Type
REMARK                         _______ _______ _______ _____ _____    ______ ____
ROOT
ATOM      1  C   LIG    1       20.432 -29.313  13.486  0.00  0.00    +0.135 C 
ATOM      2  C   LIG    1       21.106 -27.895  13.405  0.00  0.00    +0.032 C 
ATOM      3  C   LIG    1       22.444 -28.164  12.615  0.00  0.00    +0.010 C 
ATOM      4  C   LIG    1       23.686 -28.206  13.540  0.00  0.00    +0.024 C 
ATOM      5  C   LIG    1       23.718 -26.964  14.418  0.00  0.00    -0.041 C 
ATOM      6  C   LIG    1       22.531 -26.853  15.244  0.00  0.00    +0.001 C 
ATOM      7  C   LIG    1       24.749 -26.088  14.460  0.00  0.00    -0.040 C 
ATOM      8  C   LIG    1       25.851 -26.194  13.499  0.00  0.00    -0.041 C 
ATOM      9  C   LIG    1       26.955 -25.434  13.567  0.00  0.00    +0.050 C 
ATOM     10  C   LIG    1       27.046 -24.321  14.533  0.00  0.00    +0.157 C 
ATOM     11  C   LIG    1       25.756 -23.823  15.123  0.00  0.00    +0.083 C 
ATOM     12  O   LIG    1       28.122 -23.759  14.718  0.00  0.00    -0.293 OA
ATOM     13  C   LIG    1       25.679 -27.167  12.358  0.00  0.00    +0.036 C 
ATOM     14  C   LIG    1       24.852 -24.986  15.500  0.00  0.00    +0.043 C 
ATOM     15  C   LIG    1       25.021 -28.457  12.816  0.00  0.00    +0.013 C 
ATOM     16  C   LIG    1       22.238 -29.507  11.877  0.00  0.00    +0.009 C 
ATOM     17  C   LIG    1       21.344 -27.287  14.796  0.00  0.00    -0.016 C 
ATOM     18  C   LIG    1       20.816 -29.975  12.161  0.00  0.00    +0.049 C 
ENDROOT
BRANCH   1  20
ATOM     19  C   LIG    1       21.315 -30.762  15.500  0.00  0.00    +0.007 C 
ATOM     20  C   LIG    1       20.915 -30.107  14.590  0.00  0.00    -0.070 C 
ENDBRANCH   1  20
BRANCH   2  21
ATOM     21  C   LIG    1       20.242 -26.808  12.678  0.00  0.00    +0.011 C 
ATOM     22  C   LIG    1       19.182 -26.062  13.476  0.00  0.00    +0.005 C 
ENDBRANCH   2  21
BRANCH   1  23
ATOM     23  O   LIG    1       19.015 -29.215  13.583  0.00  0.00    -0.376 OA
ATOM     24  H   LIG    1       18.807 -29.054  14.519  0.00  0.00    +0.211 HD
ENDBRANCH   1  23
TORSDOF 3
ENDMDL
MODEL 7
REMARK VINA RESULT:      -5.6      8.195     11.156
REMARK  Name = *****
REMARK                            x       y       z     vdW  Elec       q    Type
REMARK                         _______ _______ _______ _____ _____    ______ ____
ROOT
ATOM      1  C   LIG    1       23.150 -32.331  11.588  0.00  0.00    +0.135 C 
ATOM      2  C   LIG    1       23.147 -30.943  10.848  0.00  0.00    +0.032 C 
ATOM      3  C   LIG    1       22.936 -31.330   9.334  0.00  0.00    +0.010 C 
ATOM      4  C   LIG    1       24.247 -31.259   8.511  0.00  0.00    +0.024 C 
ATOM      5  C   LIG    1       24.918 -29.910   8.724  0.00  0.00    -0.041 C 
ATOM      6  C   LIG    1       25.236 -29.677  10.119  0.00  0.00    +0.001 C 
ATOM      7  C   LIG    1       25.224 -29.047   7.728  0.00  0.00    -0.040 C 
ATOM      8  C   LIG    1       24.750 -29.293   6.362  0.00  0.00    -0.041 C 
ATOM      9  C   LIG    1       25.121 -28.542   5.313  0.00  0.00    +0.050 C 
ATOM     10  C   LIG    1       25.910 -27.309   5.511  0.00  0.00    +0.157 C 
ATOM     11  C   LIG    1       25.926 -26.723   6.895  0.00  0.00    +0.083 C 
ATOM     12  O   LIG    1       26.403 -26.738   4.541  0.00  0.00    -0.293 OA
ATOM     13  C   LIG    1       23.753 -30.409   6.170  0.00  0.00    +0.036 C 
ATOM     14  C   LIG    1       26.088 -27.816   7.940  0.00  0.00    +0.043 C 
ATOM     15  C   LIG    1       24.094 -31.618   7.022  0.00  0.00    +0.013 C 
ATOM     16  C   LIG    1       22.344 -32.759   9.339  0.00  0.00    +0.009 C 
ATOM     17  C   LIG    1       24.444 -30.156  11.090  0.00  0.00    -0.016 C 
ATOM     18  C   LIG    1       22.147 -33.169  10.794  0.00  0.00    +0.049 C 
ENDROOT
BRANCH   1  20
ATOM     19  C   LIG    1       25.509 -33.504  11.574  0.00  0.00    +0.007 C 
ATOM     20  C   LIG    1       24.443 -32.973  11.580  0.00  0.00    -0.070 C 
ENDBRANCH   1  20
BRANCH   2  21
ATOM     21  C   LIG    1       22.029 -29.956  11.329  0.00  0.00    +0.011 C 
ATOM     22  C   LIG    1       22.397 -28.862  12.322  0.00  0.00    +0.005 C 
ENDBRANCH   2  21
BRANCH   1  23
ATOM     23  O   LIG    1       22.713 -32.207  12.937  0.00  0.00    -0.376 OA
ATOM     24  H   LIG    1       22.210 -31.377  12.996  0.00  0.00    +0.211 HD
ENDBRANCH   1  23
TORSDOF 3
ENDMDL
MODEL 8
REMARK VINA RESULT:      -5.6      9.186     10.738
REMARK  Name = *****
REMARK                            x       y       z     vdW  Elec       q    Type
REMARK                         _______ _______ _______ _____ _____    ______ ____
ROOT
ATOM      1  C   LIG    1       24.802 -31.315  11.622  0.00  0.00    +0.135 C 
ATOM      2  C   LIG    1       25.499 -30.375  12.672  0.00  0.00    +0.032 C 
ATOM      3  C   LIG    1       24.307 -29.532  13.267  0.00  0.00    +0.010 C 
ATOM      4  C   LIG    1       24.245 -28.095  12.691  0.00  0.00    +0.024 C 
ATOM      5  C   LIG    1       25.607 -27.428  12.820  0.00  0.00    -0.041 C 
ATOM      6  C   LIG    1       26.639 -28.164  12.115  0.00  0.00    +0.001 C 
ATOM      7  C   LIG    1       25.825 -26.264  13.475  0.00  0.00    -0.040 C 
ATOM      8  C   LIG    1       24.758 -25.653  14.274  0.00  0.00    -0.041 C 
ATOM      9  C   LIG    1       24.875 -24.444  14.845  0.00  0.00    +0.050 C 
ATOM     10  C   LIG    1       26.166 -23.726  14.831  0.00  0.00    +0.157 C 
ATOM     11  C   LIG    1       27.396 -24.538  14.540  0.00  0.00    +0.083 C 
ATOM     12  O   LIG    1       26.214 -22.550  15.184  0.00  0.00    -0.293 OA
ATOM     13  C   LIG    1       23.511 -26.471  14.499  0.00  0.00    +0.036 C 
ATOM     14  C   LIG    1       27.141 -25.511  13.400  0.00  0.00    +0.043 C 
ATOM     15  C   LIG    1       23.102 -27.227  13.247  0.00  0.00    +0.013 C 
ATOM     16  C   LIG    1       23.022 -30.330  12.945  0.00  0.00    +0.009 C 
ATOM     17  C   LIG    1       26.589 -29.501  12.031  0.00  0.00    -0.016 C 
ATOM     18  C   LIG    1       23.443 -31.622  12.254  0.00  0.00    +0.049 C 
ENDROOT
BRANCH   1  20
ATOM     19  C   LIG    1       24.458 -30.167   9.276  0.00  0.00    +0.007 C 
ATOM     20  C   LIG    1       24.614 -30.686  10.336  0.00  0.00    -0.070 C 
ENDBRANCH   1  20
BRANCH   2  21
ATOM     21  C   LIG    1       26.265 -31.133  13.809  0.00  0.00    +0.011 C 
ATOM     22  C   LIG    1       26.314 -30.512  15.199  0.00  0.00    +0.005 C 
ENDBRANCH   2  21
BRANCH   1  23
ATOM     23  O   LIG    1       25.529 -32.523  11.434  0.00  0.00    -0.376 OA
ATOM     24  H   LIG    1       25.320 -32.843  10.539  0.00  0.00    +0.211 HD
ENDBRANCH   1  23
TORSDOF 3
ENDMDL
MODEL 9
REMARK VINA RESULT:      -5.6      9.161     11.957
REMARK  Name = *****
REMARK                            x       y       z     vdW  Elec       q    Type
REMARK                         _______ _______ _______ _____ _____    ______ ____
ROOT
ATOM      1  C   LIG    1       26.931 -30.013  10.873  0.00  0.00    +0.135 C 
ATOM      2  C   LIG    1       26.145 -29.703  12.199  0.00  0.00    +0.032 C 
ATOM      3  C   LIG    1       24.721 -30.329  11.943  0.00  0.00    +0.010 C 
ATOM      4  C   LIG    1       23.654 -29.262  11.592  0.00  0.00    +0.024 C 
ATOM      5  C   LIG    1       23.670 -28.152  12.633  0.00  0.00    -0.041 C 
ATOM      6  C   LIG    1       24.965 -27.503  12.712  0.00  0.00    +0.001 C 
ATOM      7  C   LIG    1       22.596 -27.783  13.369  0.00  0.00    -0.040 C 
ATOM      8  C   LIG    1       21.363 -28.575  13.329  0.00  0.00    -0.041 C 
ATOM      9  C   LIG    1       20.230 -28.194  13.939  0.00  0.00    +0.050 C 
ATOM     10  C   LIG    1       20.214 -27.017  14.831  0.00  0.00    +0.157 C 
ATOM     11  C   LIG    1       21.541 -26.531  15.344  0.00  0.00    +0.083 C 
ATOM     12  O   LIG    1       19.142 -26.567  15.229  0.00  0.00    -0.293 OA
ATOM     13  C   LIG    1       21.421 -29.904  12.616  0.00  0.00    +0.036 C 
ATOM     14  C   LIG    1       22.580 -26.535  14.235  0.00  0.00    +0.043 C 
ATOM     15  C   LIG    1       22.242 -29.821  11.341  0.00  0.00    +0.013 C 
ATOM     16  C   LIG    1       24.906 -31.348  10.795  0.00  0.00    +0.009 C 
ATOM     17  C   LIG    1       26.092 -28.198  12.501  0.00  0.00    -0.016 C 
ATOM     18  C   LIG    1       26.387 -31.376  10.438  0.00  0.00    +0.049 C 
ENDROOT
BRANCH   1  20
ATOM     19  C   LIG    1       26.504 -28.231   8.980  0.00  0.00    +0.007 C 
ATOM     20  C   LIG    1       26.696 -29.037   9.836  0.00  0.00    -0.070 C 
ENDBRANCH   1  20
BRANCH   2  21
ATOM     21  C   LIG    1       26.793 -30.309  13.491  0.00  0.00    +0.011 C 
ATOM     22  C   LIG    1       25.885 -30.719  14.642  0.00  0.00    +0.005 C 
ENDBRANCH   2  21
BRANCH   1  23
ATOM     23  O   LIG    1       28.332 -30.105  11.102  0.00  0.00    -0.376 OA
ATOM     24  H   LIG    1       28.454 -30.653  11.896  0.00  0.00    +0.211 HD
ENDBRANCH   1  23
TORSDOF 3
ENDMDL
