MODEL 1
REMARK VINA RESULT:      -2.5      0.000      0.000
REMARK  Name = *****
REMARK                            x       y       z     vdW  Elec       q    Type
REMARK                         _______ _______ _______ _____ _____    ______ ____
ROOT
ATOM      1  O   LIG    1       24.795 -29.444  10.852  0.00  0.00    -0.343 OA
ENDROOT
BRANCH   1   3
ATOM      2  C   LIG    1       24.803 -30.779  13.193  0.00  0.00    +0.188 C 
ATOM      3  C   LIG    1       24.255 -30.542  11.697  0.00  0.00    +0.157 C 
ATOM      4  C   LIG    1       22.639 -30.567  11.596  0.00  0.00    +0.028 C 
ATOM      5  C   LIG    1       22.101 -29.282  12.240  0.00  0.00    +0.012 C 
ATOM      6  C   LIG    1       20.808 -28.454  12.329  0.00  0.00    +0.019 C 
ATOM      7  C   LIG    1       19.829 -28.969  13.326  0.00  0.00    +0.010 C 
ATOM      8  C   LIG    1       21.097 -26.834  12.554  0.00  0.00    +0.140 C 
ATOM      9  C   LIG    1       22.068 -26.397  13.654  0.00  0.00    +0.004 C 
ATOM     10  C   LIG    1       23.181 -25.624  13.493  0.00  0.00    -0.002 C 
ATOM     11  C   LIG    1       24.312 -25.622  14.459  0.00  0.00    -0.004 C 
ATOM     12  C   LIG    1       25.622 -25.360  14.216  0.00  0.00    -0.023 C 
ATOM     13  C   LIG    1       26.860 -25.745  15.033  0.00  0.00    +0.071 C 
ATOM     14  C   LIG    1       27.944 -26.713  14.373  0.00  0.00    +0.177 C 
ATOM     15  C   LIG    1       29.321 -26.425  14.987  0.00  0.00    +0.052 C 
ATOM     16  O   LIG    1       27.612 -28.104  14.693  0.00  0.00    -0.461 OA
ATOM     17  C   LIG    1       28.008 -29.175  13.939  0.00  0.00    +0.311 C 
ATOM     18  O   LIG    1       28.869 -29.132  13.039  0.00  0.00    -0.251 OA
ATOM     19  C   LIG    1       27.290 -30.451  14.384  0.00  0.00    +0.168 C 
ATOM     20  C   LIG    1       26.261 -31.276  13.524  0.00  0.00    +0.218 C 
BRANCH   8  21
ATOM     21  O   LIG    1       19.870 -26.110  12.625  0.00  0.00    -0.388 OA
ATOM     22  H   LIG    1       20.063 -25.221  12.269  0.00  0.00    +0.210 HD
ENDBRANCH   8  21
BRANCH   2  24
ATOM     23  C   LIG    1       23.622 -30.521  15.232  0.00  0.00    +0.194 C 
ATOM     24  O   LIG    1       24.337 -29.906  14.209  0.00  0.00    -0.373 OA
ENDBRANCH   2  24
BRANCH   4  25
ATOM     25  C   LIG    1       21.837 -31.800  11.931  0.00  0.00    +0.077 C 
BRANCH  25  26
ATOM     26  C   LIG    1       20.708 -32.154  10.977  0.00  0.00    +0.223 C 
ATOM     27  O   LIG    1       20.735 -32.075   9.803  0.00  0.00    -0.301 OA
ENDBRANCH  25  26
ENDBRANCH   4  25
BRANCH  20  28
ATOM     28  O   LIG    1       26.078 -32.373  14.523  0.00  0.00    -0.458 OA
BRANCH  28  29
ATOM     29  C   LIG    1       25.249 -33.401  14.287  0.00  0.00    +0.304 C 
ATOM     30  O   LIG    1       24.359 -33.825  15.058  0.00  0.00    -0.251 OA
ATOM     31  C   LIG    1       25.408 -33.824  12.876  0.00  0.00    +0.136 C 
ENDBRANCH  28  29
ENDBRANCH  20  28
ENDBRANCH   1   3
BRANCH   1  32
ATOM     32  C   LIG    1       25.873 -29.683   9.940  0.00  0.00    +0.281 C 
ATOM     33  C   LIG    1       25.551 -30.385   8.661  0.00  0.00    +0.190 C 
ATOM     34  C   LIG    1       25.257 -29.387   7.510  0.00  0.00    +0.121 C 
ATOM     35  C   LIG    1       25.149 -27.840   7.987  0.00  0.00    +0.169 C 
ATOM     36  C   LIG    1       26.421 -27.578   8.748  0.00  0.00    +0.149 C 
ATOM     37  C   LIG    1       26.546 -26.234   9.516  0.00  0.00    +0.040 C 
ATOM     38  O   LIG    1       26.795 -28.693   9.542  0.00  0.00    -0.343 OA
BRANCH  34  39
ATOM     39  N   LIG    1       24.184 -29.994   6.694  0.00  0.00    -0.301 NA
ATOM     40  C   LIG    1       24.023 -31.403   7.042  0.00  0.00    +0.105 C 
ATOM     41  C   LIG    1       24.462 -29.900   5.237  0.00  0.00    +0.105 C 
ENDBRANCH  34  39
BRANCH  33  42
ATOM     42  O   LIG    1       26.677 -31.126   8.186  0.00  0.00    -0.385 OA
ATOM     43  H   LIG    1       26.321 -31.896   7.706  0.00  0.00    +0.210 HD
ENDBRANCH  33  42
BRANCH  35  44
ATOM     44  O   LIG    1       25.108 -26.905   6.880  0.00  0.00    -0.344 OA
BRANCH  44  45
ATOM     45  C   LIG    1       24.747 -25.521   7.135  0.00  0.00    +0.254 C 
ATOM     46  O   LIG    1       23.642 -25.113   6.349  0.00  0.00    -0.344 OA
ATOM     47  C   LIG    1       23.310 -23.713   6.327  0.00  0.00    +0.162 C 
ATOM     48  C   LIG    1       22.498 -23.296   7.560  0.00  0.00    +0.042 C 
ATOM     49  C   LIG    1       24.534 -22.794   6.018  0.00  0.00    +0.236 C 
ATOM     50  C   LIG    1       25.723 -23.144   6.956  0.00  0.00    +0.107 C 
ATOM     51  C   LIG    1       25.577 -22.513   8.359  0.00  0.00    +0.045 C 
ATOM     52  C   LIG    1       25.983 -24.657   6.994  0.00  0.00    +0.099 C 
BRANCH  50  53
ATOM     53  O   LIG    1       26.908 -22.468   6.538  0.00  0.00    -0.385 OA
ATOM     54  H   LIG    1       26.676 -21.759   5.914  0.00  0.00    +0.210 HD
ENDBRANCH  50  53
BRANCH  49  55
ATOM     55  O   LIG    1       24.770 -22.926   4.563  0.00  0.00    -0.456 OA
BRANCH  55  56
ATOM     56  C   LIG    1       24.347 -22.004   3.651  0.00  0.00    +0.308 C 
ATOM     57  O   LIG    1       23.795 -22.248   2.586  0.00  0.00    -0.251 OA
BRANCH  56  58
ATOM     58  C   LIG    1       24.473 -20.577   4.156  0.00  0.00    +0.123 C 
BRANCH  58  59
ATOM     59  C   LIG    1       23.140 -19.824   4.291  0.00  0.00    -0.007 C 
ATOM     60  C   LIG    1       23.294 -18.378   3.796  0.00  0.00    +0.007 C 
ATOM     61  C   LIG    1       22.637 -19.821   5.738  0.00  0.00    +0.007 C 
ENDBRANCH  58  59
ENDBRANCH  56  58
ENDBRANCH  55  56
ENDBRANCH  49  55
ENDBRANCH  44  45
ENDBRANCH  35  44
ENDBRANCH   1  32
TORSDOF 17
ENDMDL
MODEL 2
REMARK VINA RESULT:      -2.4      2.113      4.152
REMARK  Name = *****
REMARK                            x       y       z     vdW  Elec       q    Type
REMARK                         _______ _______ _______ _____ _____    ______ ____
ROOT
ATOM      1  O   LIG    1       22.925 -29.747  11.231  0.00  0.00    -0.343 OA
ENDROOT
BRANCH   1   3
ATOM      2  C   LIG    1       21.622 -31.102  13.162  0.00  0.00    +0.188 C 
ATOM      3  C   LIG    1       21.662 -30.026  11.965  0.00  0.00    +0.157 C 
ATOM      4  C   LIG    1       20.922 -28.633  12.331  0.00  0.00    +0.028 C 
ATOM      5  C   LIG    1       21.798 -27.880  13.341  0.00  0.00    +0.012 C 
ATOM      6  C   LIG    1       21.954 -26.480  13.959  0.00  0.00    +0.019 C 
ATOM      7  C   LIG    1       21.008 -26.204  15.075  0.00  0.00    +0.010 C 
ATOM      8  C   LIG    1       23.519 -26.146  14.403  0.00  0.00    +0.140 C 
ATOM      9  C   LIG    1       24.291 -27.170  15.240  0.00  0.00    +0.004 C 
ATOM     10  C   LIG    1       25.487 -27.744  14.919  0.00  0.00    -0.002 C 
ATOM     11  C   LIG    1       25.947 -29.034  15.499  0.00  0.00    -0.004 C 
ATOM     12  C   LIG    1       26.779 -29.953  14.944  0.00  0.00    -0.023 C 
ATOM     13  C   LIG    1       26.949 -31.439  15.277  0.00  0.00    +0.071 C 
ATOM     14  C   LIG    1       26.601 -32.522  14.158  0.00  0.00    +0.177 C 
ATOM     15  C   LIG    1       27.445 -33.782  14.391  0.00  0.00    +0.052 C 
ATOM     16  O   LIG    1       25.195 -32.914  14.281  0.00  0.00    -0.461 OA
ATOM     17  C   LIG    1       24.453 -33.424  13.251  0.00  0.00    +0.311 C 
ATOM     18  O   LIG    1       24.920 -33.825  12.167  0.00  0.00    -0.251 OA
ATOM     19  C   LIG    1       22.970 -33.486  13.625  0.00  0.00    +0.168 C 
ATOM     20  C   LIG    1       21.815 -32.653  12.955  0.00  0.00    +0.218 C 
BRANCH   8  21
ATOM     21  O   LIG    1       23.614 -24.838  14.966  0.00  0.00    -0.388 OA
ATOM     22  H   LIG    1       23.717 -24.968  15.929  0.00  0.00    +0.210 HD
ENDBRANCH   8  21
BRANCH   2  24
ATOM     23  C   LIG    1       21.288 -30.892  15.499  0.00  0.00    +0.194 C 
ATOM     24  O   LIG    1       22.145 -30.704  14.420  0.00  0.00    -0.373 OA
ENDBRANCH   2  24
BRANCH   4  25
ATOM     25  C   LIG    1       19.446 -28.569  12.635  0.00  0.00    +0.077 C 
BRANCH  25  26
ATOM     26  C   LIG    1       18.999 -29.169  13.957  0.00  0.00    +0.223 C 
ATOM     27  O   LIG    1       18.731 -28.576  14.938  0.00  0.00    -0.301 OA
ENDBRANCH  25  26
ENDBRANCH   4  25
BRANCH  20  28
ATOM     28  O   LIG    1       20.705 -33.287  13.730  0.00  0.00    -0.458 OA
BRANCH  28  29
ATOM     29  C   LIG    1       19.420 -33.093  13.395  0.00  0.00    +0.304 C 
ATOM     30  O   LIG    1       18.503 -32.726  14.163  0.00  0.00    -0.251 OA
ATOM     31  C   LIG    1       19.297 -33.176  11.921  0.00  0.00    +0.136 C 
ENDBRANCH  28  29
ENDBRANCH  20  28
ENDBRANCH   1   3
BRANCH   1  32
ATOM     32  C   LIG    1       23.916 -30.767  11.063  0.00  0.00    +0.281 C 
ATOM     33  C   LIG    1       23.909 -31.529   9.778  0.00  0.00    +0.190 C 
ATOM     34  C   LIG    1       24.868 -30.907   8.730  0.00  0.00    +0.121 C 
ATOM     35  C   LIG    1       25.489 -29.474   9.168  0.00  0.00    +0.169 C 
ATOM     36  C   LIG    1       26.096 -29.712  10.525  0.00  0.00    +0.149 C 
ATOM     37  C   LIG    1       26.605 -28.479  11.321  0.00  0.00    +0.040 C 
ATOM     38  O   LIG    1       25.290 -30.572  11.315  0.00  0.00    -0.343 OA
BRANCH  34  39
ATOM     39  N   LIG    1       24.211 -31.066   7.415  0.00  0.00    -0.301 NA
ATOM     40  C   LIG    1       23.099 -32.007   7.519  0.00  0.00    +0.105 C 
ATOM     41  C   LIG    1       25.148 -31.561   6.372  0.00  0.00    +0.105 C 
ENDBRANCH  34  39
BRANCH  33  42
ATOM     42  O   LIG    1       24.421 -32.851   9.964  0.00  0.00    -0.385 OA
ATOM     43  H   LIG    1       25.112 -32.979   9.289  0.00  0.00    +0.210 HD
ENDBRANCH  33  42
BRANCH  35  44
ATOM     44  O   LIG    1       26.553 -29.023   8.293  0.00  0.00    -0.344 OA
BRANCH  44  45
ATOM     45  C   LIG    1       26.217 -28.248   7.112  0.00  0.00    +0.254 C 
ATOM     46  O   LIG    1       27.277 -27.391   6.726  0.00  0.00    -0.344 OA
ATOM     47  C   LIG    1       27.012 -26.405   5.712  0.00  0.00    +0.162 C 
ATOM     48  C   LIG    1       27.074 -27.002   4.300  0.00  0.00    +0.042 C 
ATOM     49  C   LIG    1       25.735 -25.553   5.999  0.00  0.00    +0.236 C 
ATOM     50  C   LIG    1       24.525 -26.480   6.305  0.00  0.00    +0.107 C 
ATOM     51  C   LIG    1       23.880 -27.056   5.025  0.00  0.00    +0.045 C 
ATOM     52  C   LIG    1       24.889 -27.556   7.340  0.00  0.00    +0.099 C 
BRANCH  50  53
ATOM     53  O   LIG    1       23.417 -25.719   6.782  0.00  0.00    -0.385 OA
ATOM     54  H   LIG    1       23.282 -25.896   7.728  0.00  0.00    +0.210 HD
ENDBRANCH  50  53
BRANCH  49  55
ATOM     55  O   LIG    1       26.127 -24.596   7.056  0.00  0.00    -0.456 OA
BRANCH  55  56
ATOM     56  C   LIG    1       25.643 -23.323   7.128  0.00  0.00    +0.308 C 
ATOM     57  O   LIG    1       25.892 -22.508   8.007  0.00  0.00    -0.251 OA
BRANCH  56  58
ATOM     58  C   LIG    1       24.864 -22.919   5.889  0.00  0.00    +0.123 C 
BRANCH  58  59
ATOM     59  C   LIG    1       24.584 -21.412   5.768  0.00  0.00    -0.007 C 
ATOM     60  C   LIG    1       23.074 -21.144   5.858  0.00  0.00    +0.007 C 
ATOM     61  C   LIG    1       25.130 -20.840   4.457  0.00  0.00    +0.007 C 
ENDBRANCH  58  59
ENDBRANCH  56  58
ENDBRANCH  55  56
ENDBRANCH  49  55
ENDBRANCH  44  45
ENDBRANCH  35  44
ENDBRANCH   1  32
TORSDOF 17
ENDMDL
MODEL 3
REMARK VINA RESULT:      -1.8      1.819      2.404
REMARK  Name = *****
REMARK                            x       y       z     vdW  Elec       q    Type
REMARK                         _______ _______ _______ _____ _____    ______ ____
ROOT
ATOM      1  O   LIG    1       24.187 -29.976  10.302  0.00  0.00    -0.343 OA
ENDROOT
BRANCH   1   3
ATOM      2  C   LIG    1       24.006 -31.608  12.439  0.00  0.00    +0.188 C 
ATOM      3  C   LIG    1       23.509 -31.106  10.991  0.00  0.00    +0.157 C 
ATOM      4  C   LIG    1       21.903 -30.924  10.893  0.00  0.00    +0.028 C 
ATOM      5  C   LIG    1       21.513 -29.685  11.708  0.00  0.00    +0.012 C 
ATOM      6  C   LIG    1       20.326 -28.729  11.913  0.00  0.00    +0.019 C 
ATOM      7  C   LIG    1       19.280 -29.254  12.833  0.00  0.00    +0.010 C 
ATOM      8  C   LIG    1       20.801 -27.200  12.356  0.00  0.00    +0.140 C 
ATOM      9  C   LIG    1       21.803 -27.035  13.503  0.00  0.00    +0.004 C 
ATOM     10  C   LIG    1       23.002 -26.385  13.445  0.00  0.00    -0.002 C 
ATOM     11  C   LIG    1       24.112 -26.650  14.399  0.00  0.00    -0.004 C 
ATOM     12  C   LIG    1       25.447 -26.515  14.190  0.00  0.00    -0.023 C 
ATOM     13  C   LIG    1       26.620 -27.152  14.943  0.00  0.00    +0.071 C 
ATOM     14  C   LIG    1       27.590 -28.144  14.154  0.00  0.00    +0.177 C 
ATOM     15  C   LIG    1       28.984 -28.108  14.797  0.00  0.00    +0.052 C 
ATOM     16  O   LIG    1       27.092 -29.516  14.282  0.00  0.00    -0.461 OA
ATOM     17  C   LIG    1       27.368 -30.514  13.388  0.00  0.00    +0.311 C 
ATOM     18  O   LIG    1       28.240 -30.452  12.499  0.00  0.00    -0.251 OA
ATOM     19  C   LIG    1       26.499 -31.743  13.656  0.00  0.00    +0.168 C 
ATOM     20  C   LIG    1       25.390 -32.316  12.695  0.00  0.00    +0.218 C 
BRANCH   8  21
ATOM     21  O   LIG    1       19.668 -26.351  12.530  0.00  0.00    -0.388 OA
ATOM     22  H   LIG    1       19.957 -25.640  13.134  0.00  0.00    +0.210 HD
ENDBRANCH   8  21
BRANCH   2  24
ATOM     23  C   LIG    1       22.616 -31.375  14.345  0.00  0.00    +0.194 C 
ATOM     24  O   LIG    1       23.633 -30.832  13.567  0.00  0.00    -0.373 OA
ENDBRANCH   2  24
BRANCH   4  25
ATOM     25  C   LIG    1       20.956 -32.087  11.058  0.00  0.00    +0.077 C 
BRANCH  25  26
ATOM     26  C   LIG    1       21.381 -33.402  10.428  0.00  0.00    +0.223 C 
ATOM     27  O   LIG    1       21.641 -33.582   9.294  0.00  0.00    -0.301 OA
ENDBRANCH  25  26
ENDBRANCH   4  25
BRANCH  20  28
ATOM     28  O   LIG    1       25.066 -33.509  13.535  0.00  0.00    -0.458 OA
BRANCH  28  29
ATOM     29  C   LIG    1       25.214 -33.485  14.868  0.00  0.00    +0.304 C 
ATOM     30  O   LIG    1       26.222 -33.087  15.493  0.00  0.00    -0.251 OA
ATOM     31  C   LIG    1       23.910 -33.804  15.496  0.00  0.00    +0.136 C 
ENDBRANCH  28  29
ENDBRANCH  20  28
ENDBRANCH   1   3
BRANCH   1  32
ATOM     32  C   LIG    1       25.403 -30.183   9.576  0.00  0.00    +0.281 C 
ATOM     33  C   LIG    1       25.331 -30.138   8.084  0.00  0.00    +0.190 C 
ATOM     34  C   LIG    1       25.646 -28.724   7.530  0.00  0.00    +0.121 C 
ATOM     35  C   LIG    1       25.767 -27.578   8.672  0.00  0.00    +0.169 C 
ATOM     36  C   LIG    1       26.770 -28.115   9.657  0.00  0.00    +0.149 C 
ATOM     37  C   LIG    1       26.968 -27.340  10.988  0.00  0.00    +0.040 C 
ATOM     38  O   LIG    1       26.609 -29.509   9.860  0.00  0.00    -0.343 OA
BRANCH  34  39
ATOM     39  N   LIG    1       24.762 -28.525   6.362  0.00  0.00    -0.301 NA
ATOM     40  C   LIG    1       23.870 -29.671   6.206  0.00  0.00    +0.105 C 
ATOM     41  C   LIG    1       25.526 -28.351   5.098  0.00  0.00    +0.105 C 
ENDBRANCH  34  39
BRANCH  33  42
ATOM     42  O   LIG    1       26.340 -30.964   7.497  0.00  0.00    -0.385 OA
ATOM     43  H   LIG    1       26.562 -31.643   8.159  0.00  0.00    +0.210 HD
ENDBRANCH  33  42
BRANCH  35  44
ATOM     44  O   LIG    1       26.288 -26.323   8.165  0.00  0.00    -0.344 OA
BRANCH  44  45
ATOM     45  C   LIG    1       25.474 -25.535   7.256  0.00  0.00    +0.254 C 
ATOM     46  O   LIG    1       26.212 -25.112   6.123  0.00  0.00    -0.344 OA
ATOM     47  C   LIG    1       25.609 -24.142   5.249  0.00  0.00    +0.162 C 
ATOM     48  C   LIG    1       24.615 -24.787   4.273  0.00  0.00    +0.042 C 
ATOM     49  C   LIG    1       25.053 -22.892   6.003  0.00  0.00    +0.236 C 
ATOM     50  C   LIG    1       24.138 -23.333   7.180  0.00  0.00    +0.107 C 
ATOM     51  C   LIG    1       22.715 -23.711   6.714  0.00  0.00    +0.045 C 
ATOM     52  C   LIG    1       24.807 -24.420   8.035  0.00  0.00    +0.099 C 
BRANCH  50  53
ATOM     53  O   LIG    1       23.807 -22.217   8.004  0.00  0.00    -0.385 OA
ATOM     54  H   LIG    1       23.405 -22.531   8.832  0.00  0.00    +0.210 HD
ENDBRANCH  50  53
BRANCH  49  55
ATOM     55  O   LIG    1       26.240 -22.080   6.348  0.00  0.00    -0.456 OA
BRANCH  55  56
ATOM     56  C   LIG    1       26.420 -20.798   5.918  0.00  0.00    +0.308 C 
ATOM     57  O   LIG    1       25.820 -20.258   4.998  0.00  0.00    -0.251 OA
BRANCH  56  58
ATOM     58  C   LIG    1       27.349 -20.001   6.816  0.00  0.00    +0.123 C 
BRANCH  58  59
ATOM     59  C   LIG    1       28.847 -20.203   6.534  0.00  0.00    -0.007 C 
ATOM     60  C   LIG    1       29.582 -20.597   7.823  0.00  0.00    +0.007 C 
ATOM     61  C   LIG    1       29.485 -18.943   5.943  0.00  0.00    +0.007 C 
ENDBRANCH  58  59
ENDBRANCH  56  58
ENDBRANCH  55  56
ENDBRANCH  49  55
ENDBRANCH  44  45
ENDBRANCH  35  44
ENDBRANCH   1  32
TORSDOF 17
ENDMDL
MODEL 4
REMARK VINA RESULT:      -1.6      2.195      6.170
REMARK  Name = *****
REMARK                            x       y       z     vdW  Elec       q    Type
REMARK                         _______ _______ _______ _____ _____    ______ ____
ROOT
ATOM      1  O   LIG    1       24.799 -28.584  12.047  0.00  0.00    -0.343 OA
ENDROOT
BRANCH   1   3
ATOM      2  C   LIG    1       24.981 -27.275  14.396  0.00  0.00    +0.188 C 
ATOM      3  C   LIG    1       25.631 -27.857  13.042  0.00  0.00    +0.157 C 
ATOM      4  C   LIG    1       27.015 -28.660  13.290  0.00  0.00    +0.028 C 
ATOM      5  C   LIG    1       26.676 -29.993  13.970  0.00  0.00    +0.012 C 
ATOM      6  C   LIG    1       27.317 -31.354  14.292  0.00  0.00    +0.019 C 
ATOM      7  C   LIG    1       28.188 -31.340  15.500  0.00  0.00    +0.010 C 
ATOM      8  C   LIG    1       26.205 -32.585  14.369  0.00  0.00    +0.140 C 
ATOM      9  C   LIG    1       24.941 -32.396  15.213  0.00  0.00    +0.004 C 
ATOM     10  C   LIG    1       23.652 -32.508  14.779  0.00  0.00    -0.002 C 
ATOM     11  C   LIG    1       22.504 -31.872  15.480  0.00  0.00    -0.004 C 
ATOM     12  C   LIG    1       21.328 -31.450  14.949  0.00  0.00    -0.023 C 
ATOM     13  C   LIG    1       20.318 -30.438  15.500  0.00  0.00    +0.071 C 
ATOM     14  C   LIG    1       20.043 -29.100  14.673  0.00  0.00    +0.177 C 
ATOM     15  C   LIG    1       18.618 -28.610  14.962  0.00  0.00    +0.052 C 
ATOM     16  O   LIG    1       20.960 -28.051  15.125  0.00  0.00    -0.461 OA
ATOM     17  C   LIG    1       21.331 -26.981  14.358  0.00  0.00    +0.311 C 
ATOM     18  O   LIG    1       20.779 -26.642  13.293  0.00  0.00    -0.251 OA
ATOM     19  C   LIG    1       22.486 -26.218  15.009  0.00  0.00    +0.168 C 
ATOM     20  C   LIG    1       23.946 -26.086  14.432  0.00  0.00    +0.218 C 
BRANCH   8  21
ATOM     21  O   LIG    1       26.847 -33.825  14.666  0.00  0.00    -0.388 OA
ATOM     22  H   LIG    1       26.544 -34.453  13.982  0.00  0.00    +0.210 HD
ENDBRANCH   8  21
BRANCH   2  24
ATOM     23  C   LIG    1       24.007 -29.330  15.063  0.00  0.00    +0.194 C 
ATOM     24  O   LIG    1       24.713 -28.193  15.444  0.00  0.00    -0.373 OA
ENDBRANCH   2  24
BRANCH   4  25
ATOM     25  C   LIG    1       28.241 -27.984  13.850  0.00  0.00    +0.077 C 
BRANCH  25  26
ATOM     26  C   LIG    1       29.548 -28.751  13.740  0.00  0.00    +0.223 C 
ATOM     27  O   LIG    1       30.521 -28.566  14.375  0.00  0.00    -0.301 OA
ENDBRANCH  25  26
ENDBRANCH   4  25
BRANCH  20  28
ATOM     28  O   LIG    1       24.447 -25.169  15.500  0.00  0.00    -0.458 OA
BRANCH  28  29
ATOM     29  C   LIG    1       25.442 -24.300  15.264  0.00  0.00    +0.304 C 
ATOM     30  O   LIG    1       25.366 -23.053  15.333  0.00  0.00    -0.251 OA
ATOM     31  C   LIG    1       26.707 -25.058  15.115  0.00  0.00    +0.136 C 
ENDBRANCH  28  29
ENDBRANCH  20  28
ENDBRANCH   1   3
BRANCH   1  32
ATOM     32  C   LIG    1       25.030 -29.970  11.772  0.00  0.00    +0.281 C 
ATOM     33  C   LIG    1       23.861 -30.789  11.328  0.00  0.00    +0.190 C 
ATOM     34  C   LIG    1       23.752 -30.855   9.783  0.00  0.00    +0.121 C 
ATOM     35  C   LIG    1       24.775 -29.866   9.004  0.00  0.00    +0.169 C 
ATOM     36  C   LIG    1       26.134 -30.195   9.562  0.00  0.00    +0.149 C 
ATOM     37  C   LIG    1       27.324 -29.278   9.167  0.00  0.00    +0.040 C 
ATOM     38  O   LIG    1       26.080 -30.442  10.957  0.00  0.00    -0.343 OA
BRANCH  34  39
ATOM     39  N   LIG    1       22.309 -30.839   9.463  0.00  0.00    -0.301 NA
ATOM     40  C   LIG    1       21.541 -30.404  10.627  0.00  0.00    +0.105 C 
ATOM     41  C   LIG    1       21.808 -32.175   9.045  0.00  0.00    +0.105 C 
ENDBRANCH  34  39
BRANCH  33  42
ATOM     42  O   LIG    1       24.017 -32.156  11.716  0.00  0.00    -0.385 OA
ATOM     43  H   LIG    1       23.876 -32.690  10.914  0.00  0.00    +0.210 HD
ENDBRANCH  33  42
BRANCH  35  44
ATOM     44  O   LIG    1       24.825 -30.109   7.576  0.00  0.00    -0.344 OA
BRANCH  44  45
ATOM     45  C   LIG    1       25.286 -29.051   6.693  0.00  0.00    +0.254 C 
ATOM     46  O   LIG    1       25.684 -27.900   7.417  0.00  0.00    -0.344 OA
ATOM     47  C   LIG    1       25.953 -26.697   6.675  0.00  0.00    +0.162 C 
ATOM     48  C   LIG    1       27.356 -26.706   6.053  0.00  0.00    +0.042 C 
ATOM     49  C   LIG    1       24.809 -26.316   5.682  0.00  0.00    +0.236 C 
ATOM     50  C   LIG    1       24.439 -27.535   4.791  0.00  0.00    +0.107 C 
ATOM     51  C   LIG    1       25.423 -27.731   3.616  0.00  0.00    +0.045 C 
ATOM     52  C   LIG    1       24.235 -28.804   5.631  0.00  0.00    +0.099 C 
BRANCH  50  53
ATOM     53  O   LIG    1       23.256 -27.267   4.040  0.00  0.00    -0.385 OA
ATOM     54  H   LIG    1       23.244 -26.332   3.773  0.00  0.00    +0.210 HD
ENDBRANCH  50  53
BRANCH  49  55
ATOM     55  O   LIG    1       23.730 -25.750   6.520  0.00  0.00    -0.456 OA
BRANCH  55  56
ATOM     56  C   LIG    1       23.443 -24.417   6.570  0.00  0.00    +0.308 C 
ATOM     57  O   LIG    1       22.393 -23.922   6.957  0.00  0.00    -0.251 OA
BRANCH  56  58
ATOM     58  C   LIG    1       24.644 -23.545   6.248  0.00  0.00    +0.123 C 
BRANCH  58  59
ATOM     59  C   LIG    1       24.986 -22.500   7.322  0.00  0.00    -0.007 C 
ATOM     60  C   LIG    1       23.943 -21.373   7.319  0.00  0.00    +0.007 C 
ATOM     61  C   LIG    1       26.383 -21.907   7.108  0.00  0.00    +0.007 C 
ENDBRANCH  58  59
ENDBRANCH  56  58
ENDBRANCH  55  56
ENDBRANCH  49  55
ENDBRANCH  44  45
ENDBRANCH  35  44
ENDBRANCH   1  32
TORSDOF 17
ENDMDL
MODEL 5
REMARK VINA RESULT:      -0.9      2.725      5.201
REMARK  Name = *****
REMARK                            x       y       z     vdW  Elec       q    Type
REMARK                         _______ _______ _______ _____ _____    ______ ____
ROOT
ATOM      1  O   LIG    1       25.595 -28.495   8.267  0.00  0.00    -0.343 OA
ENDROOT
BRANCH   1   3
ATOM      2  C   LIG    1       27.035 -29.752  10.167  0.00  0.00    +0.188 C 
ATOM      3  C   LIG    1       26.570 -29.555   8.637  0.00  0.00    +0.157 C 
ATOM      4  C   LIG    1       26.173 -30.944   7.905  0.00  0.00    +0.028 C 
ATOM      5  C   LIG    1       24.838 -31.425   8.487  0.00  0.00    +0.012 C 
ATOM      6  C   LIG    1       23.714 -32.433   8.195  0.00  0.00    +0.019 C 
ATOM      7  C   LIG    1       24.023 -33.825   8.626  0.00  0.00    +0.010 C 
ATOM      8  C   LIG    1       22.239 -31.939   8.778  0.00  0.00    +0.140 C 
ATOM      9  C   LIG    1       22.137 -31.455  10.228  0.00  0.00    +0.004 C 
ATOM     10  C   LIG    1       21.666 -30.245  10.648  0.00  0.00    -0.002 C 
ATOM     11  C   LIG    1       22.016 -29.655  11.968  0.00  0.00    -0.004 C 
ATOM     12  C   LIG    1       22.083 -28.342  12.307  0.00  0.00    -0.023 C 
ATOM     13  C   LIG    1       22.824 -27.673  13.470  0.00  0.00    +0.071 C 
ATOM     14  C   LIG    1       23.994 -26.638  13.141  0.00  0.00    +0.177 C 
ATOM     15  C   LIG    1       24.108 -25.622  14.286  0.00  0.00    +0.052 C 
ATOM     16  O   LIG    1       25.271 -27.353  13.071  0.00  0.00    -0.461 OA
ATOM     17  C   LIG    1       26.357 -26.906  12.369  0.00  0.00    +0.311 C 
ATOM     18  O   LIG    1       26.478 -25.757  11.901  0.00  0.00    -0.251 OA
ATOM     19  C   LIG    1       27.432 -27.991  12.278  0.00  0.00    +0.168 C 
ATOM     20  C   LIG    1       27.909 -28.707  10.959  0.00  0.00    +0.218 C 
BRANCH   8  21
ATOM     21  O   LIG    1       21.231 -32.903   8.479  0.00  0.00    -0.388 OA
ATOM     22  H   LIG    1       21.651 -33.553   7.883  0.00  0.00    +0.210 HD
ENDBRANCH   8  21
BRANCH   2  24
ATOM     23  C   LIG    1       26.365 -31.775  11.204  0.00  0.00    +0.194 C 
ATOM     24  O   LIG    1       26.138 -30.412  11.046  0.00  0.00    -0.373 OA
ENDBRANCH   2  24
BRANCH   4  25
ATOM     25  C   LIG    1       27.178 -32.048   7.689  0.00  0.00    +0.077 C 
BRANCH  25  26
ATOM     26  C   LIG    1       27.137 -32.748   6.342  0.00  0.00    +0.223 C 
ATOM     27  O   LIG    1       26.300 -32.636   5.522  0.00  0.00    -0.301 OA
ENDBRANCH  25  26
ENDBRANCH   4  25
BRANCH  20  28
ATOM     28  O   LIG    1       28.984 -29.517  11.610  0.00  0.00    -0.458 OA
BRANCH  28  29
ATOM     29  C   LIG    1       28.999 -29.720  12.936  0.00  0.00    +0.304 C 
ATOM     30  O   LIG    1       28.089 -30.246  13.614  0.00  0.00    -0.251 OA
ATOM     31  C   LIG    1       30.357 -29.417  13.446  0.00  0.00    +0.136 C 
ENDBRANCH  28  29
ENDBRANCH  20  28
ENDBRANCH   1   3
BRANCH   1  32
ATOM     32  C   LIG    1       25.150 -28.350   6.914  0.00  0.00    +0.281 C 
ATOM     33  C   LIG    1       23.999 -27.430   6.662  0.00  0.00    +0.190 C 
ATOM     34  C   LIG    1       24.470 -25.998   6.296  0.00  0.00    +0.121 C 
ATOM     35  C   LIG    1       26.064 -25.760   6.477  0.00  0.00    +0.169 C 
ATOM     36  C   LIG    1       26.715 -26.865   5.689  0.00  0.00    +0.149 C 
ATOM     37  C   LIG    1       28.252 -27.044   5.819  0.00  0.00    +0.040 C 
ATOM     38  O   LIG    1       26.013 -28.090   5.829  0.00  0.00    -0.343 OA
BRANCH  34  39
ATOM     39  N   LIG    1       23.501 -25.068   6.914  0.00  0.00    -0.301 NA
ATOM     40  C   LIG    1       22.795 -24.317   5.879  0.00  0.00    +0.105 C 
ATOM     41  C   LIG    1       24.154 -24.099   7.832  0.00  0.00    +0.105 C 
ENDBRANCH  34  39
BRANCH  33  42
ATOM     42  O   LIG    1       23.253 -27.845   5.514  0.00  0.00    -0.385 OA
ATOM     43  H   LIG    1       23.863 -27.798   4.756  0.00  0.00    +0.210 HD
ENDBRANCH  33  42
BRANCH  35  44
ATOM     44  O   LIG    1       26.519 -24.503   5.914  0.00  0.00    -0.344 OA
BRANCH  44  45
ATOM     45  C   LIG    1       25.986 -23.259   6.440  0.00  0.00    +0.254 C 
ATOM     46  O   LIG    1       25.725 -22.322   5.409  0.00  0.00    -0.344 OA
ATOM     47  C   LIG    1       25.406 -20.972   5.790  0.00  0.00    +0.162 C 
ATOM     48  C   LIG    1       23.936 -20.823   6.202  0.00  0.00    +0.042 C 
ATOM     49  C   LIG    1       26.425 -20.359   6.802  0.00  0.00    +0.236 C 
ATOM     50  C   LIG    1       26.634 -21.319   8.007  0.00  0.00    +0.107 C 
ATOM     51  C   LIG    1       25.501 -21.215   9.052  0.00  0.00    +0.045 C 
ATOM     52  C   LIG    1       26.900 -22.758   7.540  0.00  0.00    +0.099 C 
BRANCH  50  53
ATOM     53  O   LIG    1       27.720 -20.876   8.820  0.00  0.00    -0.385 OA
ATOM     54  H   LIG    1       28.165 -21.644   9.216  0.00  0.00    +0.210 HD
ENDBRANCH  50  53
BRANCH  49  55
ATOM     55  O   LIG    1       27.623 -20.022   6.002  0.00  0.00    -0.456 OA
BRANCH  55  56
ATOM     56  C   LIG    1       28.893 -20.077   6.497  0.00  0.00    +0.308 C 
ATOM     57  O   LIG    1       29.621 -21.061   6.498  0.00  0.00    -0.251 OA
BRANCH  56  58
ATOM     58  C   LIG    1       29.419 -18.717   6.919  0.00  0.00    +0.123 C 
BRANCH  58  59
ATOM     59  C   LIG    1       30.298 -18.730   8.180  0.00  0.00    -0.007 C 
ATOM     60  C   LIG    1       30.018 -17.487   9.037  0.00  0.00    +0.007 C 
ATOM     61  C   LIG    1       31.788 -18.786   7.828  0.00  0.00    +0.007 C 
ENDBRANCH  58  59
ENDBRANCH  56  58
ENDBRANCH  55  56
ENDBRANCH  49  55
ENDBRANCH  44  45
ENDBRANCH  35  44
ENDBRANCH   1  32
TORSDOF 17
ENDMDL
MODEL 6
REMARK VINA RESULT:      -0.6      2.237      5.394
REMARK  Name = *****
REMARK                            x       y       z     vdW  Elec       q    Type
REMARK                         _______ _______ _______ _____ _____    ______ ____
ROOT
ATOM      1  O   LIG    1       23.145 -29.378   9.200  0.00  0.00    -0.343 OA
ENDROOT
BRANCH   1   3
ATOM      2  C   LIG    1       22.519 -31.863  10.035  0.00  0.00    +0.188 C 
ATOM      3  C   LIG    1       22.516 -30.263  10.217  0.00  0.00    +0.157 C 
ATOM      4  C   LIG    1       22.954 -29.787  11.702  0.00  0.00    +0.028 C 
ATOM      5  C   LIG    1       24.461 -30.030  11.855  0.00  0.00    +0.012 C 
ATOM      6  C   LIG    1       25.633 -29.650  12.775  0.00  0.00    +0.019 C 
ATOM      7  C   LIG    1       25.712 -30.465  14.020  0.00  0.00    +0.010 C 
ATOM      8  C   LIG    1       27.092 -29.627  11.981  0.00  0.00    +0.140 C 
ATOM      9  C   LIG    1       27.485 -30.823  11.109  0.00  0.00    +0.004 C 
ATOM     10  C   LIG    1       27.818 -30.788   9.786  0.00  0.00    -0.002 C 
ATOM     11  C   LIG    1       27.728 -31.977   8.898  0.00  0.00    -0.004 C 
ATOM     12  C   LIG    1       27.512 -32.007   7.558  0.00  0.00    -0.023 C 
ATOM     13  C   LIG    1       26.996 -33.153   6.680  0.00  0.00    +0.071 C 
ATOM     14  C   LIG    1       25.611 -32.966   5.909  0.00  0.00    +0.177 C 
ATOM     15  C   LIG    1       25.618 -33.823   4.636  0.00  0.00    +0.052 C 
ATOM     16  O   LIG    1       24.516 -33.454   6.751  0.00  0.00    -0.461 OA
ATOM     17  C   LIG    1       23.219 -33.033   6.637  0.00  0.00    +0.311 C 
ATOM     18  O   LIG    1       22.768 -32.372   5.681  0.00  0.00    -0.251 OA
ATOM     19  C   LIG    1       22.378 -33.527   7.815  0.00  0.00    +0.168 C 
ATOM     20  C   LIG    1       21.709 -32.620   8.914  0.00  0.00    +0.218 C 
BRANCH   8  21
ATOM     21  O   LIG    1       28.145 -29.266  12.874  0.00  0.00    -0.388 OA
ATOM     22  H   LIG    1       27.991 -29.781  13.691  0.00  0.00    +0.210 HD
ENDBRANCH   8  21
BRANCH   2  24
ATOM     23  C   LIG    1       23.608 -33.561  11.280  0.00  0.00    +0.194 C 
ATOM     24  O   LIG    1       23.723 -32.555  10.325  0.00  0.00    -0.373 OA
ENDBRANCH   2  24
BRANCH   4  25
ATOM     25  C   LIG    1       22.150 -30.148  12.925  0.00  0.00    +0.077 C 
BRANCH  25  26
ATOM     26  C   LIG    1       21.225 -29.074  13.471  0.00  0.00    +0.223 C 
ATOM     27  O   LIG    1       20.911 -28.080  12.924  0.00  0.00    -0.301 OA
ENDBRANCH  25  26
ENDBRANCH   4  25
BRANCH  20  28
ATOM     28  O   LIG    1       21.014 -33.735   9.626  0.00  0.00    -0.458 OA
BRANCH  28  29
ATOM     29  C   LIG    1       19.821 -33.554  10.213  0.00  0.00    +0.304 C 
ATOM     30  O   LIG    1       19.618 -33.377  11.435  0.00  0.00    -0.251 OA
ATOM     31  C   LIG    1       18.796 -33.380   9.158  0.00  0.00    +0.136 C 
ENDBRANCH  28  29
ENDBRANCH  20  28
ENDBRANCH   1   3
BRANCH   1  32
ATOM     32  C   LIG    1       24.321 -29.791   8.496  0.00  0.00    +0.281 C 
ATOM     33  C   LIG    1       24.277 -29.762   7.003  0.00  0.00    +0.190 C 
ATOM     34  C   LIG    1       24.822 -28.427   6.432  0.00  0.00    +0.121 C 
ATOM     35  C   LIG    1       25.110 -27.295   7.557  0.00  0.00    +0.169 C 
ATOM     36  C   LIG    1       26.001 -27.967   8.566  0.00  0.00    +0.149 C 
ATOM     37  C   LIG    1       26.304 -27.210   9.889  0.00  0.00    +0.040 C 
ATOM     38  O   LIG    1       25.616 -29.314   8.789  0.00  0.00    -0.343 OA
BRANCH  34  39
ATOM     39  N   LIG    1       23.997 -28.110   5.247  0.00  0.00    -0.301 NA
ATOM     40  C   LIG    1       24.065 -29.203   4.280  0.00  0.00    +0.105 C 
ATOM     41  C   LIG    1       24.435 -26.860   4.572  0.00  0.00    +0.105 C 
ENDBRANCH  34  39
BRANCH  33  42
ATOM     42  O   LIG    1       25.148 -30.750   6.445  0.00  0.00    -0.385 OA
ATOM     43  H   LIG    1       25.817 -30.945   7.125  0.00  0.00    +0.210 HD
ENDBRANCH  33  42
BRANCH  35  44
ATOM     44  O   LIG    1       25.832 -26.149   7.039  0.00  0.00    -0.344 OA
BRANCH  44  45
ATOM     45  C   LIG    1       25.341 -24.813   7.329  0.00  0.00    +0.254 C 
ATOM     46  O   LIG    1       24.244 -24.466   6.503  0.00  0.00    -0.344 OA
ATOM     47  C   LIG    1       23.793 -23.100   6.518  0.00  0.00    +0.162 C 
ATOM     48  C   LIG    1       22.890 -22.805   7.723  0.00  0.00    +0.042 C 
ATOM     49  C   LIG    1       24.947 -22.068   6.308  0.00  0.00    +0.236 C 
ATOM     50  C   LIG    1       26.115 -22.356   7.292  0.00  0.00    +0.107 C 
ATOM     51  C   LIG    1       25.848 -21.801   8.709  0.00  0.00    +0.045 C 
ATOM     52  C   LIG    1       26.503 -23.842   7.285  0.00  0.00    +0.099 C 
BRANCH  50  53
ATOM     53  O   LIG    1       27.256 -21.566   6.962  0.00  0.00    -0.385 OA
ATOM     54  H   LIG    1       27.053 -21.003   6.196  0.00  0.00    +0.210 HD
ENDBRANCH  50  53
BRANCH  49  55
ATOM     55  O   LIG    1       25.263 -22.117   4.864  0.00  0.00    -0.456 OA
BRANCH  55  56
ATOM     56  C   LIG    1       24.431 -21.629   3.899  0.00  0.00    +0.308 C 
ATOM     57  O   LIG    1       23.845 -22.290   3.053  0.00  0.00    -0.251 OA
BRANCH  56  58
ATOM     58  C   LIG    1       24.145 -20.146   4.066  0.00  0.00    +0.123 C 
BRANCH  58  59
ATOM     59  C   LIG    1       22.759 -19.820   4.646  0.00  0.00    -0.007 C 
ATOM     60  C   LIG    1       22.250 -18.483   4.087  0.00  0.00    +0.007 C 
ATOM     61  C   LIG    1       22.788 -19.760   6.176  0.00  0.00    +0.007 C 
ENDBRANCH  58  59
ENDBRANCH  56  58
ENDBRANCH  55  56
ENDBRANCH  49  55
ENDBRANCH  44  45
ENDBRANCH  35  44
ENDBRANCH   1  32
TORSDOF 17
ENDMDL
MODEL 7
REMARK VINA RESULT:      -0.3      2.578      5.853
REMARK  Name = *****
REMARK                            x       y       z     vdW  Elec       q    Type
REMARK                         _______ _______ _______ _____ _____    ______ ____
ROOT
ATOM      1  O   LIG    1       23.286 -29.437   9.161  0.00  0.00    -0.343 OA
ENDROOT
BRANCH   1   3
ATOM      2  C   LIG    1       22.541 -31.929   9.864  0.00  0.00    +0.188 C 
ATOM      3  C   LIG    1       22.548 -30.334  10.088  0.00  0.00    +0.157 C 
ATOM      4  C   LIG    1       22.847 -29.904  11.621  0.00  0.00    +0.028 C 
ATOM      5  C   LIG    1       24.328 -30.179  11.912  0.00  0.00    +0.012 C 
ATOM      6  C   LIG    1       25.411 -29.845  12.952  0.00  0.00    +0.019 C 
ATOM      7  C   LIG    1       25.355 -30.692  14.176  0.00  0.00    +0.010 C 
ATOM      8  C   LIG    1       26.940 -29.829  12.304  0.00  0.00    +0.140 C 
ATOM      9  C   LIG    1       27.396 -31.011  11.442  0.00  0.00    +0.004 C 
ATOM     10  C   LIG    1       27.857 -30.948  10.159  0.00  0.00    -0.002 C 
ATOM     11  C   LIG    1       27.834 -32.113   9.234  0.00  0.00    -0.004 C 
ATOM     12  C   LIG    1       27.749 -32.105   7.879  0.00  0.00    -0.023 C 
ATOM     13  C   LIG    1       27.302 -33.218   6.925  0.00  0.00    +0.071 C 
ATOM     14  C   LIG    1       26.001 -32.986   6.029  0.00  0.00    +0.177 C 
ATOM     15  C   LIG    1       26.119 -33.811   4.740  0.00  0.00    +0.052 C 
ATOM     16  O   LIG    1       24.822 -33.475   6.748  0.00  0.00    -0.461 OA
ATOM     17  C   LIG    1       23.550 -33.026   6.520  0.00  0.00    +0.311 C 
ATOM     18  O   LIG    1       23.204 -32.333   5.543  0.00  0.00    -0.251 OA
ATOM     19  C   LIG    1       22.590 -33.534   7.598  0.00  0.00    +0.168 C 
ATOM     20  C   LIG    1       21.832 -32.642   8.651  0.00  0.00    +0.218 C 
BRANCH   8  21
ATOM     21  O   LIG    1       27.907 -29.511  13.303  0.00  0.00    -0.388 OA
ATOM     22  H   LIG    1       28.246 -30.368  13.629  0.00  0.00    +0.210 HD
ENDBRANCH   8  21
BRANCH   2  24
ATOM     23  C   LIG    1       23.567 -33.395  11.419  0.00  0.00    +0.194 C 
ATOM     24  O   LIG    1       23.700 -32.651  10.251  0.00  0.00    -0.373 OA
ENDBRANCH   2  24
BRANCH   4  25
ATOM     25  C   LIG    1       21.921 -30.281  12.751  0.00  0.00    +0.077 C 
BRANCH  25  26
ATOM     26  C   LIG    1       21.073 -29.164  13.334  0.00  0.00    +0.223 C 
ATOM     27  O   LIG    1       19.903 -29.166  13.455  0.00  0.00    -0.301 OA
ENDBRANCH  25  26
ENDBRANCH   4  25
BRANCH  20  28
ATOM     28  O   LIG    1       21.053 -33.762   9.262  0.00  0.00    -0.458 OA
BRANCH  28  29
ATOM     29  C   LIG    1       19.868 -33.547   9.853  0.00  0.00    +0.304 C 
ATOM     30  O   LIG    1       19.688 -33.087  11.003  0.00  0.00    -0.251 OA
ATOM     31  C   LIG    1       18.796 -33.739   8.849  0.00  0.00    +0.136 C 
ENDBRANCH  28  29
ENDBRANCH  20  28
ENDBRANCH   1   3
BRANCH   1  32
ATOM     32  C   LIG    1       24.557 -29.821   8.625  0.00  0.00    +0.281 C 
ATOM     33  C   LIG    1       24.758 -29.670   7.151  0.00  0.00    +0.190 C 
ATOM     34  C   LIG    1       25.406 -28.308   6.791  0.00  0.00    +0.121 C 
ATOM     35  C   LIG    1       25.520 -27.279   8.040  0.00  0.00    +0.169 C 
ATOM     36  C   LIG    1       26.226 -28.054   9.120  0.00  0.00    +0.149 C 
ATOM     37  C   LIG    1       26.318 -27.416  10.532  0.00  0.00    +0.040 C 
ATOM     38  O   LIG    1       25.792 -29.404   9.162  0.00  0.00    -0.343 OA
BRANCH  34  39
ATOM     39  N   LIG    1       24.790 -27.874   5.519  0.00  0.00    -0.301 NA
ATOM     40  C   LIG    1       24.416 -29.037   4.719  0.00  0.00    +0.105 C 
ATOM     41  C   LIG    1       25.702 -27.024   4.711  0.00  0.00    +0.105 C 
ENDBRANCH  34  39
BRANCH  33  42
ATOM     42  O   LIG    1       25.695 -30.632   6.661  0.00  0.00    -0.385 OA
ATOM     43  H   LIG    1       26.451 -30.621   7.275  0.00  0.00    +0.210 HD
ENDBRANCH  33  42
BRANCH  35  44
ATOM     44  O   LIG    1       26.332 -26.114   7.745  0.00  0.00    -0.344 OA
BRANCH  44  45
ATOM     45  C   LIG    1       25.686 -24.904   7.268  0.00  0.00    +0.254 C 
ATOM     46  O   LIG    1       26.270 -24.435   6.066  0.00  0.00    -0.344 OA
ATOM     47  C   LIG    1       25.887 -23.130   5.594  0.00  0.00    +0.162 C 
ATOM     48  C   LIG    1       24.545 -23.160   4.849  0.00  0.00    +0.042 C 
ATOM     49  C   LIG    1       25.993 -22.022   6.689  0.00  0.00    +0.236 C 
ATOM     50  C   LIG    1       25.252 -22.466   7.981  0.00  0.00    +0.107 C 
ATOM     51  C   LIG    1       23.724 -22.258   7.889  0.00  0.00    +0.045 C 
ATOM     52  C   LIG    1       25.647 -23.892   8.395  0.00  0.00    +0.099 C 
BRANCH  50  53
ATOM     53  O   LIG    1       25.528 -21.567   9.053  0.00  0.00    -0.385 OA
ATOM     54  H   LIG    1       25.135 -20.699   8.860  0.00  0.00    +0.210 HD
ENDBRANCH  50  53
BRANCH  49  55
ATOM     55  O   LIG    1       27.438 -21.729   6.816  0.00  0.00    -0.456 OA
BRANCH  55  56
ATOM     56  C   LIG    1       27.982 -20.512   6.526  0.00  0.00    +0.308 C 
ATOM     57  O   LIG    1       28.083 -20.017   5.412  0.00  0.00    -0.251 OA
BRANCH  56  58
ATOM     58  C   LIG    1       28.321 -19.709   7.770  0.00  0.00    +0.123 C 
BRANCH  58  59
ATOM     59  C   LIG    1       29.593 -18.855   7.657  0.00  0.00    -0.007 C 
ATOM     60  C   LIG    1       30.777 -19.721   7.201  0.00  0.00    +0.007 C 
ATOM     61  C   LIG    1       29.937 -18.175   8.986  0.00  0.00    +0.007 C 
ENDBRANCH  58  59
ENDBRANCH  56  58
ENDBRANCH  55  56
ENDBRANCH  49  55
ENDBRANCH  44  45
ENDBRANCH  35  44
ENDBRANCH   1  32
TORSDOF 17
ENDMDL
MODEL 8
REMARK VINA RESULT:      -0.2      2.014      3.965
REMARK  Name = *****
REMARK                            x       y       z     vdW  Elec       q    Type
REMARK                         _______ _______ _______ _____ _____    ______ ____
ROOT
ATOM      1  O   LIG    1       26.187 -28.879   9.042  0.00  0.00    -0.343 OA
ENDROOT
BRANCH   1   3
ATOM      2  C   LIG    1       27.123 -29.991  11.311  0.00  0.00    +0.188 C 
ATOM      3  C   LIG    1       26.883 -30.006   9.718  0.00  0.00    +0.157 C 
ATOM      4  C   LIG    1       26.302 -31.415   9.171  0.00  0.00    +0.028 C 
ATOM      5  C   LIG    1       24.841 -31.536   9.622  0.00  0.00    +0.012 C 
ATOM      6  C   LIG    1       23.579 -32.367   9.335  0.00  0.00    +0.019 C 
ATOM      7  C   LIG    1       23.555 -33.686  10.027  0.00  0.00    +0.010 C 
ATOM      8  C   LIG    1       22.177 -31.521   9.609  0.00  0.00    +0.140 C 
ATOM      9  C   LIG    1       22.009 -30.765  10.930  0.00  0.00    +0.004 C 
ATOM     10  C   LIG    1       21.744 -29.434  11.075  0.00  0.00    -0.002 C 
ATOM     11  C   LIG    1       22.054 -28.678  12.318  0.00  0.00    -0.004 C 
ATOM     12  C   LIG    1       22.342 -27.357  12.446  0.00  0.00    -0.023 C 
ATOM     13  C   LIG    1       23.065 -26.624  13.580  0.00  0.00    +0.071 C 
ATOM     14  C   LIG    1       24.447 -25.890  13.263  0.00  0.00    +0.177 C 
ATOM     15  C   LIG    1       24.631 -24.714  14.232  0.00  0.00    +0.052 C 
ATOM     16  O   LIG    1       25.556 -26.819  13.497  0.00  0.00    -0.461 OA
ATOM     17  C   LIG    1       26.781 -26.710  12.898  0.00  0.00    +0.311 C 
ATOM     18  O   LIG    1       27.181 -25.708  12.273  0.00  0.00    -0.251 OA
ATOM     19  C   LIG    1       27.622 -27.964  13.143  0.00  0.00    +0.168 C 
ATOM     20  C   LIG    1       28.093 -28.987  12.042  0.00  0.00    +0.218 C 
BRANCH   8  21
ATOM     21  O   LIG    1       21.037 -32.331   9.326  0.00  0.00    -0.388 OA
ATOM     22  H   LIG    1       20.583 -31.901   8.575  0.00  0.00    +0.210 HD
ENDBRANCH   8  21
BRANCH   2  24
ATOM     23  C   LIG    1       26.181 -31.444  12.929  0.00  0.00    +0.194 C 
ATOM     24  O   LIG    1       26.020 -30.307  12.145  0.00  0.00    -0.373 OA
ENDBRANCH   2  24
BRANCH   4  25
ATOM     25  C   LIG    1       27.085 -32.699   9.286  0.00  0.00    +0.077 C 
BRANCH  25  26
ATOM     26  C   LIG    1       27.040 -33.631   8.087  0.00  0.00    +0.223 C 
ATOM     27  O   LIG    1       26.201 -33.668   7.263  0.00  0.00    -0.301 OA
ENDBRANCH  25  26
ENDBRANCH   4  25
BRANCH  20  28
ATOM     28  O   LIG    1       28.905 -29.837  12.966  0.00  0.00    -0.458 OA
BRANCH  28  29
ATOM     29  C   LIG    1       30.228 -29.659  13.097  0.00  0.00    +0.304 C 
ATOM     30  O   LIG    1       31.029 -29.370  12.180  0.00  0.00    -0.251 OA
ATOM     31  C   LIG    1       30.564 -29.647  14.540  0.00  0.00    +0.136 C 
ENDBRANCH  28  29
ENDBRANCH  20  28
ENDBRANCH   1   3
BRANCH   1  32
ATOM     32  C   LIG    1       26.593 -28.442   7.740  0.00  0.00    +0.281 C 
ATOM     33  C   LIG    1       25.797 -28.925   6.571  0.00  0.00    +0.190 C 
ATOM     34  C   LIG    1       24.678 -27.926   6.178  0.00  0.00    +0.121 C 
ATOM     35  C   LIG    1       24.478 -26.709   7.232  0.00  0.00    +0.169 C 
ATOM     36  C   LIG    1       25.846 -26.102   7.390  0.00  0.00    +0.149 C 
ATOM     37  C   LIG    1       26.043 -25.028   8.494  0.00  0.00    +0.040 C 
ATOM     38  O   LIG    1       26.859 -27.095   7.414  0.00  0.00    -0.343 OA
BRANCH  34  39
ATOM     39  N   LIG    1       23.521 -28.741   5.749  0.00  0.00    -0.301 NA
ATOM     40  C   LIG    1       23.611 -30.081   6.322  0.00  0.00    +0.105 C 
ATOM     41  C   LIG    1       23.437 -28.867   4.271  0.00  0.00    +0.105 C 
ENDBRANCH  34  39
BRANCH  33  42
ATOM     42  O   LIG    1       26.609 -29.003   5.396  0.00  0.00    -0.385 OA
ATOM     43  H   LIG    1       27.332 -29.624   5.599  0.00  0.00    +0.210 HD
ENDBRANCH  33  42
BRANCH  35  44
ATOM     44  O   LIG    1       23.599 -25.667   6.737  0.00  0.00    -0.344 OA
BRANCH  44  45
ATOM     45  C   LIG    1       24.047 -24.286   6.774  0.00  0.00    +0.254 C 
ATOM     46  O   LIG    1       23.137 -23.456   7.473  0.00  0.00    -0.344 OA
ATOM     47  C   LIG    1       23.331 -22.032   7.403  0.00  0.00    +0.162 C 
ATOM     48  C   LIG    1       24.412 -21.551   8.379  0.00  0.00    +0.042 C 
ATOM     49  C   LIG    1       23.499 -21.504   5.943  0.00  0.00    +0.236 C 
ATOM     50  C   LIG    1       24.585 -22.325   5.192  0.00  0.00    +0.107 C 
ATOM     51  C   LIG    1       26.019 -21.871   5.543  0.00  0.00    +0.045 C 
ATOM     52  C   LIG    1       24.366 -23.836   5.363  0.00  0.00    +0.099 C 
BRANCH  50  53
ATOM     53  O   LIG    1       24.589 -22.000   3.803  0.00  0.00    -0.385 OA
ATOM     54  H   LIG    1       25.067 -21.164   3.665  0.00  0.00    +0.210 HD
ENDBRANCH  50  53
BRANCH  49  55
ATOM     55  O   LIG    1       22.138 -21.509   5.362  0.00  0.00    -0.456 OA
BRANCH  55  56
ATOM     56  C   LIG    1       21.595 -20.435   4.721  0.00  0.00    +0.308 C 
ATOM     57  O   LIG    1       20.629 -20.460   3.970  0.00  0.00    -0.251 OA
BRANCH  56  58
ATOM     58  C   LIG    1       22.209 -19.117   5.158  0.00  0.00    +0.123 C 
BRANCH  58  59
ATOM     59  C   LIG    1       22.726 -18.235   4.010  0.00  0.00    -0.007 C 
ATOM     60  C   LIG    1       24.134 -18.681   3.590  0.00  0.00    +0.007 C 
ATOM     61  C   LIG    1       22.752 -16.755   4.403  0.00  0.00    +0.007 C 
ENDBRANCH  58  59
ENDBRANCH  56  58
ENDBRANCH  55  56
ENDBRANCH  49  55
ENDBRANCH  44  45
ENDBRANCH  35  44
ENDBRANCH   1  32
TORSDOF 17
ENDMDL
MODEL 9
REMARK VINA RESULT:      -0.1      2.337      4.614
REMARK  Name = *****
REMARK                            x       y       z     vdW  Elec       q    Type
REMARK                         _______ _______ _______ _____ _____    ______ ____
ROOT
ATOM      1  O   LIG    1       25.702 -28.509   8.322  0.00  0.00    -0.343 OA
ENDROOT
BRANCH   1   3
ATOM      2  C   LIG    1       27.089 -29.774  10.256  0.00  0.00    +0.188 C 
ATOM      3  C   LIG    1       26.659 -29.576   8.716  0.00  0.00    +0.157 C 
ATOM      4  C   LIG    1       26.267 -30.963   7.978  0.00  0.00    +0.028 C 
ATOM      5  C   LIG    1       24.915 -31.432   8.532  0.00  0.00    +0.012 C 
ATOM      6  C   LIG    1       23.790 -32.431   8.217  0.00  0.00    +0.019 C 
ATOM      7  C   LIG    1       24.078 -33.825   8.657  0.00  0.00    +0.010 C 
ATOM      8  C   LIG    1       22.307 -31.924   8.767  0.00  0.00    +0.140 C 
ATOM      9  C   LIG    1       22.177 -31.437  10.214  0.00  0.00    +0.004 C 
ATOM     10  C   LIG    1       21.707 -30.222  10.621  0.00  0.00    -0.002 C 
ATOM     11  C   LIG    1       22.033 -29.632  11.947  0.00  0.00    -0.004 C 
ATOM     12  C   LIG    1       22.103 -28.319  12.284  0.00  0.00    -0.023 C 
ATOM     13  C   LIG    1       22.824 -27.654  13.462  0.00  0.00    +0.071 C 
ATOM     14  C   LIG    1       24.009 -26.628  13.157  0.00  0.00    +0.177 C 
ATOM     15  C   LIG    1       24.107 -25.611  14.302  0.00  0.00    +0.052 C 
ATOM     16  O   LIG    1       25.281 -27.354  13.116  0.00  0.00    -0.461 OA
ATOM     17  C   LIG    1       26.386 -26.918  12.437  0.00  0.00    +0.311 C 
ATOM     18  O   LIG    1       26.527 -25.771  11.970  0.00  0.00    -0.251 OA
ATOM     19  C   LIG    1       27.454 -28.011  12.372  0.00  0.00    +0.168 C 
ATOM     20  C   LIG    1       27.954 -28.734  11.065  0.00  0.00    +0.218 C 
BRANCH   8  21
ATOM     21  O   LIG    1       21.298 -32.880   8.447  0.00  0.00    -0.388 OA
ATOM     22  H   LIG    1       20.779 -32.488   7.718  0.00  0.00    +0.210 HD
ENDBRANCH   8  21
BRANCH   2  24
ATOM     23  C   LIG    1       26.396 -31.784  11.304  0.00  0.00    +0.194 C 
ATOM     24  O   LIG    1       26.167 -30.424  11.117  0.00  0.00    -0.373 OA
ENDBRANCH   2  24
BRANCH   4  25
ATOM     25  C   LIG    1       27.268 -32.076   7.786  0.00  0.00    +0.077 C 
BRANCH  25  26
ATOM     26  C   LIG    1       27.256 -32.772   6.436  0.00  0.00    +0.223 C 
ATOM     27  O   LIG    1       26.549 -32.525   5.529  0.00  0.00    -0.301 OA
ENDBRANCH  25  26
ENDBRANCH   4  25
BRANCH  20  28
ATOM     28  O   LIG    1       29.008 -29.551  11.741  0.00  0.00    -0.458 OA
BRANCH  28  29
ATOM     29  C   LIG    1       29.001 -29.738  13.070  0.00  0.00    +0.304 C 
ATOM     30  O   LIG    1       28.064 -30.220  13.743  0.00  0.00    -0.251 OA
ATOM     31  C   LIG    1       30.364 -29.482  13.591  0.00  0.00    +0.136 C 
ENDBRANCH  28  29
ENDBRANCH  20  28
ENDBRANCH   1   3
BRANCH   1  32
ATOM     32  C   LIG    1       25.220 -28.416   6.977  0.00  0.00    +0.281 C 
ATOM     33  C   LIG    1       24.039 -27.536   6.727  0.00  0.00    +0.190 C 
ATOM     34  C   LIG    1       24.462 -26.103   6.308  0.00  0.00    +0.121 C 
ATOM     35  C   LIG    1       26.053 -25.817   6.442  0.00  0.00    +0.169 C 
ATOM     36  C   LIG    1       26.714 -26.927   5.671  0.00  0.00    +0.149 C 
ATOM     37  C   LIG    1       28.258 -27.061   5.769  0.00  0.00    +0.040 C 
ATOM     38  O   LIG    1       26.050 -28.166   5.864  0.00  0.00    -0.343 OA
BRANCH  34  39
ATOM     39  N   LIG    1       23.482 -25.182   6.921  0.00  0.00    -0.301 NA
ATOM     40  C   LIG    1       22.794 -24.417   5.885  0.00  0.00    +0.105 C 
ATOM     41  C   LIG    1       24.120 -24.225   7.863  0.00  0.00    +0.105 C 
ENDBRANCH  34  39
BRANCH  33  42
ATOM     42  O   LIG    1       23.278 -28.004   5.611  0.00  0.00    -0.385 OA
ATOM     43  H   LIG    1       23.342 -27.317   4.923  0.00  0.00    +0.210 HD
ENDBRANCH  33  42
BRANCH  35  44
ATOM     44  O   LIG    1       26.459 -24.566   5.832  0.00  0.00    -0.344 OA
BRANCH  44  45
ATOM     45  C   LIG    1       26.042 -23.314   6.438  0.00  0.00    +0.254 C 
ATOM     46  O   LIG    1       24.947 -22.736   5.750  0.00  0.00    -0.344 OA
ATOM     47  C   LIG    1       24.567 -21.392   6.096  0.00  0.00    +0.162 C 
ATOM     48  C   LIG    1       23.703 -21.347   7.364  0.00  0.00    +0.042 C 
ATOM     49  C   LIG    1       25.766 -20.392   6.095  0.00  0.00    +0.236 C 
ATOM     50  C   LIG    1       26.938 -20.954   6.949  0.00  0.00    +0.107 C 
ATOM     51  C   LIG    1       26.727 -20.733   8.464  0.00  0.00    +0.045 C 
ATOM     52  C   LIG    1       27.250 -22.413   6.585  0.00  0.00    +0.099 C 
BRANCH  50  53
ATOM     53  O   LIG    1       28.111 -20.160   6.777  0.00  0.00    -0.385 OA
ATOM     54  H   LIG    1       28.767 -20.656   6.259  0.00  0.00    +0.210 HD
ENDBRANCH  50  53
BRANCH  49  55
ATOM     55  O   LIG    1       26.051 -20.117   4.670  0.00  0.00    -0.456 OA
BRANCH  55  56
ATOM     56  C   LIG    1       25.447 -19.117   3.967  0.00  0.00    +0.308 C 
ATOM     57  O   LIG    1       25.984 -18.090   3.571  0.00  0.00    -0.251 OA
BRANCH  56  58
ATOM     58  C   LIG    1       24.029 -19.465   3.550  0.00  0.00    +0.123 C 
BRANCH  58  59
ATOM     59  C   LIG    1       22.946 -19.083   4.571  0.00  0.00    -0.007 C 
ATOM     60  C   LIG    1       21.812 -20.119   4.556  0.00  0.00    +0.007 C 
ATOM     61  C   LIG    1       22.373 -17.690   4.292  0.00  0.00    +0.007 C 
ENDBRANCH  58  59
ENDBRANCH  56  58
ENDBRANCH  55  56
ENDBRANCH  49  55
ENDBRANCH  44  45
ENDBRANCH  35  44
ENDBRANCH   1  32
TORSDOF 17
ENDMDL
