MODEL 1
REMARK VINA RESULT:      -6.9      0.000      0.000
REMARK  Name = *****
REMARK                            x       y       z     vdW  Elec       q    Type
REMARK                         _______ _______ _______ _____ _____    ______ ____
ROOT
ATOM      1  C   LIG    1       25.239 -29.154   5.188  0.00  0.00    +0.011 C 
ATOM      2  C   LIG    1       25.564 -29.691   6.575  0.00  0.00    +0.026 C 
ATOM      3  C   LIG    1       25.500 -31.224   6.766  0.00  0.00    +0.133 C 
ATOM      4  C   LIG    1       25.472 -31.327   8.340  0.00  0.00    +0.009 C 
ATOM      5  C   LIG    1       24.433 -30.241   8.714  0.00  0.00    +0.005 C 
ATOM      6  C   LIG    1       24.413 -29.752  10.179  0.00  0.00    +0.036 C 
ATOM      7  C   LIG    1       25.692 -30.045  10.995  0.00  0.00    +0.153 C 
ATOM      8  C   LIG    1       26.918 -29.953  10.075  0.00  0.00    +0.154 C 
ATOM      9  F   LIG    1       25.628 -31.370  11.379  0.00  0.00    -0.238 F 
ATOM     10  C   LIG    1       25.686 -29.202  12.338  0.00  0.00    +0.047 C 
ATOM     11  C   LIG    1       24.226 -29.056  12.821  0.00  0.00    -0.020 C 
ATOM     12  C   LIG    1       23.737 -27.936  13.383  0.00  0.00    +0.054 C 
ATOM     13  C   LIG    1       24.559 -26.716  13.489  0.00  0.00    +0.179 C 
ATOM     14  C   LIG    1       25.845 -26.708  12.762  0.00  0.00    +0.047 C 
ATOM     15  O   LIG    1       24.162 -25.724  14.094  0.00  0.00    -0.288 OA
ATOM     16  C   LIG    1       23.324 -30.209  12.471  0.00  0.00    +0.194 C 
ATOM     17  F   LIG    1       22.074 -30.054  12.995  0.00  0.00    -0.241 F 
ATOM     18  C   LIG    1       26.464 -29.951  13.449  0.00  0.00    +0.023 C 
ATOM     19  C   LIG    1       26.338 -27.830  12.216  0.00  0.00    -0.009 C 
ATOM     20  C   LIG    1       23.186 -30.313  10.945  0.00  0.00    +0.048 C 
ATOM     21  C   LIG    1       25.033 -32.733   8.802  0.00  0.00    +0.015 C 
ATOM     22  C   LIG    1       26.880 -31.024   8.966  0.00  0.00    +0.044 C 
ATOM     23  C   LIG    1       24.681 -29.103   7.689  0.00  0.00    +0.011 C 
ENDROOT
BRANCH   3  24
ATOM     24  O   LIG    1       26.692 -31.794   6.236  0.00  0.00    -0.380 OA
ATOM     25  H   LIG    1       27.344 -31.083   6.095  0.00  0.00    +0.211 HD
ENDBRANCH   3  24
BRANCH   3  26
ATOM     26  C   LIG    1       24.242 -31.827   6.051  0.00  0.00    +0.180 C 
ATOM     27  O   LIG    1       23.112 -31.346   6.170  0.00  0.00    -0.293 OA
BRANCH  26  28
ATOM     28  C   LIG    1       24.442 -33.027   5.154  0.00  0.00    +0.186 C 
ATOM     29 CL   LIG    1       22.856 -33.692   4.727  0.00  0.00    -0.117 Cl
ENDBRANCH  26  28
ENDBRANCH   3  26
BRANCH   8  30
ATOM     30  O   LIG    1       28.144 -30.109  10.790  0.00  0.00    -0.389 OA
ATOM     31  H   LIG    1       28.085 -30.941  11.296  0.00  0.00    +0.210 HD
ENDBRANCH   8  30
TORSDOF 4
ENDMDL
MODEL 2
REMARK VINA RESULT:      -6.7      1.149      1.270
REMARK  Name = *****
REMARK                            x       y       z     vdW  Elec       q    Type
REMARK                         _______ _______ _______ _____ _____    ______ ____
ROOT
ATOM      1  C   LIG    1       25.504 -29.222   5.348  0.00  0.00    +0.011 C 
ATOM      2  C   LIG    1       25.530 -29.828   6.745  0.00  0.00    +0.026 C 
ATOM      3  C   LIG    1       25.478 -31.371   6.839  0.00  0.00    +0.133 C 
ATOM      4  C   LIG    1       25.104 -31.563   8.359  0.00  0.00    +0.009 C 
ATOM      5  C   LIG    1       23.969 -30.524   8.544  0.00  0.00    +0.005 C 
ATOM      6  C   LIG    1       23.606 -30.119   9.989  0.00  0.00    +0.036 C 
ATOM      7  C   LIG    1       24.680 -30.428  11.056  0.00  0.00    +0.153 C 
ATOM      8  C   LIG    1       26.076 -30.257  10.442  0.00  0.00    +0.154 C 
ATOM      9  F   LIG    1       24.578 -31.773  11.349  0.00  0.00    -0.238 F 
ATOM     10  C   LIG    1       24.345 -29.663  12.404  0.00  0.00    +0.047 C 
ATOM     11  C   LIG    1       22.810 -29.578  12.553  0.00  0.00    -0.020 C 
ATOM     12  C   LIG    1       22.168 -28.503  13.046  0.00  0.00    +0.054 C 
ATOM     13  C   LIG    1       22.903 -27.272  13.395  0.00  0.00    +0.179 C 
ATOM     14  C   LIG    1       24.318 -27.194  12.977  0.00  0.00    +0.047 C 
ATOM     15  O   LIG    1       22.346 -26.325  13.944  0.00  0.00    -0.288 OA
ATOM     16  C   LIG    1       22.049 -30.730  11.952  0.00  0.00    +0.194 C 
ATOM     17  F   LIG    1       20.709 -30.633  12.189  0.00  0.00    -0.241 F 
ATOM     18  C   LIG    1       24.880 -30.455  13.623  0.00  0.00    +0.023 C 
ATOM     19  C   LIG    1       24.959 -28.271  12.500  0.00  0.00    -0.009 C 
ATOM     20  C   LIG    1       22.259 -30.750  10.431  0.00  0.00    +0.048 C 
ATOM     21  C   LIG    1       24.622 -33.002   8.640  0.00  0.00    +0.015 C 
ATOM     22  C   LIG    1       26.324 -31.264   9.300  0.00  0.00    +0.044 C 
ATOM     23  C   LIG    1       24.400 -29.325   7.659  0.00  0.00    +0.011 C 
ENDROOT
BRANCH   3  24
ATOM     24  O   LIG    1       26.778 -31.882   6.563  0.00  0.00    -0.380 OA
ATOM     25  H   LIG    1       27.439 -31.219   6.832  0.00  0.00    +0.211 HD
ENDBRANCH   3  24
BRANCH   3  26
ATOM     26  C   LIG    1       24.434 -31.961   5.830  0.00  0.00    +0.180 C 
ATOM     27  O   LIG    1       23.275 -31.545   5.750  0.00  0.00    -0.293 OA
BRANCH  26  28
ATOM     28  C   LIG    1       24.888 -33.062   4.900  0.00  0.00    +0.186 C 
ATOM     29 CL   LIG    1       25.550 -32.329   3.428  0.00  0.00    -0.117 Cl
ENDBRANCH  26  28
ENDBRANCH   3  26
BRANCH   8  30
ATOM     30  O   LIG    1       27.117 -30.424  11.405  0.00  0.00    -0.389 OA
ATOM     31  H   LIG    1       26.774 -30.113  12.264  0.00  0.00    +0.210 HD
ENDBRANCH   8  30
TORSDOF 4
ENDMDL
MODEL 3
REMARK VINA RESULT:      -6.0      2.120      2.674
REMARK  Name = *****
REMARK                            x       y       z     vdW  Elec       q    Type
REMARK                         _______ _______ _______ _____ _____    ______ ____
ROOT
ATOM      1  C   LIG    1       25.185 -29.678   6.513  0.00  0.00    +0.011 C 
ATOM      2  C   LIG    1       25.189 -29.874   8.023  0.00  0.00    +0.026 C 
ATOM      3  C   LIG    1       25.739 -31.219   8.553  0.00  0.00    +0.133 C 
ATOM      4  C   LIG    1       25.196 -31.199  10.034  0.00  0.00    +0.009 C 
ATOM      5  C   LIG    1       23.729 -30.743   9.831  0.00  0.00    +0.005 C 
ATOM      6  C   LIG    1       22.971 -30.216  11.070  0.00  0.00    +0.036 C 
ATOM      7  C   LIG    1       23.860 -29.774  12.254  0.00  0.00    +0.153 C 
ATOM      8  C   LIG    1       25.161 -29.161  11.717  0.00  0.00    +0.154 C 
ATOM      9  F   LIG    1       24.250 -30.923  12.913  0.00  0.00    -0.238 F 
ATOM     10  C   LIG    1       23.003 -28.943  13.298  0.00  0.00    +0.047 C 
ATOM     11  C   LIG    1       21.563 -29.501  13.306  0.00  0.00    -0.020 C 
ATOM     12  C   LIG    1       20.467 -28.730  13.423  0.00  0.00    +0.054 C 
ATOM     13  C   LIG    1       20.572 -27.258  13.454  0.00  0.00    +0.179 C 
ATOM     14  C   LIG    1       21.890 -26.672  13.133  0.00  0.00    +0.047 C 
ATOM     15  O   LIG    1       19.592 -26.548  13.667  0.00  0.00    -0.288 OA
ATOM     16  C   LIG    1       21.450 -30.973  13.010  0.00  0.00    +0.194 C 
ATOM     17  F   LIG    1       20.164 -31.415  13.113  0.00  0.00    -0.241 F 
ATOM     18  C   LIG    1       23.572 -29.121  14.727  0.00  0.00    +0.023 C 
ATOM     19  C   LIG    1       22.983 -27.443  13.033  0.00  0.00    -0.009 C 
ATOM     20  C   LIG    1       21.930 -31.249  11.577  0.00  0.00    +0.048 C 
ATOM     21  C   LIG    1       25.283 -32.598  10.682  0.00  0.00    +0.015 C 
ATOM     22  C   LIG    1       25.997 -30.193  10.934  0.00  0.00    +0.044 C 
ATOM     23  C   LIG    1       23.803 -29.715   8.672  0.00  0.00    +0.011 C 
ENDROOT
BRANCH   3  24
ATOM     24  O   LIG    1       27.162 -31.164   8.529  0.00  0.00    -0.380 OA
ATOM     25  H   LIG    1       27.466 -31.335   7.619  0.00  0.00    +0.211 HD
ENDBRANCH   3  24
BRANCH   3  26
ATOM     26  C   LIG    1       25.225 -32.418   7.685  0.00  0.00    +0.180 C 
ATOM     27  O   LIG    1       24.030 -32.593   7.432  0.00  0.00    -0.293 OA
BRANCH  26  28
ATOM     28  C   LIG    1       26.248 -33.372   7.113  0.00  0.00    +0.186 C 
ATOM     29 CL   LIG    1       26.768 -32.769   5.530  0.00  0.00    -0.117 Cl
ENDBRANCH  26  28
ENDBRANCH   3  26
BRANCH   8  30
ATOM     30  O   LIG    1       25.982 -28.634  12.759  0.00  0.00    -0.389 OA
ATOM     31  H   LIG    1       26.568 -29.353  13.063  0.00  0.00    +0.210 HD
ENDBRANCH   8  30
TORSDOF 4
ENDMDL
MODEL 4
REMARK VINA RESULT:      -5.7      1.937      2.592
REMARK  Name = *****
REMARK                            x       y       z     vdW  Elec       q    Type
REMARK                         _______ _______ _______ _____ _____    ______ ____
ROOT
ATOM      1  C   LIG    1       25.843 -31.186   7.447  0.00  0.00    +0.011 C 
ATOM      2  C   LIG    1       25.688 -31.100   8.959  0.00  0.00    +0.026 C 
ATOM      3  C   LIG    1       24.846 -32.203   9.641  0.00  0.00    +0.133 C 
ATOM      4  C   LIG    1       24.582 -31.547  11.051  0.00  0.00    +0.009 C 
ATOM      5  C   LIG    1       24.187 -30.100  10.663  0.00  0.00    +0.005 C 
ATOM      6  C   LIG    1       24.238 -29.028  11.773  0.00  0.00    +0.036 C 
ATOM      7  C   LIG    1       25.093 -29.391  13.008  0.00  0.00    +0.153 C 
ATOM      8  C   LIG    1       26.301 -30.229  12.567  0.00  0.00    +0.154 C 
ATOM      9  F   LIG    1       24.331 -30.239  13.787  0.00  0.00    -0.238 F 
ATOM     10  C   LIG    1       25.347 -28.099  13.893  0.00  0.00    +0.047 C 
ATOM     11  C   LIG    1       24.109 -27.182  13.792  0.00  0.00    -0.020 C 
ATOM     12  C   LIG    1       24.179 -25.839  13.736  0.00  0.00    +0.054 C 
ATOM     13  C   LIG    1       25.481 -25.148  13.670  0.00  0.00    +0.179 C 
ATOM     14  C   LIG    1       26.677 -25.988  13.447  0.00  0.00    +0.047 C 
ATOM     15  O   LIG    1       25.563 -23.924  13.727  0.00  0.00    -0.288 OA
ATOM     16  C   LIG    1       22.800 -27.900  13.593  0.00  0.00    +0.194 C 
ATOM     17  F   LIG    1       21.743 -27.040  13.593  0.00  0.00    -0.241 F 
ATOM     18  C   LIG    1       25.508 -28.489  15.384  0.00  0.00    +0.023 C 
ATOM     19  C   LIG    1       26.605 -27.326  13.519  0.00  0.00    -0.009 C 
ATOM     20  C   LIG    1       22.813 -28.632  12.243  0.00  0.00    +0.048 C 
ATOM     21  C   LIG    1       23.449 -32.275  11.806  0.00  0.00    +0.015 C 
ATOM     22  C   LIG    1       25.866 -31.576  11.954  0.00  0.00    +0.044 C 
ATOM     23  C   LIG    1       25.090 -29.769   9.446  0.00  0.00    +0.011 C 
ENDROOT
BRANCH   3  24
ATOM     24  O   LIG    1       25.648 -33.373   9.762  0.00  0.00    -0.380 OA
ATOM     25  H   LIG    1       25.474 -33.953   8.998  0.00  0.00    +0.211 HD
ENDBRANCH   3  24
BRANCH   3  26
ATOM     26  C   LIG    1       23.551 -32.514   8.814  0.00  0.00    +0.180 C 
ATOM     27  O   LIG    1       22.608 -31.722   8.729  0.00  0.00    -0.293 OA
BRANCH  26  28
ATOM     28  C   LIG    1       23.482 -33.825   8.067  0.00  0.00    +0.186 C 
ATOM     29 CL   LIG    1       23.088 -33.497   6.371  0.00  0.00    -0.117 Cl
ENDBRANCH  26  28
ENDBRANCH   3  26
BRANCH   8  30
ATOM     30  O   LIG    1       27.190 -30.508  13.648  0.00  0.00    -0.389 OA
ATOM     31  H   LIG    1       27.494 -31.431  13.547  0.00  0.00    +0.210 HD
ENDBRANCH   8  30
TORSDOF 4
ENDMDL
MODEL 5
REMARK VINA RESULT:      -5.5      3.429      6.339
REMARK  Name = *****
REMARK                            x       y       z     vdW  Elec       q    Type
REMARK                         _______ _______ _______ _____ _____    ______ ____
ROOT
ATOM      1  C   LIG    1       19.113 -31.306  11.672  0.00  0.00    +0.011 C 
ATOM      2  C   LIG    1       20.477 -31.653  11.091  0.00  0.00    +0.026 C 
ATOM      3  C   LIG    1       21.440 -32.457  11.996  0.00  0.00    +0.133 C 
ATOM      4  C   LIG    1       22.808 -32.241  11.240  0.00  0.00    +0.009 C 
ATOM      5  C   LIG    1       22.772 -30.721  10.939  0.00  0.00    +0.005 C 
ATOM      6  C   LIG    1       23.741 -30.187   9.863  0.00  0.00    +0.036 C 
ATOM      7  C   LIG    1       24.309 -31.249   8.894  0.00  0.00    +0.153 C 
ATOM      8  C   LIG    1       23.245 -32.325   8.634  0.00  0.00    +0.154 C 
ATOM      9  F   LIG    1       25.325 -31.901   9.564  0.00  0.00    -0.238 F 
ATOM     10  C   LIG    1       24.992 -30.541   7.650  0.00  0.00    +0.047 C 
ATOM     11  C   LIG    1       25.618 -29.211   8.123  0.00  0.00    -0.020 C 
ATOM     12  C   LIG    1       25.608 -28.082   7.392  0.00  0.00    +0.054 C 
ATOM     13  C   LIG    1       24.898 -28.018   6.101  0.00  0.00    +0.179 C 
ATOM     14  C   LIG    1       24.025 -29.160   5.758  0.00  0.00    +0.047 C 
ATOM     15  O   LIG    1       24.971 -27.030   5.375  0.00  0.00    -0.288 OA
ATOM     16  C   LIG    1       26.107 -29.211   9.548  0.00  0.00    +0.194 C 
ATOM     17  F   LIG    1       26.720 -28.037   9.874  0.00  0.00    -0.241 F 
ATOM     18  C   LIG    1       26.143 -31.417   7.095  0.00  0.00    +0.023 C 
ATOM     19  C   LIG    1       24.049 -30.290   6.480  0.00  0.00    -0.009 C 
ATOM     20  C   LIG    1       24.920 -29.406  10.501  0.00  0.00    +0.048 C 
ATOM     21  C   LIG    1       24.008 -32.627  12.131  0.00  0.00    +0.015 C 
ATOM     22  C   LIG    1       22.884 -33.092   9.923  0.00  0.00    +0.044 C 
ATOM     23  C   LIG    1       21.281 -30.428  10.625  0.00  0.00    +0.011 C 
ENDROOT
BRANCH   3  24
ATOM     24  O   LIG    1       21.049 -33.825  11.967  0.00  0.00    -0.380 OA
ATOM     25  H   LIG    1       20.314 -33.928  11.334  0.00  0.00    +0.211 HD
ENDBRANCH   3  24
BRANCH   3  26
ATOM     26  C   LIG    1       21.414 -31.914  13.466  0.00  0.00    +0.180 C 
ATOM     27  O   LIG    1       21.598 -30.725  13.741  0.00  0.00    -0.293 OA
BRANCH  26  28
ATOM     28  C   LIG    1       21.118 -32.891  14.580  0.00  0.00    +0.186 C 
ATOM     29 CL   LIG    1       19.381 -32.850  14.929  0.00  0.00    -0.117 Cl
ENDBRANCH  26  28
ENDBRANCH   3  26
BRANCH   8  30
ATOM     30  O   LIG    1       23.668 -33.281   7.662  0.00  0.00    -0.389 OA
ATOM     31  H   LIG    1       24.112 -32.793   6.943  0.00  0.00    +0.210 HD
ENDBRANCH   8  30
TORSDOF 4
ENDMDL
MODEL 6
REMARK VINA RESULT:      -5.5      3.027      6.999
REMARK  Name = *****
REMARK                            x       y       z     vdW  Elec       q    Type
REMARK                         _______ _______ _______ _____ _____    ______ ____
ROOT
ATOM      1  C   LIG    1       21.538 -30.168  13.676  0.00  0.00    +0.011 C 
ATOM      2  C   LIG    1       22.771 -30.426  12.819  0.00  0.00    +0.026 C 
ATOM      3  C   LIG    1       23.999 -29.520  13.069  0.00  0.00    +0.133 C 
ATOM      4  C   LIG    1       24.845 -29.802  11.768  0.00  0.00    +0.009 C 
ATOM      5  C   LIG    1       23.767 -29.720  10.659  0.00  0.00    +0.005 C 
ATOM      6  C   LIG    1       24.115 -30.330   9.284  0.00  0.00    +0.036 C 
ATOM      7  C   LIG    1       25.285 -31.339   9.281  0.00  0.00    +0.153 C 
ATOM      8  C   LIG    1       25.281 -32.131  10.596  0.00  0.00    +0.154 C 
ATOM      9  F   LIG    1       26.451 -30.600   9.310  0.00  0.00    -0.238 F 
ATOM     10  C   LIG    1       25.311 -32.139   7.913  0.00  0.00    +0.047 C 
ATOM     11  C   LIG    1       24.819 -31.204   6.786  0.00  0.00    -0.020 C 
ATOM     12  C   LIG    1       24.042 -31.611   5.767  0.00  0.00    +0.054 C 
ATOM     13  C   LIG    1       23.520 -32.991   5.711  0.00  0.00    +0.179 C 
ATOM     14  C   LIG    1       23.701 -33.825   6.917  0.00  0.00    +0.047 C 
ATOM     15  O   LIG    1       22.901 -33.405   4.735  0.00  0.00    -0.288 OA
ATOM     16  C   LIG    1       25.135 -29.746   6.989  0.00  0.00    +0.194 C 
ATOM     17  F   LIG    1       24.746 -28.989   5.923  0.00  0.00    -0.241 F 
ATOM     18  C   LIG    1       26.760 -32.559   7.560  0.00  0.00    +0.023 C 
ATOM     19  C   LIG    1       24.488 -33.422   7.926  0.00  0.00    -0.009 C 
ATOM     20  C   LIG    1       24.398 -29.226   8.231  0.00  0.00    +0.048 C 
ATOM     21  C   LIG    1       25.953 -28.743  11.579  0.00  0.00    +0.015 C 
ATOM     22  C   LIG    1       25.525 -31.216  11.814  0.00  0.00    +0.044 C 
ATOM     23  C   LIG    1       22.502 -30.343  11.307  0.00  0.00    +0.011 C 
ENDROOT
BRANCH   3  24
ATOM     24  O   LIG    1       24.674 -29.988  14.232  0.00  0.00    -0.380 OA
ATOM     25  H   LIG    1       25.628 -29.814  14.131  0.00  0.00    +0.211 HD
ENDBRANCH   3  24
BRANCH   3  26
ATOM     26  C   LIG    1       23.566 -28.025  13.255  0.00  0.00    +0.180 C 
ATOM     27  O   LIG    1       22.634 -27.518  12.624  0.00  0.00    -0.293 OA
BRANCH  26  28
ATOM     28  C   LIG    1       24.306 -27.192  14.275  0.00  0.00    +0.186 C 
ATOM     29 CL   LIG    1       24.509 -25.552  13.635  0.00  0.00    -0.117 Cl
ENDBRANCH  26  28
ENDBRANCH   3  26
BRANCH   8  30
ATOM     30  O   LIG    1       26.274 -33.156  10.615  0.00  0.00    -0.389 OA
ATOM     31  H   LIG    1       26.633 -33.233   9.710  0.00  0.00    +0.210 HD
ENDBRANCH   8  30
TORSDOF 4
ENDMDL
MODEL 7
REMARK VINA RESULT:      -5.3      3.141      7.094
REMARK  Name = *****
REMARK                            x       y       z     vdW  Elec       q    Type
REMARK                         _______ _______ _______ _____ _____    ______ ____
ROOT
ATOM      1  C   LIG    1       26.776 -26.684  12.456  0.00  0.00    +0.011 C 
ATOM      2  C   LIG    1       26.020 -27.923  11.995  0.00  0.00    +0.026 C 
ATOM      3  C   LIG    1       25.812 -29.045  13.038  0.00  0.00    +0.133 C 
ATOM      4  C   LIG    1       25.404 -30.249  12.102  0.00  0.00    +0.009 C 
ATOM      5  C   LIG    1       26.450 -30.139  10.965  0.00  0.00    +0.005 C 
ATOM      6  C   LIG    1       26.149 -30.888   9.648  0.00  0.00    +0.036 C 
ATOM      7  C   LIG    1       24.670 -31.282   9.431  0.00  0.00    +0.153 C 
ATOM      8  C   LIG    1       23.759 -30.202  10.034  0.00  0.00    +0.154 C 
ATOM      9  F   LIG    1       24.440 -32.412  10.191  0.00  0.00    -0.238 F 
ATOM     10  C   LIG    1       24.437 -31.717   7.924  0.00  0.00    +0.047 C 
ATOM     11  C   LIG    1       25.721 -32.402   7.406  0.00  0.00    -0.020 C 
ATOM     12  C   LIG    1       26.198 -32.244   6.158  0.00  0.00    +0.054 C 
ATOM     13  C   LIG    1       25.559 -31.308   5.213  0.00  0.00    +0.179 C 
ATOM     14  C   LIG    1       24.528 -30.402   5.759  0.00  0.00    +0.047 C 
ATOM     15  O   LIG    1       25.917 -31.234   4.041  0.00  0.00    -0.288 OA
ATOM     16  C   LIG    1       26.511 -33.144   8.452  0.00  0.00    +0.194 C 
ATOM     17  F   LIG    1       27.584 -33.791   7.914  0.00  0.00    -0.241 F 
ATOM     18  C   LIG    1       23.294 -32.757   7.833  0.00  0.00    +0.023 C 
ATOM     19  C   LIG    1       24.044 -30.572   6.999  0.00  0.00    -0.009 C 
ATOM     20  C   LIG    1       27.034 -32.154   9.503  0.00  0.00    +0.048 C 
ATOM     21  C   LIG    1       25.500 -31.597  12.849  0.00  0.00    +0.015 C 
ATOM     22  C   LIG    1       23.939 -30.092  11.561  0.00  0.00    +0.044 C 
ATOM     23  C   LIG    1       26.649 -28.613  10.772  0.00  0.00    +0.011 C 
ENDROOT
BRANCH   3  24
ATOM     24  O   LIG    1       24.736 -28.673  13.892  0.00  0.00    -0.380 OA
ATOM     25  H   LIG    1       24.174 -29.454  14.048  0.00  0.00    +0.211 HD
ENDBRANCH   3  24
BRANCH   3  26
ATOM     26  C   LIG    1       27.116 -29.283  13.875  0.00  0.00    +0.180 C 
ATOM     27  O   LIG    1       28.130 -29.798  13.398  0.00  0.00    -0.293 OA
BRANCH  26  28
ATOM     28  C   LIG    1       27.128 -28.827  15.316  0.00  0.00    +0.186 C 
ATOM     29 CL   LIG    1       28.338 -27.546  15.500  0.00  0.00    -0.117 Cl
ENDBRANCH  26  28
ENDBRANCH   3  26
BRANCH   8  30
ATOM     30  O   LIG    1       22.378 -30.451   9.773  0.00  0.00    -0.389 OA
ATOM     31  H   LIG    1       21.866 -30.064  10.509  0.00  0.00    +0.210 HD
ENDBRANCH   8  30
TORSDOF 4
ENDMDL
MODEL 8
REMARK VINA RESULT:      -4.9      2.468      3.006
REMARK  Name = *****
REMARK                            x       y       z     vdW  Elec       q    Type
REMARK                         _______ _______ _______ _____ _____    ______ ____
ROOT
ATOM      1  C   LIG    1       25.609 -28.483   7.166  0.00  0.00    +0.011 C 
ATOM      2  C   LIG    1       25.369 -29.600   8.173  0.00  0.00    +0.026 C 
ATOM      3  C   LIG    1       25.437 -31.050   7.641  0.00  0.00    +0.133 C 
ATOM      4  C   LIG    1       24.744 -31.833   8.822  0.00  0.00    +0.009 C 
ATOM      5  C   LIG    1       23.509 -30.944   9.115  0.00  0.00    +0.005 C 
ATOM      6  C   LIG    1       22.790 -31.150  10.466  0.00  0.00    +0.036 C 
ATOM      7  C   LIG    1       23.615 -31.872  11.555  0.00  0.00    +0.153 C 
ATOM      8  C   LIG    1       25.094 -31.482  11.419  0.00  0.00    +0.154 C 
ATOM      9  F   LIG    1       23.571 -33.221  11.263  0.00  0.00    -0.238 F 
ATOM     10  C   LIG    1       22.914 -31.709  12.968  0.00  0.00    +0.047 C 
ATOM     11  C   LIG    1       21.384 -31.676  12.757  0.00  0.00    -0.020 C 
ATOM     12  C   LIG    1       20.553 -30.884  13.457  0.00  0.00    +0.054 C 
ATOM     13  C   LIG    1       21.075 -29.903  14.428  0.00  0.00    +0.179 C 
ATOM     14  C   LIG    1       22.535 -29.677  14.435  0.00  0.00    +0.047 C 
ATOM     15  O   LIG    1       20.325 -29.251  15.150  0.00  0.00    -0.288 OA
ATOM     16  C   LIG    1       20.887 -32.483  11.586  0.00  0.00    +0.194 C 
ATOM     17  F   LIG    1       19.526 -32.477  11.506  0.00  0.00    -0.241 F 
ATOM     18  C   LIG    1       23.226 -32.929  13.869  0.00  0.00    +0.023 C 
ATOM     19  C   LIG    1       23.362 -30.479  13.748  0.00  0.00    -0.009 C 
ATOM     20  C   LIG    1       21.440 -31.893  10.281  0.00  0.00    +0.048 C 
ATOM     21  C   LIG    1       24.342 -33.259   8.390  0.00  0.00    +0.015 C 
ATOM     22  C   LIG    1       25.685 -31.948  10.073  0.00  0.00    +0.044 C 
ATOM     23  C   LIG    1       24.020 -29.495   8.904  0.00  0.00    +0.011 C 
ENDROOT
BRANCH   3  24
ATOM     24  O   LIG    1       26.805 -31.420   7.514  0.00  0.00    -0.380 OA
ATOM     25  H   LIG    1       26.950 -32.255   7.996  0.00  0.00    +0.211 HD
ENDBRANCH   3  24
BRANCH   3  26
ATOM     26  C   LIG    1       24.708 -31.176   6.259  0.00  0.00    +0.180 C 
ATOM     27  O   LIG    1       23.504 -30.946   6.117  0.00  0.00    -0.293 OA
BRANCH  26  28
ATOM     28  C   LIG    1       25.532 -31.562   5.053  0.00  0.00    +0.186 C 
ATOM     29 CL   LIG    1       25.537 -33.327   4.905  0.00  0.00    -0.117 Cl
ENDBRANCH  26  28
ENDBRANCH   3  26
BRANCH   8  30
ATOM     30  O   LIG    1       25.898 -32.031  12.463  0.00  0.00    -0.389 OA
ATOM     31  H   LIG    1       25.966 -32.992  12.306  0.00  0.00    +0.210 HD
ENDBRANCH   8  30
TORSDOF 4
ENDMDL
MODEL 9
REMARK VINA RESULT:      -4.8      3.127      7.053
REMARK  Name = *****
REMARK                            x       y       z     vdW  Elec       q    Type
REMARK                         _______ _______ _______ _____ _____    ______ ____
ROOT
ATOM      1  C   LIG    1       21.812 -28.922  14.501  0.00  0.00    +0.011 C 
ATOM      2  C   LIG    1       22.986 -29.511  13.728  0.00  0.00    +0.026 C 
ATOM      3  C   LIG    1       24.353 -28.807  13.889  0.00  0.00    +0.133 C 
ATOM      4  C   LIG    1       25.145 -29.415  12.668  0.00  0.00    +0.009 C 
ATOM      5  C   LIG    1       24.106 -29.304  11.524  0.00  0.00    +0.005 C 
ATOM      6  C   LIG    1       24.349 -30.155  10.258  0.00  0.00    +0.036 C 
ATOM      7  C   LIG    1       25.322 -31.343  10.433  0.00  0.00    +0.153 C 
ATOM      8  C   LIG    1       25.168 -31.927  11.845  0.00  0.00    +0.154 C 
ATOM      9  F   LIG    1       26.600 -30.823  10.396  0.00  0.00    -0.238 F 
ATOM     10  C   LIG    1       25.214 -32.322   9.191  0.00  0.00    +0.047 C 
ATOM     11  C   LIG    1       24.904 -31.485   7.930  0.00  0.00    -0.020 C 
ATOM     12  C   LIG    1       24.074 -31.891   6.953  0.00  0.00    +0.054 C 
ATOM     13  C   LIG    1       23.316 -33.152   7.073  0.00  0.00    +0.179 C 
ATOM     14  C   LIG    1       23.337 -33.824   8.388  0.00  0.00    +0.047 C 
ATOM     15  O   LIG    1       22.639 -33.586   6.145  0.00  0.00    -0.288 OA
ATOM     16  C   LIG    1       25.472 -30.091   7.938  0.00  0.00    +0.194 C 
ATOM     17  F   LIG    1       25.231 -29.437   6.766  0.00  0.00    -0.241 F 
ATOM     18  C   LIG    1       26.568 -33.035   8.946  0.00  0.00    +0.023 C 
ATOM     19  C   LIG    1       24.177 -33.426   9.355  0.00  0.00    -0.009 C 
ATOM     20  C   LIG    1       24.831 -29.278   9.072  0.00  0.00    +0.048 C 
ATOM     21  C   LIG    1       26.424 -28.603  12.369  0.00  0.00    +0.015 C 
ATOM     22  C   LIG    1       25.563 -30.905  12.930  0.00  0.00    +0.044 C 
ATOM     23  C   LIG    1       22.746 -29.598  12.211  0.00  0.00    +0.011 C 
ENDROOT
BRANCH   3  24
ATOM     24  O   LIG    1       24.927 -29.215  15.126  0.00  0.00    -0.380 OA
ATOM     25  H   LIG    1       25.586 -29.912  14.952  0.00  0.00    +0.211 HD
ENDBRANCH   3  24
BRANCH   3  26
ATOM     26  C   LIG    1       24.191 -27.248  13.851  0.00  0.00    +0.180 C 
ATOM     27  O   LIG    1       23.327 -26.684  13.175  0.00  0.00    -0.293 OA
BRANCH  26  28
ATOM     28  C   LIG    1       25.117 -26.417  14.708  0.00  0.00    +0.186 C 
ATOM     29 CL   LIG    1       25.560 -24.952  13.816  0.00  0.00    -0.117 Cl
ENDBRANCH  26  28
ENDBRANCH   3  26
BRANCH   8  30
ATOM     30  O   LIG    1       25.964 -33.097  12.037  0.00  0.00    -0.389 OA
ATOM     31  H   LIG    1       26.259 -33.102  12.967  0.00  0.00    +0.210 HD
ENDBRANCH   8  30
TORSDOF 4
ENDMDL
