MODEL 1
REMARK VINA RESULT:      -4.3      0.000      0.000
REMARK  Name = *****
REMARK                            x       y       z     vdW  Elec       q    Type
REMARK                         _______ _______ _______ _____ _____    ______ ____
ROOT
ATOM      1  O   LIG    1       23.633 -17.740   4.493  0.00  0.00    -0.458 OA
ENDROOT
BRANCH   1   2
ATOM      2  C   LIG    1       24.097 -16.696   3.628  0.00  0.00    +0.180 C 
ATOM      3  C   LIG    1       23.606 -15.235   4.265  0.00  0.00    +0.063 C 
ATOM      4  C   LIG    1       24.567 -14.208   3.705  0.00  0.00    +0.061 C 
ATOM      5  N   LIG    1       25.707 -14.934   4.200  0.00  0.00    -0.289 NA
ATOM      6  C   LIG    1       26.218 -15.467   2.966  0.00  0.00    +0.061 C 
ATOM      7  C   LIG    1       27.237 -14.416   2.549  0.00  0.00    +0.030 C 
ATOM      8  C   LIG    1       26.723 -12.982   3.157  0.00  0.00    +0.060 C 
ATOM      9  C   LIG    1       27.245 -13.127   4.560  0.00  0.00    +0.150 C 
ATOM     10  O   LIG    1       28.054 -12.379   5.090  0.00  0.00    -0.296 OA
ATOM     11  C   LIG    1       26.613 -14.339   5.203  0.00  0.00    +0.159 C 
ATOM     12  C   LIG    1       25.129 -12.811   3.500  0.00  0.00    +0.030 C 
ATOM     13  C   LIG    1       25.736 -16.863   3.312  0.00  0.00    +0.063 C 
ENDBRANCH   1   2
BRANCH   1  15
ATOM     14  O   LIG    1       23.481 -19.313   2.833  0.00  0.00    -0.245 OA
ATOM     15  C   LIG    1       23.733 -19.006   3.994  0.00  0.00    +0.342 C 
BRANCH  15  16
ATOM     16  C   LIG    1       24.209 -19.955   4.990  0.00  0.00    +0.084 C 
ATOM     17  C   LIG    1       25.564 -20.164   5.410  0.00  0.00    +0.014 C 
ATOM     18  C   LIG    1       25.550 -21.142   6.405  0.00  0.00    +0.047 C 
ATOM     19  C   LIG    1       26.709 -21.572   7.062  0.00  0.00    +0.026 C 
ATOM     20  C   LIG    1       27.922 -20.979   6.694  0.00  0.00    +0.002 C 
ATOM     21  C   LIG    1       27.971 -20.000   5.705  0.00  0.00    +0.001 C 
ATOM     22  N   LIG    1       24.243 -21.535   6.568  0.00  0.00    -0.360 NA
ATOM     23  H   LIG    1       23.936 -22.238   7.225  0.00  0.00    +0.165 HD
ATOM     24  C   LIG    1       26.802 -19.586   5.056  0.00  0.00    +0.011 C 
ATOM     25  C   LIG    1       23.426 -20.823   5.733  0.00  0.00    +0.098 C 
ENDBRANCH  15  16
ENDBRANCH   1  15
TORSDOF 3
ENDMDL
MODEL 2
REMARK VINA RESULT:      -3.9      1.400      2.158
REMARK  Name = *****
REMARK                            x       y       z     vdW  Elec       q    Type
REMARK                         _______ _______ _______ _____ _____    ______ ____
ROOT
ATOM      1  O   LIG    1       23.804 -18.130   3.466  0.00  0.00    -0.458 OA
ENDROOT
BRANCH   1   2
ATOM      2  C   LIG    1       24.349 -16.988   4.138  0.00  0.00    +0.180 C 
ATOM      3  C   LIG    1       25.727 -16.514   3.326  0.00  0.00    +0.063 C 
ATOM      4  C   LIG    1       25.912 -15.051   3.668  0.00  0.00    +0.061 C 
ATOM      5  N   LIG    1       24.585 -14.726   3.214  0.00  0.00    -0.289 NA
ATOM      6  C   LIG    1       23.936 -14.506   4.477  0.00  0.00    +0.061 C 
ATOM      7  C   LIG    1       24.092 -13.004   4.671  0.00  0.00    +0.030 C 
ATOM      8  C   LIG    1       25.467 -12.560   3.893  0.00  0.00    +0.060 C 
ATOM      9  C   LIG    1       24.918 -12.460   2.497  0.00  0.00    +0.150 C 
ATOM     10  O   LIG    1       24.917 -11.447   1.812  0.00  0.00    -0.296 OA
ATOM     11  C   LIG    1       24.373 -13.805   2.079  0.00  0.00    +0.159 C 
ATOM     12  C   LIG    1       26.613 -13.703   3.631  0.00  0.00    +0.030 C 
ATOM     13  C   LIG    1       23.174 -15.813   4.371  0.00  0.00    +0.063 C 
ENDBRANCH   1   2
BRANCH   1  15
ATOM     14  O   LIG    1       21.615 -18.622   3.931  0.00  0.00    -0.245 OA
ATOM     15  C   LIG    1       22.813 -18.789   4.134  0.00  0.00    +0.342 C 
BRANCH  15  16
ATOM     16  C   LIG    1       23.339 -19.746   5.096  0.00  0.00    +0.084 C 
ATOM     17  C   LIG    1       24.715 -20.058   5.344  0.00  0.00    +0.014 C 
ATOM     18  C   LIG    1       24.755 -21.003   6.371  0.00  0.00    +0.047 C 
ATOM     19  C   LIG    1       25.952 -21.511   6.888  0.00  0.00    +0.026 C 
ATOM     20  C   LIG    1       27.149 -21.035   6.343  0.00  0.00    +0.002 C 
ATOM     21  C   LIG    1       27.145 -20.093   5.319  0.00  0.00    +0.001 C 
ATOM     22  N   LIG    1       23.453 -21.278   6.718  0.00  0.00    -0.360 NA
ATOM     23  H   LIG    1       23.180 -21.933   7.437  0.00  0.00    +0.165 HD
ATOM     24  C   LIG    1       25.939 -19.599   4.810  0.00  0.00    +0.011 C 
ATOM     25  C   LIG    1       22.593 -20.523   5.969  0.00  0.00    +0.098 C 
ENDBRANCH  15  16
ENDBRANCH   1  15
TORSDOF 3
ENDMDL
MODEL 3
REMARK VINA RESULT:      -3.7      1.628      2.749
REMARK  Name = *****
REMARK                            x       y       z     vdW  Elec       q    Type
REMARK                         _______ _______ _______ _____ _____    ______ ____
ROOT
ATOM      1  O   LIG    1       26.789 -17.659   3.784  0.00  0.00    -0.458 OA
ENDROOT
BRANCH   1   2
ATOM      2  C   LIG    1       26.186 -16.546   3.112  0.00  0.00    +0.180 C 
ATOM      3  C   LIG    1       24.625 -16.380   3.677  0.00  0.00    +0.063 C 
ATOM      4  C   LIG    1       24.257 -14.934   3.423  0.00  0.00    +0.061 C 
ATOM      5  N   LIG    1       25.407 -14.463   4.150  0.00  0.00    -0.289 NA
ATOM      6  C   LIG    1       26.224 -14.008   3.058  0.00  0.00    +0.061 C 
ATOM      7  C   LIG    1       25.851 -12.535   2.958  0.00  0.00    +0.030 C 
ATOM      8  C   LIG    1       24.304 -12.395   3.488  0.00  0.00    +0.060 C 
ATOM      9  C   LIG    1       24.570 -12.366   4.967  0.00  0.00    +0.150 C 
ATOM     10  O   LIG    1       24.277 -11.447   5.717  0.00  0.00    -0.296 OA
ATOM     11  C   LIG    1       25.254 -13.650   5.375  0.00  0.00    +0.159 C 
ATOM     12  C   LIG    1       23.342 -13.720   3.431  0.00  0.00    +0.030 C 
ATOM     13  C   LIG    1       27.165 -15.187   3.206  0.00  0.00    +0.063 C 
ENDBRANCH   1   2
BRANCH   1  15
ATOM     14  O   LIG    1       26.000 -19.287   2.377  0.00  0.00    -0.245 OA
ATOM     15  C   LIG    1       26.243 -18.879   3.508  0.00  0.00    +0.342 C 
BRANCH  15  16
ATOM     16  C   LIG    1       26.012 -19.664   4.712  0.00  0.00    +0.084 C 
ATOM     17  C   LIG    1       24.762 -20.184   5.180  0.00  0.00    +0.014 C 
ATOM     18  C   LIG    1       25.016 -20.901   6.351  0.00  0.00    +0.047 C 
ATOM     19  C   LIG    1       24.014 -21.571   7.062  0.00  0.00    +0.026 C 
ATOM     20  C   LIG    1       22.710 -21.513   6.558  0.00  0.00    +0.002 C 
ATOM     21  C   LIG    1       22.422 -20.808   5.393  0.00  0.00    +0.001 C 
ATOM     22  N   LIG    1       26.363 -20.799   6.603  0.00  0.00    -0.360 NA
ATOM     23  H   LIG    1       26.830 -21.221   7.394  0.00  0.00    +0.165 HD
ATOM     24  C   LIG    1       23.436 -20.139   4.697  0.00  0.00    +0.011 C 
ATOM     25  C   LIG    1       26.976 -20.069   5.622  0.00  0.00    +0.098 C 
ENDBRANCH  15  16
ENDBRANCH   1  15
TORSDOF 3
ENDMDL
