MODEL 1
REMARK VINA RESULT:      -4.4      0.000      0.000
REMARK  Name = *****
REMARK                            x       y       z     vdW  Elec       q    Type
REMARK                         _______ _______ _______ _____ _____    ______ ____
ROOT
ATOM      1  C   LIG    1       25.766 -20.467   5.382  0.00  0.00    +0.226 C 
ATOM      2  N   LIG    1       27.020 -20.049   4.978  0.00  0.00    -0.304 N 
ATOM      3  H   LIG    1       27.140 -19.682   4.038  0.00  0.00    +0.149 HD
ATOM      4  O   LIG    1       25.578 -21.011   6.465  0.00  0.00    -0.275 OA
ENDROOT
BRANCH   1   6
ATOM      5  C   LIG    1       24.921 -18.928   3.580  0.00  0.00    +0.028 C 
ATOM      6  C   LIG    1       24.659 -20.206   4.361  0.00  0.00    +0.126 C 
BRANCH   6   7
ATOM      7  S   LIG    1       23.055 -20.107   5.241  0.00  0.00    -0.166 S 
ATOM      8  H   LIG    1       22.963 -21.411   5.551  0.00  0.00    +0.102 HD
ENDBRANCH   6   7
ENDBRANCH   1   6
BRANCH   2   9
ATOM      9  C   LIG    1       28.178 -20.191   5.856  0.00  0.00    +0.224 C 
BRANCH   9  10
ATOM     10  C   LIG    1       28.988 -18.906   5.964  0.00  0.00    +0.322 C 
ATOM     11  O   LIG    1       29.475 -18.499   7.015  0.00  0.00    -0.249 OA
BRANCH  10  12
ATOM     12  O   LIG    1       29.082 -18.204   4.811  0.00  0.00    -0.479 OA
ATOM     13  H   LIG    1       29.527 -18.731   4.119  0.00  0.00    +0.295 HD
ENDBRANCH  10  12
ENDBRANCH   9  10
ENDBRANCH   2   9
TORSDOF 5
ENDMDL
MODEL 2
REMARK VINA RESULT:      -4.2      6.677      7.145
REMARK  Name = *****
REMARK                            x       y       z     vdW  Elec       q    Type
REMARK                         _______ _______ _______ _____ _____    ______ ____
ROOT
ATOM      1  C   LIG    1       25.616 -13.359   2.800  0.00  0.00    +0.226 C 
ATOM      2  N   LIG    1       26.217 -13.361   4.045  0.00  0.00    -0.304 N 
ATOM      3  H   LIG    1       25.785 -12.841   4.804  0.00  0.00    +0.149 HD
ATOM      4  O   LIG    1       26.140 -13.882   1.823  0.00  0.00    -0.275 OA
ENDROOT
BRANCH   1   6
ATOM      5  C   LIG    1       24.311 -11.448   1.813  0.00  0.00    +0.028 C 
ATOM      6  C   LIG    1       24.268 -12.640   2.756  0.00  0.00    +0.126 C 
BRANCH   6   7
ATOM      7  S   LIG    1       23.828 -12.106   4.453  0.00  0.00    -0.166 S 
ATOM      8  H   LIG    1       25.045 -11.654   4.799  0.00  0.00    +0.102 HD
ENDBRANCH   6   7
ENDBRANCH   1   6
BRANCH   2   9
ATOM      9  C   LIG    1       27.490 -14.041   4.263  0.00  0.00    +0.224 C 
BRANCH   9  10
ATOM     10  C   LIG    1       28.682 -13.101   4.136  0.00  0.00    +0.322 C 
ATOM     11  O   LIG    1       28.900 -12.176   4.912  0.00  0.00    -0.249 OA
BRANCH  10  12
ATOM     12  O   LIG    1       29.460 -13.327   3.052  0.00  0.00    -0.479 OA
ATOM     13  H   LIG    1       29.972 -14.152   3.159  0.00  0.00    +0.295 HD
ENDBRANCH  10  12
ENDBRANCH   9  10
ENDBRANCH   2   9
TORSDOF 5
ENDMDL
MODEL 3
REMARK VINA RESULT:      -4.0      1.748      2.010
REMARK  Name = *****
REMARK                            x       y       z     vdW  Elec       q    Type
REMARK                         _______ _______ _______ _____ _____    ______ ____
ROOT
ATOM      1  C   LIG    1       25.547 -20.199   4.882  0.00  0.00    +0.226 C 
ATOM      2  N   LIG    1       26.695 -20.451   5.611  0.00  0.00    -0.304 N 
ATOM      3  H   LIG    1       26.660 -21.126   6.371  0.00  0.00    +0.149 HD
ATOM      4  O   LIG    1       25.501 -19.325   4.024  0.00  0.00    -0.275 OA
ENDROOT
BRANCH   1   6
ATOM      5  C   LIG    1       23.041 -20.417   4.904  0.00  0.00    +0.028 C 
ATOM      6  C   LIG    1       24.360 -21.087   5.255  0.00  0.00    +0.126 C 
BRANCH   6   7
ATOM      7  S   LIG    1       24.440 -21.457   7.048  0.00  0.00    -0.166 S 
ATOM      8  H   LIG    1       23.329 -22.209   7.105  0.00  0.00    +0.102 HD
ENDBRANCH   6   7
ENDBRANCH   1   6
BRANCH   2   9
ATOM      9  C   LIG    1       27.928 -19.716   5.350  0.00  0.00    +0.224 C 
BRANCH   9  10
ATOM     10  C   LIG    1       28.956 -19.888   6.461  0.00  0.00    +0.322 C 
ATOM     11  O   LIG    1       29.467 -18.947   7.062  0.00  0.00    -0.249 OA
BRANCH  10  12
ATOM     12  O   LIG    1       29.315 -21.170   6.698  0.00  0.00    -0.479 OA
ATOM     13  H   LIG    1       30.123 -21.402   6.201  0.00  0.00    +0.295 HD
ENDBRANCH  10  12
ENDBRANCH   9  10
ENDBRANCH   2   9
TORSDOF 5
ENDMDL
MODEL 4
REMARK VINA RESULT:      -4.0      1.969      2.259
REMARK  Name = *****
REMARK                            x       y       z     vdW  Elec       q    Type
REMARK                         _______ _______ _______ _____ _____    ______ ____
ROOT
ATOM      1  C   LIG    1       24.498 -20.818   5.441  0.00  0.00    +0.226 C 
ATOM      2  N   LIG    1       25.213 -20.565   6.597  0.00  0.00    -0.304 N 
ATOM      3  H   LIG    1       24.843 -19.902   7.273  0.00  0.00    +0.149 HD
ATOM      4  O   LIG    1       24.941 -21.528   4.545  0.00  0.00    -0.275 OA
ENDROOT
BRANCH   1   6
ATOM      5  C   LIG    1       22.024 -21.126   5.102  0.00  0.00    +0.028 C 
ATOM      6  C   LIG    1       23.136 -20.127   5.383  0.00  0.00    +0.126 C 
BRANCH   6   7
ATOM      7  S   LIG    1       23.186 -18.834   4.085  0.00  0.00    -0.166 S 
ATOM      8  H   LIG    1       22.241 -18.041   4.614  0.00  0.00    +0.102 HD
ENDBRANCH   6   7
ENDBRANCH   1   6
BRANCH   2   9
ATOM      9  C   LIG    1       26.517 -21.182   6.825  0.00  0.00    +0.224 C 
BRANCH   9  10
ATOM     10  C   LIG    1       27.666 -20.319   6.322  0.00  0.00    +0.322 C 
ATOM     11  O   LIG    1       28.490 -19.791   7.062  0.00  0.00    -0.249 OA
BRANCH  10  12
ATOM     12  O   LIG    1       27.676 -20.125   4.983  0.00  0.00    -0.479 OA
ATOM     13  H   LIG    1       28.547 -20.352   4.606  0.00  0.00    +0.295 HD
ENDBRANCH  10  12
ENDBRANCH   9  10
ENDBRANCH   2   9
TORSDOF 5
ENDMDL
MODEL 5
REMARK VINA RESULT:      -3.8      2.980      4.506
REMARK  Name = *****
REMARK                            x       y       z     vdW  Elec       q    Type
REMARK                         _______ _______ _______ _____ _____    ______ ____
ROOT
ATOM      1  C   LIG    1       26.535 -20.445   6.035  0.00  0.00    +0.226 C 
ATOM      2  N   LIG    1       26.201 -20.110   4.736  0.00  0.00    -0.304 N 
ATOM      3  H   LIG    1       26.800 -19.469   4.221  0.00  0.00    +0.149 HD
ATOM      4  O   LIG    1       25.801 -21.130   6.739  0.00  0.00    -0.275 OA
ENDROOT
BRANCH   1   6
ATOM      5  C   LIG    1       28.554 -19.086   5.399  0.00  0.00    +0.028 C 
ATOM      6  C   LIG    1       27.873 -19.876   6.505  0.00  0.00    +0.126 C 
BRANCH   6   7
ATOM      7  S   LIG    1       28.939 -21.259   7.062  0.00  0.00    -0.166 S 
ATOM      8  H   LIG    1       30.015 -20.938   6.325  0.00  0.00    +0.102 HD
ENDBRANCH   6   7
ENDBRANCH   1   6
BRANCH   2   9
ATOM      9  C   LIG    1       24.973 -20.607   4.123  0.00  0.00    +0.224 C 
BRANCH   9  10
ATOM     10  C   LIG    1       23.776 -19.710   4.407  0.00  0.00    +0.322 C 
ATOM     11  O   LIG    1       23.479 -18.739   3.718  0.00  0.00    -0.249 OA
BRANCH  10  12
ATOM     12  O   LIG    1       23.088 -20.031   5.527  0.00  0.00    -0.479 OA
ATOM     13  H   LIG    1       23.639 -20.566   6.131  0.00  0.00    +0.295 HD
ENDBRANCH  10  12
ENDBRANCH   9  10
ENDBRANCH   2   9
TORSDOF 5
ENDMDL
MODEL 6
REMARK VINA RESULT:      -3.7      6.841      7.895
REMARK  Name = *****
REMARK                            x       y       z     vdW  Elec       q    Type
REMARK                         _______ _______ _______ _____ _____    ______ ____
ROOT
ATOM      1  C   LIG    1       26.141 -13.896   2.879  0.00  0.00    +0.226 C 
ATOM      2  N   LIG    1       25.265 -14.059   3.935  0.00  0.00    -0.304 N 
ATOM      3  H   LIG    1       25.579 -14.550   4.768  0.00  0.00    +0.149 HD
ATOM      4  O   LIG    1       25.791 -13.404   1.812  0.00  0.00    -0.275 OA
ENDROOT
BRANCH   1   6
ATOM      5  C   LIG    1       27.546 -15.591   4.098  0.00  0.00    +0.028 C 
ATOM      6  C   LIG    1       27.559 -14.396   3.158  0.00  0.00    +0.126 C 
BRANCH   6   7
ATOM      7  S   LIG    1       28.539 -13.022   3.872  0.00  0.00    -0.166 S 
ATOM      8  H   LIG    1       28.522 -13.457   5.142  0.00  0.00    +0.102 HD
ENDBRANCH   6   7
ENDBRANCH   1   6
BRANCH   2   9
ATOM      9  C   LIG    1       23.883 -13.597   3.843  0.00  0.00    +0.224 C 
BRANCH   9  10
ATOM     10  C   LIG    1       23.770 -12.080   3.916  0.00  0.00    +0.322 C 
ATOM     11  O   LIG    1       23.726 -11.454   4.970  0.00  0.00    -0.249 OA
BRANCH  10  12
ATOM     12  O   LIG    1       23.657 -11.469   2.714  0.00  0.00    -0.479 OA
ATOM     13  H   LIG    1       23.941 -10.536   2.771  0.00  0.00    +0.295 HD
ENDBRANCH  10  12
ENDBRANCH   9  10
ENDBRANCH   2   9
TORSDOF 5
ENDMDL
MODEL 7
REMARK VINA RESULT:      -3.6      6.661      7.053
REMARK  Name = *****
REMARK                            x       y       z     vdW  Elec       q    Type
REMARK                         _______ _______ _______ _____ _____    ______ ____
ROOT
ATOM      1  C   LIG    1       24.960 -13.448   3.350  0.00  0.00    +0.226 C 
ATOM      2  N   LIG    1       26.173 -13.206   2.733  0.00  0.00    -0.304 N 
ATOM      3  H   LIG    1       26.245 -12.444   2.064  0.00  0.00    +0.149 HD
ATOM      4  O   LIG    1       24.785 -14.412   4.087  0.00  0.00    -0.275 OA
ENDROOT
BRANCH   1   6
ATOM      5  C   LIG    1       24.303 -11.515   1.879  0.00  0.00    +0.028 C 
ATOM      6  C   LIG    1       23.873 -12.426   3.018  0.00  0.00    +0.126 C 
BRANCH   6   7
ATOM      7  S   LIG    1       23.503 -11.447   4.523  0.00  0.00    -0.166 S 
ATOM      8  H   LIG    1       23.442 -12.483   5.376  0.00  0.00    +0.102 HD
ENDBRANCH   6   7
ENDBRANCH   1   6
BRANCH   2   9
ATOM      9  C   LIG    1       27.326 -14.068   2.978  0.00  0.00    +0.224 C 
BRANCH   9  10
ATOM     10  C   LIG    1       28.356 -13.418   3.891  0.00  0.00    +0.322 C 
ATOM     11  O   LIG    1       28.181 -13.241   5.093  0.00  0.00    -0.249 OA
BRANCH  10  12
ATOM     12  O   LIG    1       29.473 -12.987   3.259  0.00  0.00    -0.479 OA
ATOM     13  H   LIG    1       29.381 -13.081   2.291  0.00  0.00    +0.295 HD
ENDBRANCH  10  12
ENDBRANCH   9  10
ENDBRANCH   2   9
TORSDOF 5
ENDMDL
MODEL 8
REMARK VINA RESULT:      -3.6      5.536      6.367
REMARK  Name = *****
REMARK                            x       y       z     vdW  Elec       q    Type
REMARK                         _______ _______ _______ _____ _____    ______ ____
ROOT
ATOM      1  C   LIG    1       25.474 -13.463   4.106  0.00  0.00    +0.226 C 
ATOM      2  N   LIG    1       25.975 -14.443   3.269  0.00  0.00    -0.304 N 
ATOM      3  H   LIG    1       25.458 -14.688   2.429  0.00  0.00    +0.149 HD
ATOM      4  O   LIG    1       25.997 -13.196   5.182  0.00  0.00    -0.275 OA
ENDROOT
BRANCH   1   6
ATOM      5  C   LIG    1       24.454 -12.187   2.192  0.00  0.00    +0.028 C 
ATOM      6  C   LIG    1       24.219 -12.769   3.577  0.00  0.00    +0.126 C 
BRANCH   6   7
ATOM      7  S   LIG    1       23.729 -11.455   4.756  0.00  0.00    -0.166 S 
ATOM      8  H   LIG    1       24.313 -11.989   5.841  0.00  0.00    +0.102 HD
ENDBRANCH   6   7
ENDBRANCH   1   6
BRANCH   2   9
ATOM      9  C   LIG    1       27.193 -15.172   3.611  0.00  0.00    +0.224 C 
BRANCH   9  10
ATOM     10  C   LIG    1       26.999 -16.682   3.569  0.00  0.00    +0.322 C 
ATOM     11  O   LIG    1       25.992 -17.223   3.122  0.00  0.00    -0.249 OA
BRANCH  10  12
ATOM     12  O   LIG    1       28.008 -17.392   4.125  0.00  0.00    -0.479 OA
ATOM     13  H   LIG    1       28.068 -18.281   3.724  0.00  0.00    +0.295 HD
ENDBRANCH  10  12
ENDBRANCH   9  10
ENDBRANCH   2   9
TORSDOF 5
ENDMDL
MODEL 9
REMARK VINA RESULT:      -3.6      4.300      5.625
REMARK  Name = *****
REMARK                            x       y       z     vdW  Elec       q    Type
REMARK                         _______ _______ _______ _____ _____    ______ ____
ROOT
ATOM      1  C   LIG    1       25.938 -15.217   3.391  0.00  0.00    +0.226 C 
ATOM      2  N   LIG    1       25.337 -16.447   3.584  0.00  0.00    -0.304 N 
ATOM      3  H   LIG    1       24.422 -16.487   4.026  0.00  0.00    +0.149 HD
ATOM      4  O   LIG    1       27.080 -15.112   2.958  0.00  0.00    -0.275 OA
ENDROOT
BRANCH   1   6
ATOM      5  C   LIG    1       23.690 -14.479   4.247  0.00  0.00    +0.028 C 
ATOM      6  C   LIG    1       25.063 -14.025   3.778  0.00  0.00    +0.126 C 
BRANCH   6   7
ATOM      7  S   LIG    1       24.916 -12.907   2.334  0.00  0.00    -0.166 S 
ATOM      8  H   LIG    1       23.838 -12.233   2.763  0.00  0.00    +0.102 HD
ENDBRANCH   6   7
ENDBRANCH   1   6
BRANCH   2   9
ATOM      9  C   LIG    1       26.025 -17.684   3.226  0.00  0.00    +0.224 C 
BRANCH   9  10
ATOM     10  C   LIG    1       25.212 -18.925   3.573  0.00  0.00    +0.322 C 
ATOM     11  O   LIG    1       23.987 -18.934   3.640  0.00  0.00    -0.249 OA
BRANCH  10  12
ATOM     12  O   LIG    1       25.954 -20.018   3.865  0.00  0.00    -0.479 OA
ATOM     13  H   LIG    1       26.323 -19.956   4.767  0.00  0.00    +0.295 HD
ENDBRANCH  10  12
ENDBRANCH   9  10
ENDBRANCH   2   9
TORSDOF 5
ENDMDL
