MODEL 1
REMARK VINA RESULT:      -6.1      0.000      0.000
REMARK  Name = *****
REMARK                            x       y       z     vdW  Elec       q    Type
REMARK                         _______ _______ _______ _____ _____    ______ ____
ROOT
ATOM      1  C   LIG    1       27.516 -13.835   3.529  0.00  0.00    +0.108 C 
ATOM      2  C   LIG    1       27.303 -15.278   3.890  0.00  0.00    +0.123 C 
ATOM      3  C   LIG    1       26.121 -15.811   3.083  0.00  0.00    +0.207 C 
ATOM      4  O   LIG    1       24.966 -14.971   3.261  0.00  0.00    -0.454 OA
ATOM      5  C   LIG    1       25.107 -13.638   3.083  0.00  0.00    +0.336 C 
ATOM      6  O   LIG    1       24.151 -12.889   2.928  0.00  0.00    -0.245 OA
ATOM      7  C   LIG    1       26.475 -13.092   3.120  0.00  0.00    +0.132 C 
ENDROOT
BRANCH   1   9
ATOM      8  C   LIG    1       29.065 -12.234   4.402  0.00  0.00    +0.276 C 
ATOM      9  O   LIG    1       28.823 -13.418   3.646  0.00  0.00    -0.499 OA
ENDBRANCH   1   9
BRANCH   3  10
ATOM     10  C   LIG    1       25.723 -17.187   3.534  0.00  0.00    +0.018 C 
ATOM     11  C   LIG    1       24.451 -17.604   3.649  0.00  0.00    +0.007 C 
BRANCH  11  12
ATOM     12  C   LIG    1       24.062 -18.938   4.095  0.00  0.00    -0.029 C 
ATOM     13  C   LIG    1       22.723 -19.267   4.572  0.00  0.00    +0.003 C 
ATOM     14  C   LIG    1       22.405 -20.462   5.088  0.00  0.00    -0.026 C 
ATOM     15  C   LIG    1       23.398 -21.571   5.234  0.00  0.00    +0.031 C 
ATOM     16  C   LIG    1       24.746 -21.321   4.541  0.00  0.00    +0.032 C 
ATOM     17  C   LIG    1       25.003 -19.902   4.114  0.00  0.00    -0.019 C 
ENDBRANCH  11  12
ENDBRANCH   3  10
TORSDOF 3
ENDMDL
MODEL 2
REMARK VINA RESULT:      -5.3      2.841      7.097
REMARK  Name = *****
REMARK                            x       y       z     vdW  Elec       q    Type
REMARK                         _______ _______ _______ _____ _____    ______ ____
ROOT
ATOM      1  C   LIG    1       24.210 -20.721   4.635  0.00  0.00    +0.108 C 
ATOM      2  C   LIG    1       24.196 -19.336   4.052  0.00  0.00    +0.123 C 
ATOM      3  C   LIG    1       25.626 -18.952   3.677  0.00  0.00    +0.207 C 
ATOM      4  O   LIG    1       26.506 -19.121   4.802  0.00  0.00    -0.454 OA
ATOM      5  C   LIG    1       26.483 -20.299   5.466  0.00  0.00    +0.336 C 
ATOM      6  O   LIG    1       27.375 -20.641   6.233  0.00  0.00    -0.245 OA
ATOM      7  C   LIG    1       25.308 -21.165   5.266  0.00  0.00    +0.132 C 
ENDROOT
BRANCH   1   9
ATOM      8  C   LIG    1       21.830 -20.810   4.858  0.00  0.00    +0.276 C 
ATOM      9  O   LIG    1       23.043 -21.424   4.431  0.00  0.00    -0.499 OA
ENDBRANCH   1   9
BRANCH   3  10
ATOM     10  C   LIG    1       25.720 -17.509   3.273  0.00  0.00    +0.018 C 
ATOM     11  C   LIG    1       25.072 -16.509   3.891  0.00  0.00    +0.007 C 
BRANCH  11  12
ATOM     12  C   LIG    1       25.155 -15.107   3.495  0.00  0.00    -0.029 C 
ATOM     13  C   LIG    1       24.066 -14.154   3.673  0.00  0.00    +0.003 C 
ATOM     14  C   LIG    1       24.107 -12.901   3.203  0.00  0.00    -0.026 C 
ATOM     15  C   LIG    1       25.274 -12.361   2.437  0.00  0.00    +0.031 C 
ATOM     16  C   LIG    1       26.511 -13.270   2.428  0.00  0.00    +0.032 C 
ATOM     17  C   LIG    1       26.281 -14.685   2.885  0.00  0.00    -0.019 C 
ENDBRANCH  11  12
ENDBRANCH   3  10
TORSDOF 3
ENDMDL
MODEL 3
REMARK VINA RESULT:      -4.7      1.174      2.537
REMARK  Name = *****
REMARK                            x       y       z     vdW  Elec       q    Type
REMARK                         _______ _______ _______ _____ _____    ______ ____
ROOT
ATOM      1  C   LIG    1       25.777 -12.843   2.413  0.00  0.00    +0.108 C 
ATOM      2  C   LIG    1       25.211 -14.234   2.463  0.00  0.00    +0.123 C 
ATOM      3  C   LIG    1       25.812 -14.961   3.663  0.00  0.00    +0.207 C 
ATOM      4  O   LIG    1       27.249 -14.899   3.626  0.00  0.00    -0.454 OA
ATOM      5  C   LIG    1       27.836 -13.694   3.450  0.00  0.00    +0.336 C 
ATOM      6  O   LIG    1       29.021 -13.496   3.690  0.00  0.00    -0.245 OA
ATOM      7  C   LIG    1       27.000 -12.606   2.915  0.00  0.00    +0.132 C 
ENDROOT
BRANCH   1   9
ATOM      8  C   LIG    1       23.850 -11.447   2.652  0.00  0.00    +0.276 C 
ATOM      9  O   LIG    1       24.930 -11.915   1.849  0.00  0.00    -0.499 OA
ENDBRANCH   1   9
BRANCH   3  10
ATOM     10  C   LIG    1       25.446 -16.417   3.664  0.00  0.00    +0.018 C 
ATOM     11  C   LIG    1       24.239 -16.892   4.013  0.00  0.00    +0.007 C 
BRANCH  11  12
ATOM     12  C   LIG    1       23.884 -18.307   4.022  0.00  0.00    -0.029 C 
ATOM     13  C   LIG    1       22.629 -18.818   4.561  0.00  0.00    +0.003 C 
ATOM     14  C   LIG    1       22.360 -20.126   4.673  0.00  0.00    -0.026 C 
ATOM     15  C   LIG    1       23.329 -21.189   4.263  0.00  0.00    +0.031 C 
ATOM     16  C   LIG    1       24.558 -20.678   3.496  0.00  0.00    +0.032 C 
ATOM     17  C   LIG    1       24.787 -19.192   3.554  0.00  0.00    -0.019 C 
ENDBRANCH  11  12
ENDBRANCH   3  10
TORSDOF 3
ENDMDL
MODEL 4
REMARK VINA RESULT:      -3.9      1.370      2.016
REMARK  Name = *****
REMARK                            x       y       z     vdW  Elec       q    Type
REMARK                         _______ _______ _______ _____ _____    ______ ____
ROOT
ATOM      1  C   LIG    1       26.028 -13.201   3.499  0.00  0.00    +0.108 C 
ATOM      2  C   LIG    1       25.699 -14.642   3.770  0.00  0.00    +0.123 C 
ATOM      3  C   LIG    1       24.181 -14.805   3.762  0.00  0.00    +0.207 C 
ATOM      4  O   LIG    1       23.567 -13.868   4.665  0.00  0.00    -0.454 OA
ATOM      5  C   LIG    1       23.911 -12.564   4.573  0.00  0.00    +0.336 C 
ATOM      6  O   LIG    1       23.249 -11.669   5.083  0.00  0.00    -0.245 OA
ATOM      7  C   LIG    1       25.157 -12.244   3.854  0.00  0.00    +0.132 C 
ENDROOT
BRANCH   1   9
ATOM      8  C   LIG    1       28.359 -13.725   3.384  0.00  0.00    +0.276 C 
ATOM      9  O   LIG    1       27.237 -13.014   2.867  0.00  0.00    -0.499 OA
ENDBRANCH   1   9
BRANCH   3  10
ATOM     10  C   LIG    1       23.771 -16.174   4.221  0.00  0.00    +0.018 C 
ATOM     11  C   LIG    1       24.256 -17.318   3.710  0.00  0.00    +0.007 C 
BRANCH  11  12
ATOM     12  C   LIG    1       23.854 -18.649   4.149  0.00  0.00    -0.029 C 
ATOM     13  C   LIG    1       24.726 -19.817   4.082  0.00  0.00    +0.003 C 
ATOM     14  C   LIG    1       24.313 -21.056   4.377  0.00  0.00    -0.026 C 
ATOM     15  C   LIG    1       22.909 -21.363   4.795  0.00  0.00    +0.031 C 
ATOM     16  C   LIG    1       22.040 -20.130   5.082  0.00  0.00    +0.032 C 
ATOM     17  C   LIG    1       22.592 -18.819   4.592  0.00  0.00    -0.019 C 
ENDBRANCH  11  12
ENDBRANCH   3  10
TORSDOF 3
ENDMDL
MODEL 5
REMARK VINA RESULT:      -3.8      2.765      7.393
REMARK  Name = *****
REMARK                            x       y       z     vdW  Elec       q    Type
REMARK                         _______ _______ _______ _____ _____    ______ ____
ROOT
ATOM      1  C   LIG    1       22.456 -20.280   4.639  0.00  0.00    +0.108 C 
ATOM      2  C   LIG    1       22.789 -18.840   4.373  0.00  0.00    +0.123 C 
ATOM      3  C   LIG    1       24.207 -18.765   3.810  0.00  0.00    +0.207 C 
ATOM      4  O   LIG    1       25.132 -19.445   4.677  0.00  0.00    -0.454 OA
ATOM      5  C   LIG    1       24.837 -20.704   5.072  0.00  0.00    +0.336 C 
ATOM      6  O   LIG    1       25.673 -21.456   5.558  0.00  0.00    -0.245 OA
ATOM      7  C   LIG    1       23.439 -21.146   4.933  0.00  0.00    +0.132 C 
ENDROOT
BRANCH   1   9
ATOM      8  C   LIG    1       20.306 -19.651   3.801  0.00  0.00    +0.276 C 
ATOM      9  O   LIG    1       21.114 -20.572   4.528  0.00  0.00    -0.499 OA
ENDBRANCH   1   9
BRANCH   3  10
ATOM     10  C   LIG    1       24.684 -17.345   3.705  0.00  0.00    +0.018 C 
ATOM     11  C   LIG    1       25.940 -16.993   3.388  0.00  0.00    +0.007 C 
BRANCH  11  12
ATOM     12  C   LIG    1       26.408 -15.614   3.294  0.00  0.00    -0.029 C 
ATOM     13  C   LIG    1       27.676 -15.155   3.847  0.00  0.00    +0.003 C 
ATOM     14  C   LIG    1       28.046 -13.867   3.860  0.00  0.00    -0.026 C 
ATOM     15  C   LIG    1       27.183 -12.773   3.313  0.00  0.00    +0.031 C 
ATOM     16  C   LIG    1       25.951 -13.255   2.534  0.00  0.00    +0.032 C 
ATOM     17  C   LIG    1       25.600 -14.707   2.708  0.00  0.00    -0.019 C 
ENDBRANCH  11  12
ENDBRANCH   3  10
TORSDOF 3
ENDMDL
MODEL 6
REMARK VINA RESULT:      -3.6      3.170      7.251
REMARK  Name = *****
REMARK                            x       y       z     vdW  Elec       q    Type
REMARK                         _______ _______ _______ _____ _____    ______ ____
ROOT
ATOM      1  C   LIG    1       22.274 -20.481   4.888  0.00  0.00    +0.108 C 
ATOM      2  C   LIG    1       23.297 -19.418   4.601  0.00  0.00    +0.123 C 
ATOM      3  C   LIG    1       22.592 -18.064   4.557  0.00  0.00    +0.207 C 
ATOM      4  O   LIG    1       21.488 -18.098   3.636  0.00  0.00    -0.454 OA
ATOM      5  C   LIG    1       20.590 -19.104   3.744  0.00  0.00    +0.336 C 
ATOM      6  O   LIG    1       19.487 -19.063   3.215  0.00  0.00    -0.245 OA
ATOM      7  C   LIG    1       21.000 -20.296   4.506  0.00  0.00    +0.132 C 
ENDROOT
BRANCH   1   9
ATOM      8  C   LIG    1       23.346 -21.338   6.847  0.00  0.00    +0.276 C 
ATOM      9  O   LIG    1       22.777 -21.572   5.561  0.00  0.00    -0.499 OA
ENDBRANCH   1   9
BRANCH   3  10
ATOM     10  C   LIG    1       23.514 -16.979   4.080  0.00  0.00    +0.018 C 
ATOM     11  C   LIG    1       23.293 -15.667   4.263  0.00  0.00    +0.007 C 
BRANCH  11  12
ATOM     12  C   LIG    1       24.183 -14.611   3.793  0.00  0.00    -0.029 C 
ATOM     13  C   LIG    1       23.713 -13.315   3.317  0.00  0.00    +0.003 C 
ATOM     14  C   LIG    1       24.524 -12.395   2.779  0.00  0.00    -0.026 C 
ATOM     15  C   LIG    1       25.994 -12.615   2.605  0.00  0.00    +0.031 C 
ATOM     16  C   LIG    1       26.541 -13.874   3.295  0.00  0.00    +0.032 C 
ATOM     17  C   LIG    1       25.506 -14.866   3.749  0.00  0.00    -0.019 C 
ENDBRANCH  11  12
ENDBRANCH   3  10
TORSDOF 3
ENDMDL
