MODEL 1
REMARK VINA RESULT:      -6.1      0.000      0.000
REMARK  Name = *****
REMARK                            x       y       z     vdW  Elec       q    Type
REMARK                         _______ _______ _______ _____ _____    ______ ____
ROOT
ATOM      1  N   LIG    1       24.495 -21.041   5.575  0.00  0.00    -0.248 N 
ATOM      2  C   LIG    1       25.271 -20.921   6.800  0.00  0.00    +0.163 C 
ATOM      3  C   LIG    1       26.778 -20.721   6.584  0.00  0.00    +0.050 C 
ATOM      4  N   LIG    1       25.048 -22.119   7.615  0.00  0.00    -0.325 N 
ATOM      5  H   LIG    1       25.515 -22.072   8.516  0.00  0.00    +0.148 HD
ATOM      6  C   LIG    1       25.273 -23.324   6.933  0.00  0.00    +0.042 A 
ATOM      7  C   LIG    1       25.040 -23.422   5.558  0.00  0.00    +0.060 A 
ATOM      8  C   LIG    1       25.241 -24.630   4.879  0.00  0.00    +0.045 A 
ATOM      9  C   LIG    1       25.653 -25.767   5.587  0.00  0.00    +0.124 A 
ATOM     10  C   LIG    1       25.839 -25.698   6.970  0.00  0.00    +0.069 A 
ATOM     11 CL   LIG    1       26.313 -27.040   7.951  0.00  0.00    -0.082 Cl
ATOM     12  C   LIG    1       25.629 -24.481   7.637  0.00  0.00    +0.045 A 
ATOM     13  C   LIG    1       24.539 -22.224   4.839  0.00  0.00    +0.254 C 
ATOM     14  O   LIG    1       24.199 -22.344   3.666  0.00  0.00    -0.270 OA
ENDROOT
BRANCH   1  17
ATOM     15  C   LIG    1       25.872 -19.230   3.649  0.00  0.00    +0.045 C 
ATOM     16  C   LIG    1       24.467 -19.014   4.148  0.00  0.00    -0.029 A 
ATOM     17  C   LIG    1       23.829 -19.888   5.056  0.00  0.00    +0.041 A 
ATOM     18  C   LIG    1       22.498 -19.629   5.419  0.00  0.00    +0.024 A 
ATOM     19  C   LIG    1       21.813 -18.518   4.924  0.00  0.00    +0.002 A 
ATOM     20  C   LIG    1       22.442 -17.655   4.038  0.00  0.00    +0.000 A 
ATOM     21  C   LIG    1       23.759 -17.901   3.654  0.00  0.00    +0.005 A 
ENDBRANCH   1  17
BRANCH   9  22
ATOM     22  S   LIG    1       25.950 -27.253   4.686  0.00  0.00    +0.057 S 
ATOM     23  O   LIG    1       25.577 -27.057   3.307  0.00  0.00    -0.153 OA
ATOM     24  O   LIG    1       25.454 -28.376   5.453  0.00  0.00    -0.153 OA
BRANCH  22  25
ATOM     25  N   LIG    1       27.619 -27.412   4.737  0.00  0.00    -0.203 NA
ATOM     26  H   LIG    1       28.016 -26.702   5.356  0.00  0.00    +0.144 HD
ATOM     27  H   LIG    1       27.999 -27.392   3.789  0.00  0.00    +0.144 HD
ENDBRANCH  22  25
ENDBRANCH   9  22
TORSDOF 3
ENDMDL
MODEL 2
REMARK VINA RESULT:      -5.9      8.533      9.886
REMARK  Name = *****
REMARK                            x       y       z     vdW  Elec       q    Type
REMARK                         _______ _______ _______ _____ _____    ______ ____
ROOT
ATOM      1  N   LIG    1       26.102 -27.572  13.729  0.00  0.00    -0.248 N 
ATOM      2  C   LIG    1       25.170 -28.296  14.581  0.00  0.00    +0.163 C 
ATOM      3  C   LIG    1       25.680 -29.659  15.072  0.00  0.00    +0.050 C 
ATOM      4  N   LIG    1       23.912 -28.477  13.851  0.00  0.00    -0.325 N 
ATOM      5  H   LIG    1       23.194 -28.924  14.413  0.00  0.00    +0.148 HD
ATOM      6  C   LIG    1       24.066 -29.057  12.583  0.00  0.00    +0.042 A 
ATOM      7  C   LIG    1       25.227 -28.839  11.833  0.00  0.00    +0.060 A 
ATOM      8  C   LIG    1       25.373 -29.396  10.557  0.00  0.00    +0.045 A 
ATOM      9  C   LIG    1       24.335 -30.159  10.006  0.00  0.00    +0.124 A 
ATOM     10  C   LIG    1       23.148 -30.342  10.722  0.00  0.00    +0.069 A 
ATOM     11 CL   LIG    1       21.791 -31.233  10.132  0.00  0.00    -0.082 Cl
ATOM     12  C   LIG    1       23.015 -29.772  11.998  0.00  0.00    +0.045 A 
ATOM     13  C   LIG    1       26.286 -27.972  12.407  0.00  0.00    +0.254 C 
ATOM     14  O   LIG    1       27.239 -27.663  11.697  0.00  0.00    -0.270 OA
ENDROOT
BRANCH   1  17
ATOM     15  C   LIG    1       25.259 -24.713  13.736  0.00  0.00    +0.045 C 
ATOM     16  C   LIG    1       26.560 -25.207  14.314  0.00  0.00    -0.029 A 
ATOM     17  C   LIG    1       26.938 -26.567  14.306  0.00  0.00    +0.041 A 
ATOM     18  C   LIG    1       28.148 -26.934  14.917  0.00  0.00    +0.024 A 
ATOM     19  C   LIG    1       28.985 -25.981  15.500  0.00  0.00    +0.002 A 
ATOM     20  C   LIG    1       28.617 -24.643  15.500  0.00  0.00    +0.000 A 
ATOM     21  C   LIG    1       27.415 -24.259  14.911  0.00  0.00    +0.005 A 
ENDBRANCH   1  17
BRANCH   9  22
ATOM     22  S   LIG    1       24.582 -30.891   8.421  0.00  0.00    +0.057 S 
ATOM     23  O   LIG    1       23.729 -30.240   7.458  0.00  0.00    -0.153 OA
ATOM     24  O   LIG    1       24.601 -32.330   8.565  0.00  0.00    -0.153 OA
BRANCH  22  25
ATOM     25  N   LIG    1       26.165 -30.483   8.047  0.00  0.00    -0.203 NA
ATOM     26  H   LIG    1       26.350 -30.678   7.061  0.00  0.00    +0.144 HD
ATOM     27  H   LIG    1       26.806 -30.954   8.688  0.00  0.00    +0.144 HD
ENDBRANCH  22  25
ENDBRANCH   9  22
TORSDOF 3
ENDMDL
MODEL 3
REMARK VINA RESULT:      -5.7      8.769     11.087
REMARK  Name = *****
REMARK                            x       y       z     vdW  Elec       q    Type
REMARK                         _______ _______ _______ _____ _____    ______ ____
ROOT
ATOM      1  N   LIG    1       23.964 -30.821   9.816  0.00  0.00    -0.248 N 
ATOM      2  C   LIG    1       25.159 -30.656  10.632  0.00  0.00    +0.163 C 
ATOM      3  C   LIG    1       25.331 -31.711  11.734  0.00  0.00    +0.050 C 
ATOM      4  N   LIG    1       25.133 -29.319  11.233  0.00  0.00    -0.325 N 
ATOM      5  H   LIG    1       25.972 -29.114  11.769  0.00  0.00    +0.148 HD
ATOM      6  C   LIG    1       23.947 -29.026  11.923  0.00  0.00    +0.042 A 
ATOM      7  C   LIG    1       22.728 -29.578  11.518  0.00  0.00    +0.060 A 
ATOM      8  C   LIG    1       21.539 -29.268  12.189  0.00  0.00    +0.045 A 
ATOM      9  C   LIG    1       21.560 -28.370  13.265  0.00  0.00    +0.124 A 
ATOM     10  C   LIG    1       22.763 -27.769  13.648  0.00  0.00    +0.069 A 
ATOM     11 CL   LIG    1       22.904 -26.624  14.934  0.00  0.00    -0.082 Cl
ATOM     12  C   LIG    1       23.945 -28.087  12.961  0.00  0.00    +0.045 A 
ATOM     13  C   LIG    1       22.717 -30.474  10.334  0.00  0.00    +0.254 C 
ATOM     14  O   LIG    1       21.635 -30.846   9.890  0.00  0.00    -0.270 OA
ENDROOT
BRANCH   1  17
ATOM     15  C   LIG    1       24.444 -29.284   7.308  0.00  0.00    +0.045 C 
ATOM     16  C   LIG    1       24.287 -30.781   7.359  0.00  0.00    -0.029 A 
ATOM     17  C   LIG    1       24.066 -31.492   8.559  0.00  0.00    +0.041 A 
ATOM     18  C   LIG    1       23.986 -32.892   8.508  0.00  0.00    +0.024 A 
ATOM     19  C   LIG    1       24.091 -33.582   7.298  0.00  0.00    +0.002 A 
ATOM     20  C   LIG    1       24.300 -32.883   6.118  0.00  0.00    +0.000 A 
ATOM     21  C   LIG    1       24.396 -31.494   6.148  0.00  0.00    +0.005 A 
ENDBRANCH   1  17
BRANCH   9  22
ATOM     22  S   LIG    1       20.052 -28.051  14.120  0.00  0.00    +0.057 S 
ATOM     23  O   LIG    1       19.575 -26.736  13.770  0.00  0.00    -0.153 OA
ATOM     24  O   LIG    1       20.197 -28.462  15.499  0.00  0.00    -0.153 OA
BRANCH  22  25
ATOM     25  N   LIG    1       18.986 -29.164  13.457  0.00  0.00    -0.203 NA
ATOM     26  H   LIG    1       18.051 -29.020  13.843  0.00  0.00    +0.144 HD
ATOM     27  H   LIG    1       19.346 -30.111  13.589  0.00  0.00    +0.144 HD
ENDBRANCH  22  25
ENDBRANCH   9  22
TORSDOF 3
ENDMDL
MODEL 4
REMARK VINA RESULT:      -5.7      8.244     10.320
REMARK  Name = *****
REMARK                            x       y       z     vdW  Elec       q    Type
REMARK                         _______ _______ _______ _____ _____    ______ ____
ROOT
ATOM      1  N   LIG    1       25.465 -30.506   9.105  0.00  0.00    -0.248 N 
ATOM      2  C   LIG    1       24.380 -31.125   9.851  0.00  0.00    +0.163 C 
ATOM      3  C   LIG    1       23.039 -30.381   9.765  0.00  0.00    +0.050 C 
ATOM      4  N   LIG    1       24.785 -31.242  11.255  0.00  0.00    -0.325 N 
ATOM      5  H   LIG    1       24.094 -31.724  11.823  0.00  0.00    +0.148 HD
ATOM      6  C   LIG    1       25.232 -30.040  11.824  0.00  0.00    +0.042 A 
ATOM      7  C   LIG    1       25.874 -29.075  11.042  0.00  0.00    +0.060 A 
ATOM      8  C   LIG    1       26.343 -27.885  11.610  0.00  0.00    +0.045 A 
ATOM      9  C   LIG    1       26.196 -27.665  12.987  0.00  0.00    +0.124 A 
ATOM     10  C   LIG    1       25.604 -28.644  13.790  0.00  0.00    +0.069 A 
ATOM     11 CL   LIG    1       25.401 -28.498  15.500  0.00  0.00    -0.082 Cl
ATOM     12  C   LIG    1       25.144 -29.834  13.205  0.00  0.00    +0.045 A 
ATOM     13  C   LIG    1       26.079 -29.356   9.599  0.00  0.00    +0.254 C 
ATOM     14  O   LIG    1       26.765 -28.579   8.942  0.00  0.00    -0.270 OA
ENDROOT
BRANCH   1  17
ATOM     15  C   LIG    1       24.321 -29.187   6.689  0.00  0.00    +0.045 C 
ATOM     16  C   LIG    1       25.237 -30.381   6.639  0.00  0.00    -0.029 A 
ATOM     17  C   LIG    1       25.775 -30.988   7.796  0.00  0.00    +0.041 A 
ATOM     18  C   LIG    1       26.662 -32.065   7.641  0.00  0.00    +0.024 A 
ATOM     19  C   LIG    1       26.995 -32.556   6.378  0.00  0.00    +0.002 A 
ATOM     20  C   LIG    1       26.461 -31.965   5.242  0.00  0.00    +0.000 A 
ATOM     21  C   LIG    1       25.588 -30.887   5.372  0.00  0.00    +0.005 A 
ENDBRANCH   1  17
BRANCH   9  22
ATOM     22  S   LIG    1       26.748 -26.129  13.654  0.00  0.00    +0.057 S 
ATOM     23  O   LIG    1       25.813 -25.681  14.655  0.00  0.00    -0.153 OA
ATOM     24  O   LIG    1       27.168 -25.268  12.569  0.00  0.00    -0.153 OA
BRANCH  22  25
ATOM     25  N   LIG    1       28.171 -26.537  14.443  0.00  0.00    -0.203 NA
ATOM     26  H   LIG    1       27.964 -27.141  15.242  0.00  0.00    +0.144 HD
ATOM     27  H   LIG    1       28.687 -25.690  14.689  0.00  0.00    +0.144 HD
ENDBRANCH  22  25
ENDBRANCH   9  22
TORSDOF 3
ENDMDL
MODEL 5
REMARK VINA RESULT:      -5.6      8.894     10.159
REMARK  Name = *****
REMARK                            x       y       z     vdW  Elec       q    Type
REMARK                         _______ _______ _______ _____ _____    ______ ____
ROOT
ATOM      1  N   LIG    1       24.202 -29.712  11.725  0.00  0.00    -0.248 N 
ATOM      2  C   LIG    1       25.631 -29.538  11.945  0.00  0.00    +0.163 C 
ATOM      3  C   LIG    1       26.221 -28.262  11.329  0.00  0.00    +0.050 C 
ATOM      4  N   LIG    1       26.331 -30.710  11.410  0.00  0.00    -0.325 N 
ATOM      5  H   LIG    1       27.332 -30.682  11.586  0.00  0.00    +0.148 HD
ATOM      6  C   LIG    1       26.009 -31.010  10.079  0.00  0.00    +0.042 A 
ATOM      7  C   LIG    1       24.738 -30.726   9.569  0.00  0.00    +0.060 A 
ATOM      8  C   LIG    1       24.405 -31.047   8.248  0.00  0.00    +0.045 A 
ATOM      9  C   LIG    1       25.345 -31.688   7.428  0.00  0.00    +0.124 A 
ATOM     10  C   LIG    1       26.601 -32.026   7.940  0.00  0.00    +0.069 A 
ATOM     11 CL   LIG    1       27.824 -32.845   7.036  0.00  0.00    -0.082 Cl
ATOM     12  C   LIG    1       26.917 -31.702   9.268  0.00  0.00    +0.045 A 
ATOM     13  C   LIG    1       23.736 -30.108  10.473  0.00  0.00    +0.254 C 
ATOM     14  O   LIG    1       22.581 -29.989  10.074  0.00  0.00    -0.270 OA
ENDROOT
BRANCH   1  17
ATOM     15  C   LIG    1       23.131 -31.702  13.669  0.00  0.00    +0.045 C 
ATOM     16  C   LIG    1       22.763 -30.241  13.673  0.00  0.00    -0.029 A 
ATOM     17  C   LIG    1       23.287 -29.312  12.747  0.00  0.00    +0.041 A 
ATOM     18  C   LIG    1       22.922 -27.962  12.867  0.00  0.00    +0.024 A 
ATOM     19  C   LIG    1       22.038 -27.534  13.859  0.00  0.00    +0.002 A 
ATOM     20  C   LIG    1       21.517 -28.448  14.764  0.00  0.00    +0.000 A 
ATOM     21  C   LIG    1       21.876 -29.791  14.671  0.00  0.00    +0.005 A 
ENDBRANCH   1  17
BRANCH   9  22
ATOM     22  S   LIG    1       24.906 -32.023   5.754  0.00  0.00    +0.057 S 
ATOM     23  O   LIG    1       24.803 -33.448   5.564  0.00  0.00    -0.153 OA
ATOM     24  O   LIG    1       25.716 -31.199   4.882  0.00  0.00    -0.153 OA
BRANCH  22  25
ATOM     25  N   LIG    1       23.361 -31.385   5.621  0.00  0.00    -0.203 NA
ATOM     26  H   LIG    1       22.670 -32.095   5.871  0.00  0.00    +0.144 HD
ATOM     27  H   LIG    1       23.227 -30.988   4.690  0.00  0.00    +0.144 HD
ENDBRANCH  22  25
ENDBRANCH   9  22
TORSDOF 3
ENDMDL
MODEL 6
REMARK VINA RESULT:      -5.4      8.968     10.473
REMARK  Name = *****
REMARK                            x       y       z     vdW  Elec       q    Type
REMARK                         _______ _______ _______ _____ _____    ______ ____
ROOT
ATOM      1  N   LIG    1       21.989 -27.909  13.821  0.00  0.00    -0.248 N 
ATOM      2  C   LIG    1       22.953 -27.068  14.516  0.00  0.00    +0.163 C 
ATOM      3  C   LIG    1       23.288 -25.753  13.798  0.00  0.00    +0.050 C 
ATOM      4  N   LIG    1       24.183 -27.840  14.723  0.00  0.00    -0.325 N 
ATOM      5  H   LIG    1       24.879 -27.330  15.259  0.00  0.00    +0.148 HD
ATOM      6  C   LIG    1       24.697 -28.421  13.554  0.00  0.00    +0.042 A 
ATOM      7  C   LIG    1       23.844 -28.824  12.522  0.00  0.00    +0.060 A 
ATOM      8  C   LIG    1       24.351 -29.427  11.364  0.00  0.00    +0.045 A 
ATOM      9  C   LIG    1       25.729 -29.658  11.246  0.00  0.00    +0.124 A 
ATOM     10  C   LIG    1       26.587 -29.309  12.292  0.00  0.00    +0.069 A 
ATOM     11 CL   LIG    1       28.294 -29.576  12.272  0.00  0.00    -0.082 Cl
ATOM     12  C   LIG    1       26.062 -28.710  13.448  0.00  0.00    +0.045 A 
ATOM     13  C   LIG    1       22.383 -28.631  12.696  0.00  0.00    +0.254 C 
ATOM     14  O   LIG    1       21.624 -29.111  11.859  0.00  0.00    -0.270 OA
ENDROOT
BRANCH   1  17
ATOM     15  C   LIG    1       20.789 -30.061  15.499  0.00  0.00    +0.045 C 
ATOM     16  C   LIG    1       20.025 -28.866  14.992  0.00  0.00    -0.029 A 
ATOM     17  C   LIG    1       20.614 -27.853  14.203  0.00  0.00    +0.041 A 
ATOM     18  C   LIG    1       19.830 -26.752  13.824  0.00  0.00    +0.024 A 
ATOM     19  C   LIG    1       18.484 -26.659  14.187  0.00  0.00    +0.002 A 
ATOM     20  C   LIG    1       17.904 -27.658  14.955  0.00  0.00    +0.000 A 
ATOM     21  C   LIG    1       18.667 -28.753  15.353  0.00  0.00    +0.005 A 
ENDBRANCH   1  17
BRANCH   9  22
ATOM     22  S   LIG    1       26.334 -30.366   9.749  0.00  0.00    +0.057 S 
ATOM     23  O   LIG    1       25.222 -30.668   8.881  0.00  0.00    -0.153 OA
ATOM     24  O   LIG    1       27.336 -31.360  10.070  0.00  0.00    -0.153 OA
BRANCH  22  25
ATOM     25  N   LIG    1       27.194 -29.111   9.044  0.00  0.00    -0.203 NA
ATOM     26  H   LIG    1       27.565 -28.494   9.770  0.00  0.00    +0.144 HD
ATOM     27  H   LIG    1       26.611 -28.634   8.355  0.00  0.00    +0.144 HD
ENDBRANCH  22  25
ENDBRANCH   9  22
TORSDOF 3
ENDMDL
MODEL 7
REMARK VINA RESULT:      -5.3      9.179     11.174
REMARK  Name = *****
REMARK                            x       y       z     vdW  Elec       q    Type
REMARK                         _______ _______ _______ _____ _____    ______ ____
ROOT
ATOM      1  N   LIG    1       24.039 -30.348   9.945  0.00  0.00    -0.248 N 
ATOM      2  C   LIG    1       25.139 -30.143  10.875  0.00  0.00    +0.163 C 
ATOM      3  C   LIG    1       25.400 -31.321  11.826  0.00  0.00    +0.050 C 
ATOM      4  N   LIG    1       24.872 -28.932  11.657  0.00  0.00    -0.325 N 
ATOM      5  H   LIG    1       25.634 -28.696  12.286  0.00  0.00    +0.148 HD
ATOM      6  C   LIG    1       23.614 -28.919  12.277  0.00  0.00    +0.042 A 
ATOM      7  C   LIG    1       22.522 -29.569  11.694  0.00  0.00    +0.060 A 
ATOM      8  C   LIG    1       21.259 -29.536  12.298  0.00  0.00    +0.045 A 
ATOM      9  C   LIG    1       21.074 -28.821  13.489  0.00  0.00    +0.124 A 
ATOM     10  C   LIG    1       22.144 -28.123  14.056  0.00  0.00    +0.069 A 
ATOM     11 CL   LIG    1       22.027 -27.181  15.500  0.00  0.00    -0.082 Cl
ATOM     12  C   LIG    1       23.403 -28.161  13.435  0.00  0.00    +0.045 A 
ATOM     13  C   LIG    1       22.723 -30.264  10.398  0.00  0.00    +0.254 C 
ATOM     14  O   LIG    1       21.741 -30.712   9.814  0.00  0.00    -0.270 OA
ENDROOT
BRANCH   1  17
ATOM     15  C   LIG    1       24.127 -33.259   9.310  0.00  0.00    +0.045 C 
ATOM     16  C   LIG    1       24.375 -32.171   8.299  0.00  0.00    -0.029 A 
ATOM     17  C   LIG    1       24.322 -30.796   8.618  0.00  0.00    +0.041 A 
ATOM     18  C   LIG    1       24.516 -29.858   7.592  0.00  0.00    +0.024 A 
ATOM     19  C   LIG    1       24.785 -30.259   6.282  0.00  0.00    +0.002 A 
ATOM     20  C   LIG    1       24.845 -31.609   5.970  0.00  0.00    +0.000 A 
ATOM     21  C   LIG    1       24.642 -32.558   6.970  0.00  0.00    +0.005 A 
ENDBRANCH   1  17
BRANCH   9  22
ATOM     22  S   LIG    1       19.484 -28.853  14.248  0.00  0.00    +0.057 S 
ATOM     23  O   LIG    1       18.906 -27.533  14.199  0.00  0.00    -0.153 OA
ATOM     24  O   LIG    1       19.567 -29.598  15.485  0.00  0.00    -0.153 OA
BRANCH  22  25
ATOM     25  N   LIG    1       18.585 -29.833  13.225  0.00  0.00    -0.203 NA
ATOM     26  H   LIG    1       17.587 -29.689  13.395  0.00  0.00    +0.144 HD
ATOM     27  H   LIG    1       18.884 -30.804  13.323  0.00  0.00    +0.144 HD
ENDBRANCH  22  25
ENDBRANCH   9  22
TORSDOF 3
ENDMDL
MODEL 8
REMARK VINA RESULT:      -5.2      8.639     11.405
REMARK  Name = *****
REMARK                            x       y       z     vdW  Elec       q    Type
REMARK                         _______ _______ _______ _____ _____    ______ ____
ROOT
ATOM      1  N   LIG    1       21.011 -30.885  12.095  0.00  0.00    -0.248 N 
ATOM      2  C   LIG    1       21.664 -29.885  12.926  0.00  0.00    +0.163 C 
ATOM      3  C   LIG    1       21.248 -28.437  12.629  0.00  0.00    +0.050 C 
ATOM      4  N   LIG    1       23.115 -30.020  12.768  0.00  0.00    -0.325 N 
ATOM      5  H   LIG    1       23.635 -29.388  13.371  0.00  0.00    +0.148 HD
ATOM      6  C   LIG    1       23.549 -29.998  11.434  0.00  0.00    +0.042 A 
ATOM      7  C   LIG    1       22.736 -30.494  10.410  0.00  0.00    +0.060 A 
ATOM      8  C   LIG    1       23.175 -30.497   9.081  0.00  0.00    +0.045 A 
ATOM      9  C   LIG    1       24.458 -30.025   8.770  0.00  0.00    +0.124 A 
ATOM     10  C   LIG    1       25.302 -29.576   9.790  0.00  0.00    +0.069 A 
ATOM     11 CL   LIG    1       26.912 -29.005   9.531  0.00  0.00    -0.082 Cl
ATOM     12  C   LIG    1       24.848 -29.585  11.118  0.00  0.00    +0.045 A 
ATOM     13  C   LIG    1       21.408 -31.051  10.769  0.00  0.00    +0.254 C 
ATOM     14  O   LIG    1       20.753 -31.614   9.897  0.00  0.00    -0.270 OA
ENDROOT
BRANCH   1  17
ATOM     15  C   LIG    1       21.282 -33.540  13.423  0.00  0.00    +0.045 C 
ATOM     16  C   LIG    1       19.969 -32.829  13.226  0.00  0.00    -0.029 A 
ATOM     17  C   LIG    1       19.862 -31.568  12.599  0.00  0.00    +0.041 A 
ATOM     18  C   LIG    1       18.598 -30.964  12.511  0.00  0.00    +0.024 A 
ATOM     19  C   LIG    1       17.454 -31.597  13.001  0.00  0.00    +0.002 A 
ATOM     20  C   LIG    1       17.558 -32.840  13.610  0.00  0.00    +0.000 A 
ATOM     21  C   LIG    1       18.805 -33.452  13.720  0.00  0.00    +0.005 A 
ENDBRANCH   1  17
BRANCH   9  22
ATOM     22  S   LIG    1       24.952 -29.992   7.078  0.00  0.00    +0.057 S 
ATOM     23  O   LIG    1       25.905 -31.047   6.839  0.00  0.00    -0.153 OA
ATOM     24  O   LIG    1       25.223 -28.624   6.693  0.00  0.00    -0.153 OA
BRANCH  22  25
ATOM     25  N   LIG    1       23.546 -30.392   6.255  0.00  0.00    -0.203 NA
ATOM     26  H   LIG    1       23.622 -31.338   5.877  0.00  0.00    +0.144 HD
ATOM     27  H   LIG    1       23.343 -29.681   5.549  0.00  0.00    +0.144 HD
ENDBRANCH  22  25
ENDBRANCH   9  22
TORSDOF 3
ENDMDL
MODEL 9
REMARK VINA RESULT:      -5.2      9.710     10.770
REMARK  Name = *****
REMARK                            x       y       z     vdW  Elec       q    Type
REMARK                         _______ _______ _______ _____ _____    ______ ____
ROOT
ATOM      1  N   LIG    1       21.607 -28.699  12.943  0.00  0.00    -0.248 N 
ATOM      2  C   LIG    1       21.313 -29.863  12.120  0.00  0.00    +0.163 C 
ATOM      3  C   LIG    1       21.408 -31.207  12.856  0.00  0.00    +0.050 C 
ATOM      4  N   LIG    1       22.225 -29.867  10.973  0.00  0.00    -0.325 N 
ATOM      5  H   LIG    1       22.033 -30.623  10.322  0.00  0.00    +0.148 HD
ATOM      6  C   LIG    1       23.581 -29.764  11.320  0.00  0.00    +0.042 A 
ATOM      7  C   LIG    1       23.975 -29.056  12.460  0.00  0.00    +0.060 A 
ATOM      8  C   LIG    1       25.328 -28.930  12.796  0.00  0.00    +0.045 A 
ATOM      9  C   LIG    1       26.307 -29.495  11.967  0.00  0.00    +0.124 A 
ATOM     10  C   LIG    1       25.931 -30.159  10.797  0.00  0.00    +0.069 A 
ATOM     11 CL   LIG    1       27.049 -30.864   9.683  0.00  0.00    -0.082 Cl
ATOM     12  C   LIG    1       24.570 -30.272  10.471  0.00  0.00    +0.045 A 
ATOM     13  C   LIG    1       22.926 -28.409  13.288  0.00  0.00    +0.254 C 
ATOM     14  O   LIG    1       23.275 -27.671  14.204  0.00  0.00    -0.270 OA
ENDROOT
BRANCH   1  17
ATOM     15  C   LIG    1       20.361 -29.598  15.497  0.00  0.00    +0.045 C 
ATOM     16  C   LIG    1       19.919 -28.379  14.731  0.00  0.00    -0.029 A 
ATOM     17  C   LIG    1       20.527 -27.966  13.525  0.00  0.00    +0.041 A 
ATOM     18  C   LIG    1       20.077 -26.786  12.913  0.00  0.00    +0.024 A 
ATOM     19  C   LIG    1       19.031 -26.038  13.458  0.00  0.00    +0.002 A 
ATOM     20  C   LIG    1       18.429 -26.448  14.638  0.00  0.00    +0.000 A 
ATOM     21  C   LIG    1       18.868 -27.610  15.269  0.00  0.00    +0.005 A 
ENDBRANCH   1  17
BRANCH   9  22
ATOM     22  S   LIG    1       27.996 -29.364  12.456  0.00  0.00    +0.057 S 
ATOM     23  O   LIG    1       28.823 -29.241  11.282  0.00  0.00    -0.153 OA
ATOM     24  O   LIG    1       28.269 -30.353  13.476  0.00  0.00    -0.153 OA
BRANCH  22  25
ATOM     25  N   LIG    1       28.054 -27.896  13.266  0.00  0.00    -0.203 NA
ATOM     26  H   LIG    1       28.433 -27.174  12.649  0.00  0.00    +0.144 HD
ATOM     27  H   LIG    1       28.568 -28.002  14.142  0.00  0.00    +0.144 HD
ENDBRANCH  22  25
ENDBRANCH   9  22
TORSDOF 3
ENDMDL
