MODEL 1
REMARK VINA RESULT:      70.2      0.000      0.000
REMARK  Name = *****
REMARK                            x       y       z     vdW  Elec       q    Type
REMARK                         _______ _______ _______ _____ _____    ______ ____
ROOT
ATOM      1  C   LIG    1       27.430 -13.689   5.725  0.00  0.00    -0.000 A 
ATOM      2  C   LIG    1       26.109 -13.884   6.131  0.00  0.00    +0.122 A 
ATOM      3  C   LIG    1       25.336 -14.926   5.605  0.00  0.00    +0.069 A 
ATOM      4  C   LIG    1       25.846 -15.845   4.668  0.00  0.00    +0.041 A 
ATOM      5  C   LIG    1       27.206 -15.781   4.295  0.00  0.00    -0.020 A 
ATOM      6  C   LIG    1       27.943 -14.673   4.833  0.00  0.00    +0.013 A 
ENDROOT
BRANCH   1   8
ATOM      7  C   LIG    1       27.445 -11.447   6.996  0.00  0.00    +0.016 C 
ATOM      8  C   LIG    1       28.275 -12.462   6.170  0.00  0.00    -0.009 C 
ATOM      9  C   LIG    1       29.474 -12.891   7.056  0.00  0.00    +0.016 C 
ATOM     10  C   LIG    1       28.859 -11.667   4.979  0.00  0.00    +0.016 C 
ENDBRANCH   1   8
BRANCH   4  11
ATOM     11  N   LIG    1       24.945 -16.820   4.187  0.00  0.00    -0.281 N 
ATOM     12  H   LIG    1       23.954 -16.628   4.248  0.00  0.00    +0.155 HD
ATOM     13  C   LIG    1       25.294 -18.107   3.792  0.00  0.00    +0.253 C 
ATOM     14  O   LIG    1       26.423 -18.565   3.813  0.00  0.00    -0.270 OA
BRANCH  13  15
ATOM     15  C   LIG    1       24.126 -18.963   3.381  0.00  0.00    +0.100 C 
ATOM     16  C   LIG    1       22.730 -18.775   3.870  0.00  0.00    +0.202 C 
ATOM     17  O   LIG    1       22.452 -17.898   4.684  0.00  0.00    -0.286 OA
ATOM     18  C   LIG    1       21.663 -19.671   3.363  0.00  0.00    +0.046 C 
ATOM     19  C   LIG    1       22.011 -20.689   2.463  0.00  0.00    +0.050 C 
ATOM     20  C   LIG    1       21.016 -21.566   2.023  0.00  0.00    +0.026 C 
ATOM     21  C   LIG    1       19.694 -21.409   2.449  0.00  0.00    +0.002 C 
ATOM     22  C   LIG    1       19.353 -20.374   3.323  0.00  0.00    +0.001 C 
ATOM     23  N   LIG    1       23.346 -20.846   2.078  0.00  0.00    -0.360 NA
ATOM     24  H   LIG    1       23.571 -21.499   1.335  0.00  0.00    +0.165 HD
ATOM     25  C   LIG    1       20.339 -19.504   3.784  0.00  0.00    +0.014 C 
ATOM     26  C   LIG    1       24.317 -19.980   2.521  0.00  0.00    +0.100 C 
ENDBRANCH  13  15
ENDBRANCH   4  11
BRANCH   5  27
ATOM     27  C   LIG    1       27.959 -16.689   3.266  0.00  0.00    -0.011 C 
ATOM     28  C   LIG    1       29.159 -17.421   3.925  0.00  0.00    +0.015 C 
ATOM     29  C   LIG    1       28.526 -15.827   2.111  0.00  0.00    +0.015 C 
ATOM     30  C   LIG    1       27.143 -17.800   2.579  0.00  0.00    +0.015 C 
ENDBRANCH   5  27
BRANCH   2  31
ATOM     31  O   LIG    1       25.532 -13.056   7.054  0.00  0.00    -0.506 OA
ATOM     32  H   LIG    1       26.220 -12.479   7.427  0.00  0.00    +0.292 HD
ENDBRANCH   2  31
TORSDOF 5
ENDMDL
