MODEL 1
REMARK VINA RESULT:      -8.5      0.000      0.000
REMARK  Name = *****
REMARK                            x       y       z     vdW  Elec       q    Type
REMARK                         _______ _______ _______ _____ _____    ______ ____
ROOT
ATOM      1  C   LIG    1       25.545 -21.211   8.717  0.00  0.00    +0.024 C 
ATOM      2  C   LIG    1       25.181 -21.438   7.231  0.00  0.00    +0.054 C 
ATOM      3  C   LIG    1       23.850 -20.677   6.978  0.00  0.00    +0.024 C 
ENDROOT
BRANCH   2   4
ATOM      4  C   LIG    1       24.900 -22.902   6.885  0.00  0.00    -0.016 A 
ATOM      5  C   LIG    1       23.600 -23.396   6.764  0.00  0.00    +0.115 A 
ATOM      6  N   LIG    1       23.290 -24.695   6.528  0.00  0.00    -0.263 NA
ATOM      7  C   LIG    1       24.312 -25.569   6.440  0.00  0.00    +0.111 A 
ATOM      8  C   LIG    1       25.637 -25.203   6.573  0.00  0.00    +0.020 A 
ATOM      9  C   LIG    1       25.928 -23.858   6.797  0.00  0.00    +0.007 A 
ENDBRANCH   2   4
BRANCH   2  10
ATOM     10  C   LIG    1       26.272 -20.761   6.352  0.00  0.00    +0.174 C 
ATOM     11  O   LIG    1       26.004 -20.307   5.237  0.00  0.00    -0.291 OA
BRANCH  10  12
ATOM     12  C   LIG    1       27.676 -20.568   6.821  0.00  0.00    +0.036 A 
ATOM     13  C   LIG    1       28.295 -21.330   7.795  0.00  0.00    +0.122 A 
ATOM     14  N   LIG    1       29.589 -21.158   8.187  0.00  0.00    -0.263 NA
ATOM     15  C   LIG    1       30.301 -20.188   7.566  0.00  0.00    +0.111 A 
ATOM     16  C   LIG    1       29.776 -19.373   6.582  0.00  0.00    +0.020 A 
ATOM     17  C   LIG    1       28.448 -19.568   6.203  0.00  0.00    +0.014 A 
ENDBRANCH  10  12
ENDBRANCH   2  10
TORSDOF 3
ENDMDL
MODEL 2
REMARK VINA RESULT:      -8.5      3.359      5.406
REMARK  Name = *****
REMARK                            x       y       z     vdW  Elec       q    Type
REMARK                         _______ _______ _______ _____ _____    ______ ____
ROOT
ATOM      1  C   LIG    1       22.835 -23.169   6.837  0.00  0.00    +0.024 C 
ATOM      2  C   LIG    1       23.998 -22.159   6.698  0.00  0.00    +0.054 C 
ATOM      3  C   LIG    1       24.040 -21.345   8.021  0.00  0.00    +0.024 C 
ENDROOT
BRANCH   2   4
ATOM      4  C   LIG    1       23.789 -21.133   5.581  0.00  0.00    -0.016 A 
ATOM      5  C   LIG    1       24.665 -21.029   4.500  0.00  0.00    +0.115 A 
ATOM      6  N   LIG    1       24.570 -20.097   3.519  0.00  0.00    -0.263 NA
ATOM      7  C   LIG    1       23.577 -19.191   3.622  0.00  0.00    +0.111 A 
ATOM      8  C   LIG    1       22.669 -19.175   4.662  0.00  0.00    +0.020 A 
ATOM      9  C   LIG    1       22.780 -20.155   5.646  0.00  0.00    +0.007 A 
ENDBRANCH   2   4
BRANCH   2  10
ATOM     10  C   LIG    1       25.331 -22.956   6.606  0.00  0.00    +0.174 C 
ATOM     11  O   LIG    1       26.403 -22.453   6.948  0.00  0.00    -0.291 OA
BRANCH  10  12
ATOM     12  C   LIG    1       25.385 -24.381   6.163  0.00  0.00    +0.036 A 
ATOM     13  C   LIG    1       25.105 -24.819   4.880  0.00  0.00    +0.122 A 
ATOM     14  N   LIG    1       25.192 -26.122   4.487  0.00  0.00    -0.263 NA
ATOM     15  C   LIG    1       25.590 -27.025   5.415  0.00  0.00    +0.111 A 
ATOM     16  C   LIG    1       25.892 -26.689   6.721  0.00  0.00    +0.020 A 
ATOM     17  C   LIG    1       25.791 -25.350   7.097  0.00  0.00    +0.014 A 
ENDBRANCH  10  12
ENDBRANCH   2  10
TORSDOF 3
ENDMDL
MODEL 3
REMARK VINA RESULT:      -8.4      2.346      3.642
REMARK  Name = *****
REMARK                            x       y       z     vdW  Elec       q    Type
REMARK                         _______ _______ _______ _____ _____    ______ ____
ROOT
ATOM      1  C   LIG    1       25.303 -22.901   6.039  0.00  0.00    +0.024 C 
ATOM      2  C   LIG    1       24.564 -21.670   6.611  0.00  0.00    +0.054 C 
ATOM      3  C   LIG    1       23.319 -22.210   7.367  0.00  0.00    +0.024 C 
ENDROOT
BRANCH   2   4
ATOM      4  C   LIG    1       24.023 -20.725   5.534  0.00  0.00    -0.016 A 
ATOM      5  C   LIG    1       24.730 -20.460   4.360  0.00  0.00    +0.115 A 
ATOM      6  N   LIG    1       24.334 -19.582   3.406  0.00  0.00    -0.263 NA
ATOM      7  C   LIG    1       23.195 -18.898   3.630  0.00  0.00    +0.111 A 
ATOM      8  C   LIG    1       22.427 -19.053   4.767  0.00  0.00    +0.020 A 
ATOM      9  C   LIG    1       22.848 -19.975   5.723  0.00  0.00    +0.007 A 
ENDBRANCH   2   4
BRANCH   2  10
ATOM     10  C   LIG    1       25.485 -20.992   7.666  0.00  0.00    +0.174 C 
ATOM     11  O   LIG    1       25.044 -20.615   8.754  0.00  0.00    -0.291 OA
BRANCH  10  12
ATOM     12  C   LIG    1       26.952 -20.813   7.454  0.00  0.00    +0.036 A 
ATOM     13  C   LIG    1       27.939 -21.414   8.216  0.00  0.00    +0.122 A 
ATOM     14  N   LIG    1       29.274 -21.263   7.986  0.00  0.00    -0.263 NA
ATOM     15  C   LIG    1       29.639 -20.487   6.938  0.00  0.00    +0.111 A 
ATOM     16  C   LIG    1       28.732 -19.843   6.118  0.00  0.00    +0.020 A 
ATOM     17  C   LIG    1       27.373 -20.012   6.379  0.00  0.00    +0.014 A 
ENDBRANCH  10  12
ENDBRANCH   2  10
TORSDOF 3
ENDMDL
MODEL 4
REMARK VINA RESULT:      -8.3      1.850      5.257
REMARK  Name = *****
REMARK                            x       y       z     vdW  Elec       q    Type
REMARK                         _______ _______ _______ _____ _____    ______ ____
ROOT
ATOM      1  C   LIG    1       24.349 -21.526   4.546  0.00  0.00    +0.024 C 
ATOM      2  C   LIG    1       24.352 -21.437   6.090  0.00  0.00    +0.054 C 
ATOM      3  C   LIG    1       23.319 -20.342   6.474  0.00  0.00    +0.024 C 
ENDROOT
BRANCH   2   4
ATOM      4  C   LIG    1       25.690 -20.974   6.674  0.00  0.00    -0.016 A 
ATOM      5  C   LIG    1       25.886 -20.831   8.049  0.00  0.00    +0.115 A 
ATOM      6  N   LIG    1       27.023 -20.360   8.618  0.00  0.00    -0.263 NA
ATOM      7  C   LIG    1       28.015 -19.975   7.791  0.00  0.00    +0.111 A 
ATOM      8  C   LIG    1       27.925 -20.042   6.415  0.00  0.00    +0.020 A 
ATOM      9  C   LIG    1       26.752 -20.546   5.857  0.00  0.00    +0.007 A 
ENDBRANCH   2   4
BRANCH   2  10
ATOM     10  C   LIG    1       23.827 -22.786   6.660  0.00  0.00    +0.174 C 
ATOM     11  O   LIG    1       22.784 -22.841   7.315  0.00  0.00    -0.291 OA
BRANCH  10  12
ATOM     12  C   LIG    1       24.510 -24.088   6.401  0.00  0.00    +0.036 A 
ATOM     13  C   LIG    1       25.882 -24.270   6.389  0.00  0.00    +0.122 A 
ATOM     14  N   LIG    1       26.487 -25.475   6.182  0.00  0.00    -0.263 NA
ATOM     15  C   LIG    1       25.682 -26.548   5.993  0.00  0.00    +0.111 A 
ATOM     16  C   LIG    1       24.302 -26.471   5.986  0.00  0.00    +0.020 A 
ATOM     17  C   LIG    1       23.711 -25.226   6.196  0.00  0.00    +0.014 A 
ENDBRANCH  10  12
ENDBRANCH   2  10
TORSDOF 3
ENDMDL
MODEL 5
REMARK VINA RESULT:      -8.1      2.357      5.411
REMARK  Name = *****
REMARK                            x       y       z     vdW  Elec       q    Type
REMARK                         _______ _______ _______ _____ _____    ______ ____
ROOT
ATOM      1  C   LIG    1       25.068 -20.741   8.115  0.00  0.00    +0.024 C 
ATOM      2  C   LIG    1       25.930 -21.561   7.128  0.00  0.00    +0.054 C 
ATOM      3  C   LIG    1       26.093 -22.976   7.750  0.00  0.00    +0.024 C 
ENDROOT
BRANCH   2   4
ATOM      4  C   LIG    1       27.349 -21.014   6.952  0.00  0.00    -0.016 A 
ATOM      5  C   LIG    1       28.398 -21.398   7.789  0.00  0.00    +0.115 A 
ATOM      6  N   LIG    1       29.656 -20.896   7.724  0.00  0.00    -0.263 NA
ATOM      7  C   LIG    1       29.893 -19.937   6.807  0.00  0.00    +0.111 A 
ATOM      8  C   LIG    1       28.927 -19.456   5.946  0.00  0.00    +0.020 A 
ATOM      9  C   LIG    1       27.648 -20.001   6.022  0.00  0.00    +0.007 A 
ENDBRANCH   2   4
BRANCH   2  10
ATOM     10  C   LIG    1       25.130 -21.731   5.804  0.00  0.00    +0.174 C 
ATOM     11  O   LIG    1       25.046 -22.826   5.242  0.00  0.00    -0.291 OA
BRANCH  10  12
ATOM     12  C   LIG    1       24.377 -20.608   5.172  0.00  0.00    +0.036 A 
ATOM     13  C   LIG    1       24.843 -19.836   4.122  0.00  0.00    +0.122 A 
ATOM     14  N   LIG    1       24.126 -18.835   3.537  0.00  0.00    -0.263 NA
ATOM     15  C   LIG    1       22.879 -18.605   4.015  0.00  0.00    +0.111 A 
ATOM     16  C   LIG    1       22.322 -19.319   5.059  0.00  0.00    +0.020 A 
ATOM     17  C   LIG    1       23.080 -20.334   5.641  0.00  0.00    +0.014 A 
ENDBRANCH  10  12
ENDBRANCH   2  10
TORSDOF 3
ENDMDL
MODEL 6
REMARK VINA RESULT:      -8.1      2.321      3.647
REMARK  Name = *****
REMARK                            x       y       z     vdW  Elec       q    Type
REMARK                         _______ _______ _______ _____ _____    ______ ____
ROOT
ATOM      1  C   LIG    1       23.041 -23.106   6.813  0.00  0.00    +0.024 C 
ATOM      2  C   LIG    1       24.013 -21.911   6.684  0.00  0.00    +0.054 C 
ATOM      3  C   LIG    1       23.884 -21.089   7.995  0.00  0.00    +0.024 C 
ENDROOT
BRANCH   2   4
ATOM      4  C   LIG    1       23.654 -20.949   5.548  0.00  0.00    -0.016 A 
ATOM      5  C   LIG    1       24.279 -21.012   4.301  0.00  0.00    +0.115 A 
ATOM      6  N   LIG    1       24.052 -20.146   3.283  0.00  0.00    -0.263 NA
ATOM      7  C   LIG    1       23.188 -19.137   3.511  0.00  0.00    +0.111 A 
ATOM      8  C   LIG    1       22.533 -18.955   4.713  0.00  0.00    +0.020 A 
ATOM      9  C   LIG    1       22.772 -19.870   5.736  0.00  0.00    +0.007 A 
ENDBRANCH   2   4
BRANCH   2  10
ATOM     10  C   LIG    1       25.466 -22.466   6.630  0.00  0.00    +0.174 C 
ATOM     11  O   LIG    1       25.700 -23.610   6.233  0.00  0.00    -0.291 OA
BRANCH  10  12
ATOM     12  C   LIG    1       26.655 -21.640   6.993  0.00  0.00    +0.036 A 
ATOM     13  C   LIG    1       27.439 -21.837   8.116  0.00  0.00    +0.122 A 
ATOM     14  N   LIG    1       28.541 -21.091   8.414  0.00  0.00    -0.263 NA
ATOM     15  C   LIG    1       28.882 -20.113   7.541  0.00  0.00    +0.111 A 
ATOM     16  C   LIG    1       28.165 -19.836   6.392  0.00  0.00    +0.020 A 
ATOM     17  C   LIG    1       27.040 -20.613   6.115  0.00  0.00    +0.014 A 
ENDBRANCH  10  12
ENDBRANCH   2  10
TORSDOF 3
ENDMDL
MODEL 7
REMARK VINA RESULT:      -8.0      2.616      4.090
REMARK  Name = *****
REMARK                            x       y       z     vdW  Elec       q    Type
REMARK                         _______ _______ _______ _____ _____    ______ ____
ROOT
ATOM      1  C   LIG    1       26.559 -21.506   6.649  0.00  0.00    +0.024 C 
ATOM      2  C   LIG    1       25.309 -22.161   7.279  0.00  0.00    +0.054 C 
ATOM      3  C   LIG    1       25.572 -22.241   8.808  0.00  0.00    +0.024 C 
ENDROOT
BRANCH   2   4
ATOM      4  C   LIG    1       25.074 -23.602   6.819  0.00  0.00    -0.016 A 
ATOM      5  C   LIG    1       23.792 -24.109   6.600  0.00  0.00    +0.115 A 
ATOM      6  N   LIG    1       23.520 -25.392   6.259  0.00  0.00    -0.263 NA
ATOM      7  C   LIG    1       24.563 -26.240   6.160  0.00  0.00    +0.111 A 
ATOM      8  C   LIG    1       25.872 -25.862   6.382  0.00  0.00    +0.020 A 
ATOM      9  C   LIG    1       26.124 -24.532   6.714  0.00  0.00    +0.007 A 
ENDBRANCH   2   4
BRANCH   2  10
ATOM     10  C   LIG    1       24.098 -21.207   7.070  0.00  0.00    +0.174 C 
ATOM     11  O   LIG    1       23.286 -20.995   7.974  0.00  0.00    -0.291 OA
BRANCH  10  12
ATOM     12  C   LIG    1       23.879 -20.453   5.800  0.00  0.00    +0.036 A 
ATOM     13  C   LIG    1       24.719 -20.497   4.701  0.00  0.00    +0.122 A 
ATOM     14  N   LIG    1       24.485 -19.826   3.538  0.00  0.00    -0.263 NA
ATOM     15  C   LIG    1       23.352 -19.087   3.466  0.00  0.00    +0.111 A 
ATOM     16  C   LIG    1       22.450 -18.976   4.507  0.00  0.00    +0.020 A 
ATOM     17  C   LIG    1       22.716 -19.671   5.687  0.00  0.00    +0.014 A 
ENDBRANCH  10  12
ENDBRANCH   2  10
TORSDOF 3
ENDMDL
MODEL 8
REMARK VINA RESULT:      -7.9      2.182      3.171
REMARK  Name = *****
REMARK                            x       y       z     vdW  Elec       q    Type
REMARK                         _______ _______ _______ _____ _____    ______ ____
ROOT
ATOM      1  C   LIG    1       26.681 -22.566   7.193  0.00  0.00    +0.024 C 
ATOM      2  C   LIG    1       26.416 -21.051   7.038  0.00  0.00    +0.054 C 
ATOM      3  C   LIG    1       26.106 -20.507   8.460  0.00  0.00    +0.024 C 
ENDROOT
BRANCH   2   4
ATOM      4  C   LIG    1       25.185 -20.727   6.187  0.00  0.00    -0.016 A 
ATOM      5  C   LIG    1       25.290 -20.381   4.839  0.00  0.00    +0.115 A 
ATOM      6  N   LIG    1       24.244 -20.018   4.055  0.00  0.00    -0.263 NA
ATOM      7  C   LIG    1       23.029 -19.958   4.634  0.00  0.00    +0.111 A 
ATOM      8  C   LIG    1       22.808 -20.248   5.966  0.00  0.00    +0.020 A 
ATOM      9  C   LIG    1       23.897 -20.635   6.744  0.00  0.00    +0.007 A 
ENDBRANCH   2   4
BRANCH   2  10
ATOM     10  C   LIG    1       27.732 -20.371   6.562  0.00  0.00    +0.174 C 
ATOM     11  O   LIG    1       27.837 -19.904   5.426  0.00  0.00    -0.291 OA
BRANCH  10  12
ATOM     12  C   LIG    1       28.912 -20.191   7.458  0.00  0.00    +0.036 A 
ATOM     13  C   LIG    1       29.624 -21.223   8.045  0.00  0.00    +0.122 A 
ATOM     14  N   LIG    1       30.719 -21.038   8.835  0.00  0.00    -0.263 NA
ATOM     15  C   LIG    1       31.130 -19.763   9.036  0.00  0.00    +0.111 A 
ATOM     16  C   LIG    1       30.489 -18.664   8.497  0.00  0.00    +0.020 A 
ATOM     17  C   LIG    1       29.369 -18.882   7.696  0.00  0.00    +0.014 A 
ENDBRANCH  10  12
ENDBRANCH   2  10
TORSDOF 3
ENDMDL
MODEL 9
REMARK VINA RESULT:      -7.9      2.449      5.051
REMARK  Name = *****
REMARK                            x       y       z     vdW  Elec       q    Type
REMARK                         _______ _______ _______ _____ _____    ______ ____
ROOT
ATOM      1  C   LIG    1       25.978 -20.239   8.663  0.00  0.00    +0.024 C 
ATOM      2  C   LIG    1       25.997 -21.163   7.424  0.00  0.00    +0.054 C 
ATOM      3  C   LIG    1       27.405 -21.019   6.784  0.00  0.00    +0.024 C 
ENDROOT
BRANCH   2   4
ATOM      4  C   LIG    1       24.999 -20.753   6.338  0.00  0.00    -0.016 A 
ATOM      5  C   LIG    1       25.400 -20.485   5.028  0.00  0.00    +0.115 A 
ATOM      6  N   LIG    1       24.574 -20.053   4.043  0.00  0.00    -0.263 NA
ATOM      7  C   LIG    1       23.284 -19.837   4.369  0.00  0.00    +0.111 A 
ATOM      8  C   LIG    1       22.778 -20.037   5.638  0.00  0.00    +0.020 A 
ATOM      9  C   LIG    1       23.646 -20.498   6.626  0.00  0.00    +0.007 A 
ENDBRANCH   2   4
BRANCH   2  10
ATOM     10  C   LIG    1       25.860 -22.635   7.909  0.00  0.00    +0.174 C 
ATOM     11  O   LIG    1       26.056 -22.941   9.088  0.00  0.00    -0.291 OA
BRANCH  10  12
ATOM     12  C   LIG    1       25.431 -23.742   7.005  0.00  0.00    +0.036 A 
ATOM     13  C   LIG    1       26.293 -24.575   6.313  0.00  0.00    +0.122 A 
ATOM     14  N   LIG    1       25.882 -25.602   5.516  0.00  0.00    -0.263 NA
ATOM     15  C   LIG    1       24.547 -25.814   5.418  0.00  0.00    +0.111 A 
ATOM     16  C   LIG    1       23.605 -25.040   6.067  0.00  0.00    +0.020 A 
ATOM     17  C   LIG    1       24.055 -23.993   6.873  0.00  0.00    +0.014 A 
ENDBRANCH  10  12
ENDBRANCH   2  10
TORSDOF 3
ENDMDL
