MODEL 1
REMARK VINA RESULT:      -7.2      0.000      0.000
REMARK  Name = *****
REMARK                            x       y       z     vdW  Elec       q    Type
REMARK                         _______ _______ _______ _____ _____    ______ ____
ROOT
ATOM      1  C   LIG    1       23.708 -30.104   8.787  0.00  0.00    +0.025 C 
ATOM      2  C   LIG    1       25.169 -30.338   8.350  0.00  0.00    +0.042 C 
ATOM      3  CA  LIG    1       25.220 -30.981   6.940  0.00  0.00    +0.201 C 
ATOM      4  N   LIG    1       25.276 -29.883   5.962  0.00  0.00    -0.271 N 
ATOM      5  C   LIG    1       26.005 -28.663   6.368  0.00  0.00    +0.165 C 
ATOM      6  CA  LIG    1       24.910 -27.842   5.643  0.00  0.00    +0.190 C 
ATOM      7  C   LIG    1       24.149 -29.187   5.611  0.00  0.00    +0.240 C 
ATOM      8  O   LIG    1       23.004 -29.568   5.477  0.00  0.00    -0.273 OA
ATOM      9  S   LIG    1       25.991 -28.680   8.200  0.00  0.00    -0.127 S 
ATOM     10  C   LIG    1       25.865 -31.108   9.477  0.00  0.00    +0.025 C 
ENDROOT
BRANCH   6  11
ATOM     11  N   LIG    1       24.317 -26.714   6.398  0.00  0.00    -0.300 N 
ATOM     12  H   LIG    1       24.024 -26.803   7.371  0.00  0.00    +0.150 HD
ATOM     13  C   LIG    1       24.319 -25.427   5.891  0.00  0.00    +0.235 C 
ATOM     14  O   LIG    1       24.809 -25.179   4.790  0.00  0.00    -0.274 OA
BRANCH  13  15
ATOM     15  CA  LIG    1       23.700 -24.360   6.844  0.00  0.00    +0.168 C 
BRANCH  15  16
ATOM     16  C   LIG    1       24.593 -23.158   7.127  0.00  0.00    -0.022 A 
ATOM     17  C   LIG    1       25.984 -23.271   7.275  0.00  0.00    +0.006 A 
ATOM     18  C   LIG    1       26.770 -22.152   7.572  0.00  0.00    +0.000 A 
ATOM     19  C   LIG    1       26.182 -20.897   7.710  0.00  0.00    +0.000 A 
ATOM     20  C   LIG    1       24.808 -20.758   7.534  0.00  0.00    +0.000 A 
ATOM     21  C   LIG    1       24.021 -21.875   7.235  0.00  0.00    +0.006 A 
ENDBRANCH  15  16
BRANCH  15  22
ATOM     22  N   LIG    1       22.375 -23.935   6.321  0.00  0.00    -0.316 NA
ATOM     23  H1  LIG    1       22.349 -22.914   6.337  0.00  0.00    +0.119 HD
ATOM     24  H2  LIG    1       22.335 -24.181   5.330  0.00  0.00    +0.119 HD
ENDBRANCH  15  22
ENDBRANCH  13  15
ENDBRANCH   6  11
BRANCH   3  25
ATOM     25  C   LIG    1       26.405 -31.918   6.643  0.00  0.00    +0.327 C 
ATOM     26  O   LIG    1       27.276 -32.218   7.445  0.00  0.00    -0.249 OA
BRANCH  25  27
ATOM     27  OXT LIG    1       26.372 -32.464   5.399  0.00  0.00    -0.479 OA
ATOM     28  HXT LIG    1       25.444 -32.593   5.111  0.00  0.00    +0.295 HD
ENDBRANCH  25  27
ENDBRANCH   3  25
TORSDOF 6
ENDMDL
MODEL 2
REMARK VINA RESULT:      -6.8      2.407      3.853
REMARK  Name = *****
REMARK                            x       y       z     vdW  Elec       q    Type
REMARK                         _______ _______ _______ _____ _____    ______ ____
ROOT
ATOM      1  C   LIG    1       25.450 -28.597  11.281  0.00  0.00    +0.025 C 
ATOM      2  C   LIG    1       26.074 -30.006  11.204  0.00  0.00    +0.042 C 
ATOM      3  CA  LIG    1       24.980 -31.072  10.940  0.00  0.00    +0.201 C 
ATOM      4  N   LIG    1       24.864 -31.224   9.480  0.00  0.00    -0.271 N 
ATOM      5  C   LIG    1       26.103 -31.061   8.691  0.00  0.00    +0.165 C 
ATOM      6  CA  LIG    1       25.252 -30.333   7.621  0.00  0.00    +0.190 C 
ATOM      7  C   LIG    1       24.171 -30.315   8.726  0.00  0.00    +0.240 C 
ATOM      8  O   LIG    1       23.159 -29.695   8.983  0.00  0.00    -0.273 OA
ATOM      9  S   LIG    1       27.212 -30.046   9.739  0.00  0.00    -0.127 S 
ATOM     10  C   LIG    1       26.923 -30.198  12.465  0.00  0.00    +0.025 C 
ENDROOT
BRANCH   6  11
ATOM     11  N   LIG    1       25.774 -29.039   7.126  0.00  0.00    -0.300 N 
ATOM     12  H   LIG    1       26.699 -28.691   7.378  0.00  0.00    +0.150 HD
ATOM     13  C   LIG    1       25.120 -28.331   6.132  0.00  0.00    +0.235 C 
ATOM     14  O   LIG    1       24.079 -28.753   5.633  0.00  0.00    -0.274 OA
BRANCH  13  15
ATOM     15  CA  LIG    1       25.841 -27.018   5.699  0.00  0.00    +0.168 C 
BRANCH  15  16
ATOM     16  C   LIG    1       25.193 -25.735   6.208  0.00  0.00    -0.022 A 
ATOM     17  C   LIG    1       23.806 -25.523   6.164  0.00  0.00    +0.006 A 
ATOM     18  C   LIG    1       23.248 -24.317   6.604  0.00  0.00    +0.000 A 
ATOM     19  C   LIG    1       24.065 -23.309   7.112  0.00  0.00    +0.000 A 
ATOM     20  C   LIG    1       25.439 -23.513   7.194  0.00  0.00    +0.000 A 
ATOM     21  C   LIG    1       25.998 -24.718   6.756  0.00  0.00    +0.006 A 
ENDBRANCH  15  16
BRANCH  15  22
ATOM     22  N   LIG    1       27.274 -27.087   6.085  0.00  0.00    -0.316 NA
ATOM     23  H1  LIG    1       27.635 -26.131   6.108  0.00  0.00    +0.119 HD
ATOM     24  H2  LIG    1       27.323 -27.408   7.054  0.00  0.00    +0.119 HD
ENDBRANCH  15  22
ENDBRANCH  13  15
ENDBRANCH   6  11
BRANCH   3  25
ATOM     25  C   LIG    1       25.218 -32.475  11.527  0.00  0.00    +0.327 C 
ATOM     26  O   LIG    1       26.007 -33.295  11.083  0.00  0.00    -0.249 OA
BRANCH  25  27
ATOM     27  OXT LIG    1       24.511 -32.719  12.663  0.00  0.00    -0.479 OA
ATOM     28  HXT LIG    1       23.554 -32.773  12.461  0.00  0.00    +0.295 HD
ENDBRANCH  25  27
ENDBRANCH   3  25
TORSDOF 6
ENDMDL
MODEL 3
REMARK VINA RESULT:      -6.7      5.600      8.378
REMARK  Name = *****
REMARK                            x       y       z     vdW  Elec       q    Type
REMARK                         _______ _______ _______ _____ _____    ______ ____
ROOT
ATOM      1  C   LIG    1       25.208 -21.125   4.528  0.00  0.00    +0.025 C 
ATOM      2  C   LIG    1       24.169 -21.391   5.636  0.00  0.00    +0.042 C 
ATOM      3  CA  LIG    1       24.365 -22.806   6.238  0.00  0.00    +0.201 C 
ATOM      4  N   LIG    1       25.295 -22.673   7.371  0.00  0.00    -0.271 N 
ATOM      5  C   LIG    1       25.224 -21.419   8.150  0.00  0.00    +0.165 C 
ATOM      6  CA  LIG    1       26.769 -21.469   8.255  0.00  0.00    +0.190 C 
ATOM      7  C   LIG    1       26.646 -22.563   7.170  0.00  0.00    +0.240 C 
ATOM      8  O   LIG    1       27.357 -23.086   6.336  0.00  0.00    -0.273 OA
ATOM      9  S   LIG    1       24.484 -20.186   7.013  0.00  0.00    -0.127 S 
ATOM     10  C   LIG    1       22.787 -21.084   5.050  0.00  0.00    +0.025 C 
ENDROOT
BRANCH   6  11
ATOM     11  N   LIG    1       27.498 -20.225   7.921  0.00  0.00    -0.300 N 
ATOM     12  H   LIG    1       27.022 -19.336   7.773  0.00  0.00    +0.150 HD
ATOM     13  C   LIG    1       28.879 -20.157   7.994  0.00  0.00    +0.235 C 
ATOM     14  O   LIG    1       29.545 -21.133   8.333  0.00  0.00    -0.274 OA
BRANCH  13  15
ATOM     15  CA  LIG    1       29.472 -18.755   7.657  0.00  0.00    +0.168 C 
BRANCH  15  16
ATOM     16  C   LIG    1       30.304 -18.127   8.769  0.00  0.00    -0.022 A 
ATOM     17  C   LIG    1       29.792 -17.900  10.057  0.00  0.00    +0.006 A 
ATOM     18  C   LIG    1       30.573 -17.287  11.044  0.00  0.00    +0.000 A 
ATOM     19  C   LIG    1       31.883 -16.905  10.767  0.00  0.00    +0.000 A 
ATOM     20  C   LIG    1       32.420 -17.150   9.506  0.00  0.00    +0.000 A 
ATOM     21  C   LIG    1       31.642 -17.765   8.519  0.00  0.00    +0.006 A 
ENDBRANCH  15  16
BRANCH  15  22
ATOM     22  N   LIG    1       30.240 -18.832   6.388  0.00  0.00    -0.316 NA
ATOM     23  H1  LIG    1       29.740 -19.465   5.761  0.00  0.00    +0.119 HD
ATOM     24  H2  LIG    1       30.189 -17.919   5.933  0.00  0.00    +0.119 HD
ENDBRANCH  15  22
ENDBRANCH  13  15
ENDBRANCH   6  11
BRANCH   3  25
ATOM     25  C   LIG    1       23.106 -23.520   6.763  0.00  0.00    +0.327 C 
ATOM     26  O   LIG    1       22.182 -22.972   7.343  0.00  0.00    -0.249 OA
BRANCH  25  27
ATOM     27  OXT LIG    1       23.063 -24.845   6.459  0.00  0.00    -0.479 OA
ATOM     28  HXT LIG    1       23.845 -25.303   6.831  0.00  0.00    +0.295 HD
ENDBRANCH  25  27
ENDBRANCH   3  25
TORSDOF 6
ENDMDL
MODEL 4
REMARK VINA RESULT:      -6.6      3.652      5.544
REMARK  Name = *****
REMARK                            x       y       z     vdW  Elec       q    Type
REMARK                         _______ _______ _______ _____ _____    ______ ____
ROOT
ATOM      1  C   LIG    1       24.605 -28.035  12.680  0.00  0.00    +0.025 C 
ATOM      2  C   LIG    1       26.118 -28.325  12.618  0.00  0.00    +0.042 C 
ATOM      3  CA  LIG    1       26.408 -29.795  13.017  0.00  0.00    +0.201 C 
ATOM      4  N   LIG    1       26.371 -30.597  11.783  0.00  0.00    -0.271 N 
ATOM      5  C   LIG    1       26.844 -29.942  10.546  0.00  0.00    +0.165 C 
ATOM      6  CA  LIG    1       25.699 -30.668   9.797  0.00  0.00    +0.190 C 
ATOM      7  C   LIG    1       25.181 -30.977  11.220  0.00  0.00    +0.240 C 
ATOM      8  O   LIG    1       24.134 -31.297  11.745  0.00  0.00    -0.273 OA
ATOM      9  S   LIG    1       26.660 -28.144  10.852  0.00  0.00    -0.127 S 
ATOM     10  C   LIG    1       26.825 -27.243  13.441  0.00  0.00    +0.025 C 
ENDROOT
BRANCH   6  11
ATOM     11  N   LIG    1       24.857 -29.838   8.906  0.00  0.00    -0.300 N 
ATOM     12  H   LIG    1       24.308 -29.052   9.250  0.00  0.00    +0.150 HD
ATOM     13  C   LIG    1       24.933 -29.955   7.528  0.00  0.00    +0.235 C 
ATOM     14  O   LIG    1       25.698 -30.760   7.001  0.00  0.00    -0.274 OA
BRANCH  13  15
ATOM     15  CA  LIG    1       24.013 -28.966   6.749  0.00  0.00    +0.168 C 
BRANCH  15  16
ATOM     16  C   LIG    1       24.654 -27.625   6.411  0.00  0.00    -0.022 A 
ATOM     17  C   LIG    1       25.830 -27.175   7.033  0.00  0.00    +0.006 A 
ATOM     18  C   LIG    1       26.370 -25.921   6.726  0.00  0.00    +0.000 A 
ATOM     19  C   LIG    1       25.757 -25.103   5.781  0.00  0.00    +0.000 A 
ATOM     20  C   LIG    1       24.609 -25.545   5.130  0.00  0.00    +0.000 A 
ATOM     21  C   LIG    1       24.068 -26.798   5.434  0.00  0.00    +0.006 A 
ENDBRANCH  15  16
BRANCH  15  22
ATOM     22  N   LIG    1       23.487 -29.634   5.529  0.00  0.00    -0.316 NA
ATOM     23  H1  LIG    1       23.830 -29.114   4.720  0.00  0.00    +0.119 HD
ATOM     24  H2  LIG    1       23.930 -30.551   5.458  0.00  0.00    +0.119 HD
ENDBRANCH  15  22
ENDBRANCH  13  15
ENDBRANCH   6  11
BRANCH   3  25
ATOM     25  C   LIG    1       27.756 -30.078  13.705  0.00  0.00    +0.327 C 
ATOM     26  O   LIG    1       28.851 -29.910  13.191  0.00  0.00    -0.249 OA
BRANCH  25  27
ATOM     27  OXT LIG    1       27.636 -30.475  14.999  0.00  0.00    -0.479 OA
ATOM     28  HXT LIG    1       27.733 -29.707  15.599  0.00  0.00    +0.295 HD
ENDBRANCH  25  27
ENDBRANCH   3  25
TORSDOF 6
ENDMDL
MODEL 5
REMARK VINA RESULT:      -5.9      4.971      6.361
REMARK  Name = *****
REMARK                            x       y       z     vdW  Elec       q    Type
REMARK                         _______ _______ _______ _____ _____    ______ ____
ROOT
ATOM      1  C   LIG    1       23.735 -30.080   9.169  0.00  0.00    +0.025 C 
ATOM      2  C   LIG    1       24.803 -31.122   9.558  0.00  0.00    +0.042 C 
ATOM      3  CA  LIG    1       26.092 -30.921   8.720  0.00  0.00    +0.201 C 
ATOM      4  N   LIG    1       26.958 -29.996   9.469  0.00  0.00    -0.271 N 
ATOM      5  C   LIG    1       26.906 -30.078  10.944  0.00  0.00    +0.165 C 
ATOM      6  CA  LIG    1       27.022 -28.533  10.972  0.00  0.00    +0.190 C 
ATOM      7  C   LIG    1       26.731 -28.645   9.457  0.00  0.00    +0.240 C 
ATOM      8  O   LIG    1       26.330 -27.927   8.564  0.00  0.00    -0.273 OA
ATOM      9  S   LIG    1       25.275 -30.820  11.328  0.00  0.00    -0.127 S 
ATOM     10  C   LIG    1       24.145 -32.503   9.476  0.00  0.00    +0.025 C 
ENDROOT
BRANCH   6  11
ATOM     11  N   LIG    1       26.051 -27.810  11.824  0.00  0.00    -0.300 N 
ATOM     12  H   LIG    1       25.098 -27.614  11.519  0.00  0.00    +0.150 HD
ATOM     13  C   LIG    1       26.319 -27.543  13.155  0.00  0.00    +0.235 C 
ATOM     14  O   LIG    1       27.379 -27.894  13.671  0.00  0.00    -0.274 OA
BRANCH  13  15
ATOM     15  CA  LIG    1       25.163 -26.820  13.911  0.00  0.00    +0.168 C 
BRANCH  15  16
ATOM     16  C   LIG    1       23.763 -27.303  13.552  0.00  0.00    -0.022 A 
ATOM     17  C   LIG    1       23.450 -28.664  13.402  0.00  0.00    +0.006 A 
ATOM     18  C   LIG    1       22.163 -29.070  13.035  0.00  0.00    +0.000 A 
ATOM     19  C   LIG    1       21.160 -28.127  12.826  0.00  0.00    +0.000 A 
ATOM     20  C   LIG    1       21.441 -26.775  13.001  0.00  0.00    +0.000 A 
ATOM     21  C   LIG    1       22.727 -26.366  13.371  0.00  0.00    +0.006 A 
ENDBRANCH  15  16
BRANCH  15  22
ATOM     22  N   LIG    1       25.401 -26.899  15.375  0.00  0.00    -0.316 NA
ATOM     23  H1  LIG    1       24.498 -26.792  15.842  0.00  0.00    +0.119 HD
ATOM     24  H2  LIG    1       25.697 -27.851  15.595  0.00  0.00    +0.119 HD
ENDBRANCH  15  22
ENDBRANCH  13  15
ENDBRANCH   6  11
BRANCH   3  25
ATOM     25  C   LIG    1       26.925 -32.178   8.410  0.00  0.00    +0.327 C 
ATOM     26  O   LIG    1       27.490 -32.865   9.247  0.00  0.00    -0.249 OA
BRANCH  25  27
ATOM     27  OXT LIG    1       26.927 -32.521   7.095  0.00  0.00    -0.479 OA
ATOM     28  HXT LIG    1       26.342 -33.292   6.945  0.00  0.00    +0.295 HD
ENDBRANCH  25  27
ENDBRANCH   3  25
TORSDOF 6
ENDMDL
MODEL 6
REMARK VINA RESULT:      -5.9      7.422      9.031
REMARK  Name = *****
REMARK                            x       y       z     vdW  Elec       q    Type
REMARK                         _______ _______ _______ _____ _____    ______ ____
ROOT
ATOM      1  C   LIG    1       29.359 -18.025   8.104  0.00  0.00    +0.025 C 
ATOM      2  C   LIG    1       30.316 -19.220   7.918  0.00  0.00    +0.042 C 
ATOM      3  CA  LIG    1       29.976 -20.352   8.922  0.00  0.00    +0.201 C 
ATOM      4  N   LIG    1       29.003 -21.239   8.266  0.00  0.00    -0.271 N 
ATOM      5  C   LIG    1       29.135 -21.411   6.804  0.00  0.00    +0.165 C 
ATOM      6  CA  LIG    1       27.588 -21.402   6.725  0.00  0.00    +0.190 C 
ATOM      7  C   LIG    1       27.677 -20.902   8.185  0.00  0.00    +0.240 C 
ATOM      8  O   LIG    1       26.969 -20.317   8.979  0.00  0.00    -0.273 OA
ATOM      9  S   LIG    1       30.030 -19.920   6.222  0.00  0.00    -0.127 S 
ATOM     10  C   LIG    1       31.746 -18.673   7.966  0.00  0.00    +0.025 C 
ENDROOT
BRANCH   6  11
ATOM     11  N   LIG    1       26.980 -20.510   5.711  0.00  0.00    -0.300 N 
ATOM     12  H   LIG    1       27.429 -19.649   5.402  0.00  0.00    +0.150 HD
ATOM     13  C   LIG    1       25.872 -20.901   4.980  0.00  0.00    +0.235 C 
ATOM     14  O   LIG    1       25.352 -22.001   5.155  0.00  0.00    -0.274 OA
BRANCH  13  15
ATOM     15  CA  LIG    1       25.399 -19.857   3.923  0.00  0.00    +0.168 C 
BRANCH  15  16
ATOM     16  C   LIG    1       23.965 -19.371   4.098  0.00  0.00    -0.022 A 
ATOM     17  C   LIG    1       22.914 -20.236   4.442  0.00  0.00    +0.006 A 
ATOM     18  C   LIG    1       21.602 -19.763   4.557  0.00  0.00    +0.000 A 
ATOM     19  C   LIG    1       21.319 -18.416   4.348  0.00  0.00    +0.000 A 
ATOM     20  C   LIG    1       22.352 -17.536   4.039  0.00  0.00    +0.000 A 
ATOM     21  C   LIG    1       23.665 -18.006   3.924  0.00  0.00    +0.006 A 
ENDBRANCH  15  16
BRANCH  15  22
ATOM     22  N   LIG    1       26.353 -18.717   3.889  0.00  0.00    -0.316 NA
ATOM     23  H1  LIG    1       27.126 -18.979   3.276  0.00  0.00    +0.119 HD
ATOM     24  H2  LIG    1       25.894 -17.938   3.415  0.00  0.00    +0.119 HD
ENDBRANCH  15  22
ENDBRANCH  13  15
ENDBRANCH   6  11
BRANCH   3  25
ATOM     25  C   LIG    1       31.144 -21.231   9.404  0.00  0.00    +0.327 C 
ATOM     26  O   LIG    1       32.324 -21.011   9.177  0.00  0.00    -0.249 OA
BRANCH  25  27
ATOM     27  OXT LIG    1       30.758 -22.271  10.190  0.00  0.00    -0.479 OA
ATOM     28  HXT LIG    1       29.934 -22.044  10.669  0.00  0.00    +0.295 HD
ENDBRANCH  25  27
ENDBRANCH   3  25
TORSDOF 6
ENDMDL
MODEL 7
REMARK VINA RESULT:      -5.7      6.527      8.702
REMARK  Name = *****
REMARK                            x       y       z     vdW  Elec       q    Type
REMARK                         _______ _______ _______ _____ _____    ______ ____
ROOT
ATOM      1  C   LIG    1       28.377 -18.503   6.369  0.00  0.00    +0.025 C 
ATOM      2  C   LIG    1       29.515 -19.501   6.663  0.00  0.00    +0.042 C 
ATOM      3  CA  LIG    1       29.610 -19.786   8.185  0.00  0.00    +0.201 C 
ATOM      4  N   LIG    1       28.745 -20.943   8.465  0.00  0.00    -0.271 N 
ATOM      5  C   LIG    1       28.644 -21.973   7.411  0.00  0.00    +0.165 C 
ATOM      6  CA  LIG    1       27.142 -22.103   7.768  0.00  0.00    +0.190 C 
ATOM      7  C   LIG    1       27.386 -20.803   8.569  0.00  0.00    +0.240 C 
ATOM      8  O   LIG    1       26.726 -19.894   9.028  0.00  0.00    -0.273 OA
ATOM      9  S   LIG    1       29.082 -21.114   5.853  0.00  0.00    -0.127 S 
ATOM     10  C   LIG    1       30.782 -18.962   5.990  0.00  0.00    +0.025 C 
ENDROOT
BRANCH   6  11
ATOM     11  N   LIG    1       26.186 -22.065   6.638  0.00  0.00    -0.300 N 
ATOM     12  H   LIG    1       26.480 -22.186   5.670  0.00  0.00    +0.150 HD
ATOM     13  C   LIG    1       24.818 -22.069   6.852  0.00  0.00    +0.235 C 
ATOM     14  O   LIG    1       24.354 -22.097   7.990  0.00  0.00    -0.274 OA
BRANCH  13  15
ATOM     15  CA  LIG    1       23.965 -22.079   5.547  0.00  0.00    +0.168 C 
BRANCH  15  16
ATOM     16  C   LIG    1       23.719 -20.705   4.932  0.00  0.00    -0.022 A 
ATOM     17  C   LIG    1       24.625 -20.104   4.044  0.00  0.00    +0.006 A 
ATOM     18  C   LIG    1       24.386 -18.825   3.529  0.00  0.00    +0.000 A 
ATOM     19  C   LIG    1       23.230 -18.132   3.878  0.00  0.00    +0.000 A 
ATOM     20  C   LIG    1       22.303 -18.723   4.731  0.00  0.00    +0.000 A 
ATOM     21  C   LIG    1       22.539 -20.002   5.246  0.00  0.00    +0.006 A 
ENDBRANCH  15  16
BRANCH  15  22
ATOM     22  N   LIG    1       24.575 -23.008   4.561  0.00  0.00    -0.316 NA
ATOM     23  H1  LIG    1       23.853 -23.669   4.271  0.00  0.00    +0.119 HD
ATOM     24  H2  LIG    1       24.793 -22.473   3.718  0.00  0.00    +0.119 HD
ENDBRANCH  15  22
ENDBRANCH  13  15
ENDBRANCH   6  11
BRANCH   3  25
ATOM     25  C   LIG    1       31.006 -20.112   8.747  0.00  0.00    +0.327 C 
ATOM     26  O   LIG    1       31.646 -19.385   9.491  0.00  0.00    -0.249 OA
BRANCH  25  27
ATOM     27  OXT LIG    1       31.460 -21.345   8.399  0.00  0.00    -0.479 OA
ATOM     28  HXT LIG    1       30.720 -21.901   8.079  0.00  0.00    +0.295 HD
ENDBRANCH  25  27
ENDBRANCH   3  25
TORSDOF 6
ENDMDL
MODEL 8
REMARK VINA RESULT:      -5.7      3.361      5.273
REMARK  Name = *****
REMARK                            x       y       z     vdW  Elec       q    Type
REMARK                         _______ _______ _______ _____ _____    ______ ____
ROOT
ATOM      1  C   LIG    1       22.350 -31.521  11.536  0.00  0.00    +0.025 C 
ATOM      2  C   LIG    1       23.594 -31.224  12.398  0.00  0.00    +0.042 C 
ATOM      3  CA  LIG    1       24.648 -32.350  12.240  0.00  0.00    +0.201 C 
ATOM      4  N   LIG    1       25.531 -31.968  11.127  0.00  0.00    -0.271 N 
ATOM      5  C   LIG    1       25.795 -30.525  10.949  0.00  0.00    +0.165 C 
ATOM      6  CA  LIG    1       25.726 -30.763   9.420  0.00  0.00    +0.190 C 
ATOM      7  C   LIG    1       25.144 -32.138   9.824  0.00  0.00    +0.240 C 
ATOM      8  O   LIG    1       24.483 -33.019   9.313  0.00  0.00    -0.273 OA
ATOM      9  S   LIG    1       24.381 -29.674  11.747  0.00  0.00    -0.127 S 
ATOM     10  C   LIG    1       23.106 -30.941  13.823  0.00  0.00    +0.025 C 
ENDROOT
BRANCH   6  11
ATOM     11  N   LIG    1       24.871 -29.838   8.642  0.00  0.00    -0.300 N 
ATOM     12  H   LIG    1       24.368 -29.065   9.075  0.00  0.00    +0.150 HD
ATOM     13  C   LIG    1       24.873 -29.848   7.258  0.00  0.00    +0.235 C 
ATOM     14  O   LIG    1       25.582 -30.633   6.630  0.00  0.00    -0.274 OA
BRANCH  13  15
ATOM     15  CA  LIG    1       23.952 -28.771   6.607  0.00  0.00    +0.168 C 
BRANCH  15  16
ATOM     16  C   LIG    1       24.627 -27.433   6.330  0.00  0.00    -0.022 A 
ATOM     17  C   LIG    1       24.025 -26.432   5.552  0.00  0.00    +0.006 A 
ATOM     18  C   LIG    1       24.690 -25.229   5.286  0.00  0.00    +0.000 A 
ATOM     19  C   LIG    1       25.961 -24.999   5.807  0.00  0.00    +0.000 A 
ATOM     20  C   LIG    1       26.562 -25.966   6.608  0.00  0.00    +0.000 A 
ATOM     21  C   LIG    1       25.898 -27.168   6.876  0.00  0.00    +0.006 A 
ENDBRANCH  15  16
BRANCH  15  22
ATOM     22  N   LIG    1       23.333 -29.326   5.375  0.00  0.00    -0.316 NA
ATOM     23  H1  LIG    1       23.655 -30.290   5.274  0.00  0.00    +0.119 HD
ATOM     24  H2  LIG    1       22.327 -29.401   5.535  0.00  0.00    +0.119 HD
ENDBRANCH  15  22
ENDBRANCH  13  15
ENDBRANCH   6  11
BRANCH   3  25
ATOM     25  C   LIG    1       25.546 -32.640  13.457  0.00  0.00    +0.327 C 
ATOM     26  O   LIG    1       26.498 -31.957  13.801  0.00  0.00    -0.249 OA
BRANCH  25  27
ATOM     27  OXT LIG    1       25.143 -33.712  14.190  0.00  0.00    -0.479 OA
ATOM     28  HXT LIG    1       24.165 -33.741  14.237  0.00  0.00    +0.295 HD
ENDBRANCH  25  27
ENDBRANCH   3  25
TORSDOF 6
ENDMDL
MODEL 9
REMARK VINA RESULT:      -5.7      4.717      6.629
REMARK  Name = *****
REMARK                            x       y       z     vdW  Elec       q    Type
REMARK                         _______ _______ _______ _____ _____    ______ ____
ROOT
ATOM      1  C   LIG    1       25.378 -28.696   7.589  0.00  0.00    +0.025 C 
ATOM      2  C   LIG    1       24.941 -30.172   7.687  0.00  0.00    +0.042 C 
ATOM      3  CA  LIG    1       26.161 -31.082   7.986  0.00  0.00    +0.201 C 
ATOM      4  N   LIG    1       26.275 -31.190   9.449  0.00  0.00    -0.271 N 
ATOM      5  C   LIG    1       25.015 -31.175  10.221  0.00  0.00    +0.165 C 
ATOM      6  CA  LIG    1       25.749 -30.322  11.285  0.00  0.00    +0.190 C 
ATOM      7  C   LIG    1       26.835 -30.185  10.192  0.00  0.00    +0.240 C 
ATOM      8  O   LIG    1       27.761 -29.443   9.934  0.00  0.00    -0.273 OA
ATOM      9  S   LIG    1       23.798 -30.332   9.141  0.00  0.00    -0.127 S 
ATOM     10  C   LIG    1       24.141 -30.497   6.421  0.00  0.00    +0.025 C 
ENDROOT
BRANCH   6  11
ATOM     11  N   LIG    1       25.057 -29.097  11.748  0.00  0.00    -0.300 N 
ATOM     12  H   LIG    1       24.311 -28.657  11.212  0.00  0.00    +0.150 HD
ATOM     13  C   LIG    1       25.243 -28.605  13.028  0.00  0.00    +0.235 C 
ATOM     14  O   LIG    1       25.997 -29.167  13.821  0.00  0.00    -0.274 OA
BRANCH  13  15
ATOM     15  CA  LIG    1       24.395 -27.339  13.359  0.00  0.00    +0.168 C 
BRANCH  15  16
ATOM     16  C   LIG    1       22.895 -27.584  13.468  0.00  0.00    -0.022 A 
ATOM     17  C   LIG    1       22.361 -28.818  13.872  0.00  0.00    +0.006 A 
ATOM     18  C   LIG    1       20.977 -29.020  13.925  0.00  0.00    +0.000 A 
ATOM     19  C   LIG    1       20.103 -27.988  13.592  0.00  0.00    +0.000 A 
ATOM     20  C   LIG    1       20.612 -26.748  13.221  0.00  0.00    +0.000 A 
ATOM     21  C   LIG    1       21.995 -26.543  13.169  0.00  0.00    +0.006 A 
ENDBRANCH  15  16
BRANCH  15  22
ATOM     22  N   LIG    1       24.926 -26.692  14.586  0.00  0.00    -0.316 NA
ATOM     23  H1  LIG    1       24.267 -25.962  14.862  0.00  0.00    +0.119 HD
ATOM     24  H2  LIG    1       24.889 -27.377  15.344  0.00  0.00    +0.119 HD
ENDBRANCH  15  22
ENDBRANCH  13  15
ENDBRANCH   6  11
BRANCH   3  25
ATOM     25  C   LIG    1       26.115 -32.515   7.424  0.00  0.00    +0.327 C 
ATOM     26  O   LIG    1       25.382 -33.403   7.833  0.00  0.00    -0.249 OA
BRANCH  25  27
ATOM     27  OXT LIG    1       26.930 -32.708   6.353  0.00  0.00    -0.479 OA
ATOM     28  HXT LIG    1       26.930 -31.913   5.781  0.00  0.00    +0.295 HD
ENDBRANCH  25  27
ENDBRANCH   3  25
TORSDOF 6
ENDMDL
