MODEL 1
REMARK VINA RESULT:      -6.9      0.000      0.000
REMARK  Name = *****
REMARK                            x       y       z     vdW  Elec       q    Type
REMARK                         _______ _______ _______ _____ _____    ______ ____
ROOT
ATOM      1  C   LIG    1       31.787 -17.131  10.308  0.00  0.00    +0.123 C 
ATOM      2  N   LIG    1       32.258 -18.319  10.082  0.00  0.00    -0.178 NA
ATOM      3  C   LIG    1       31.576 -19.178   9.253  0.00  0.00    +0.352 C 
ATOM      4  O   LIG    1       32.032 -20.287   8.982  0.00  0.00    -0.244 OA
ATOM      5  N   LIG    1       30.361 -18.756   8.713  0.00  0.00    -0.272 N 
ATOM      6  C   LIG    1       29.885 -17.480   8.925  0.00  0.00    +0.096 C 
ATOM      7  C   LIG    1       30.539 -16.625   9.708  0.00  0.00    +0.061 C 
ENDROOT
BRANCH   5   8
ATOM      8  C   LIG    1       29.662 -19.681   7.827  0.00  0.00    +0.235 C 
ATOM      9  O   LIG    1       28.478 -20.162   8.480  0.00  0.00    -0.340 OA
ATOM     10  C   LIG    1       27.605 -20.762   7.518  0.00  0.00    +0.203 C 
ATOM     11  S   LIG    1       27.976 -20.110   5.864  0.00  0.00    -0.123 S 
ATOM     12  C   LIG    1       29.255 -19.017   6.509  0.00  0.00    +0.126 C 
BRANCH  10  13
ATOM     13  C   LIG    1       26.154 -20.457   7.924  0.00  0.00    +0.198 C 
BRANCH  13  14
ATOM     14  O   LIG    1       25.913 -20.730   9.310  0.00  0.00    -0.392 OA
ATOM     15  H   LIG    1       26.178 -21.658   9.454  0.00  0.00    +0.209 HD
ENDBRANCH  13  14
ENDBRANCH  10  13
ENDBRANCH   5   8
BRANCH   1  16
ATOM     16  N   LIG    1       32.511 -16.324  11.141  0.00  0.00    -0.343 N 
ATOM     17  H   LIG    1       32.054 -16.186  12.038  0.00  0.00    +0.144 HD
ATOM     18  H   LIG    1       33.503 -16.503  11.216  0.00  0.00    +0.144 HD
ENDBRANCH   1  16
TORSDOF 4
ENDMDL
MODEL 2
REMARK VINA RESULT:      -6.7      3.520      6.185
REMARK  Name = *****
REMARK                            x       y       z     vdW  Elec       q    Type
REMARK                         _______ _______ _______ _____ _____    ______ ____
ROOT
ATOM      1  C   LIG    1       24.327 -21.559   6.844  0.00  0.00    +0.123 C 
ATOM      2  N   LIG    1       24.618 -21.236   8.066  0.00  0.00    -0.178 NA
ATOM      3  C   LIG    1       25.844 -20.683   8.354  0.00  0.00    +0.352 C 
ATOM      4  O   LIG    1       26.119 -20.319   9.495  0.00  0.00    -0.244 OA
ATOM      5  N   LIG    1       26.763 -20.529   7.316  0.00  0.00    -0.272 N 
ATOM      6  C   LIG    1       26.436 -20.838   6.013  0.00  0.00    +0.096 C 
ATOM      7  C   LIG    1       25.247 -21.356   5.710  0.00  0.00    +0.061 C 
ENDROOT
BRANCH   5   8
ATOM      8  C   LIG    1       28.053 -19.929   7.644  0.00  0.00    +0.235 C 
ATOM      9  O   LIG    1       28.786 -20.816   8.499  0.00  0.00    -0.340 OA
ATOM     10  C   LIG    1       30.164 -20.429   8.530  0.00  0.00    +0.203 C 
ATOM     11  S   LIG    1       30.563 -19.469   7.041  0.00  0.00    -0.123 S 
ATOM     12  C   LIG    1       28.891 -19.652   6.394  0.00  0.00    +0.126 C 
BRANCH  10  13
ATOM     13  C   LIG    1       31.022 -21.702   8.619  0.00  0.00    +0.198 C 
BRANCH  13  14
ATOM     14  O   LIG    1       32.206 -21.501   9.401  0.00  0.00    -0.392 OA
ATOM     15  H   LIG    1       32.002 -21.843  10.292  0.00  0.00    +0.209 HD
ENDBRANCH  13  14
ENDBRANCH  10  13
ENDBRANCH   5   8
BRANCH   1  16
ATOM     16  N   LIG    1       23.093 -22.105   6.622  0.00  0.00    -0.343 N 
ATOM     17  H   LIG    1       22.637 -22.391   7.484  0.00  0.00    +0.144 HD
ATOM     18  H   LIG    1       22.480 -21.621   5.980  0.00  0.00    +0.144 HD
ENDBRANCH   1  16
TORSDOF 4
ENDMDL
MODEL 3
REMARK VINA RESULT:      -6.2      3.929      6.891
REMARK  Name = *****
REMARK                            x       y       z     vdW  Elec       q    Type
REMARK                         _______ _______ _______ _____ _____    ______ ____
ROOT
ATOM      1  C   LIG    1       24.565 -23.463   6.414  0.00  0.00    +0.123 C 
ATOM      2  N   LIG    1       24.265 -22.310   5.901  0.00  0.00    -0.178 NA
ATOM      3  C   LIG    1       25.125 -21.248   6.054  0.00  0.00    +0.352 C 
ATOM      4  O   LIG    1       24.885 -20.163   5.529  0.00  0.00    -0.244 OA
ATOM      5  N   LIG    1       26.285 -21.436   6.805  0.00  0.00    -0.272 N 
ATOM      6  C   LIG    1       26.618 -22.672   7.316  0.00  0.00    +0.096 C 
ATOM      7  C   LIG    1       25.810 -23.719   7.162  0.00  0.00    +0.061 C 
ENDROOT
BRANCH   5   8
ATOM      8  C   LIG    1       27.188 -20.298   6.944  0.00  0.00    +0.235 C 
ATOM      9  O   LIG    1       28.102 -20.545   8.022  0.00  0.00    -0.340 OA
ATOM     10  C   LIG    1       29.204 -19.635   7.938  0.00  0.00    +0.203 C 
ATOM     11  S   LIG    1       29.371 -19.031   6.234  0.00  0.00    -0.123 S 
ATOM     12  C   LIG    1       27.994 -20.046   5.668  0.00  0.00    +0.126 C 
BRANCH  10  13
ATOM     13  C   LIG    1       30.474 -20.371   8.395  0.00  0.00    +0.198 C 
BRANCH  13  14
ATOM     14  O   LIG    1       31.555 -20.213   7.467  0.00  0.00    -0.392 OA
ATOM     15  H   LIG    1       31.956 -19.346   7.664  0.00  0.00    +0.209 HD
ENDBRANCH  13  14
ENDBRANCH  10  13
ENDBRANCH   5   8
BRANCH   1  16
ATOM     16  N   LIG    1       23.670 -24.479   6.227  0.00  0.00    -0.343 N 
ATOM     17  H   LIG    1       22.944 -24.236   5.559  0.00  0.00    +0.144 HD
ATOM     18  H   LIG    1       24.043 -25.410   6.099  0.00  0.00    +0.144 HD
ENDBRANCH   1  16
TORSDOF 4
ENDMDL
MODEL 4
REMARK VINA RESULT:      -6.1      3.566      4.733
REMARK  Name = *****
REMARK                            x       y       z     vdW  Elec       q    Type
REMARK                         _______ _______ _______ _____ _____    ______ ____
ROOT
ATOM      1  C   LIG    1       30.049 -20.417   7.399  0.00  0.00    +0.123 C 
ATOM      2  N   LIG    1       29.544 -19.760   6.401  0.00  0.00    -0.178 NA
ATOM      3  C   LIG    1       28.219 -19.926   6.072  0.00  0.00    +0.352 C 
ATOM      4  O   LIG    1       27.708 -19.272   5.166  0.00  0.00    -0.244 OA
ATOM      5  N   LIG    1       27.464 -20.844   6.803  0.00  0.00    -0.272 N 
ATOM      6  C   LIG    1       27.995 -21.512   7.885  0.00  0.00    +0.096 C 
ATOM      7  C   LIG    1       29.270 -21.350   8.234  0.00  0.00    +0.061 C 
ENDROOT
BRANCH   5   8
ATOM      8  C   LIG    1       26.058 -20.996   6.443  0.00  0.00    +0.235 C 
ATOM      9  O   LIG    1       25.804 -22.361   6.083  0.00  0.00    -0.340 OA
ATOM     10  C   LIG    1       24.394 -22.607   6.087  0.00  0.00    +0.203 C 
ATOM     11  S   LIG    1       23.563 -21.389   7.146  0.00  0.00    -0.123 S 
ATOM     12  C   LIG    1       25.126 -20.613   7.595  0.00  0.00    +0.126 C 
BRANCH  10  13
ATOM     13  C   LIG    1       24.154 -24.039   6.591  0.00  0.00    +0.198 C 
BRANCH  13  14
ATOM     14  O   LIG    1       22.761 -24.376   6.620  0.00  0.00    -0.392 OA
ATOM     15  H   LIG    1       22.696 -25.215   7.114  0.00  0.00    +0.209 HD
ENDBRANCH  13  14
ENDBRANCH  10  13
ENDBRANCH   5   8
BRANCH   1  16
ATOM     16  N   LIG    1       31.372 -20.208   7.676  0.00  0.00    -0.343 N 
ATOM     17  H   LIG    1       31.662 -20.663   8.537  0.00  0.00    +0.144 HD
ATOM     18  H   LIG    1       32.029 -20.321   6.916  0.00  0.00    +0.144 HD
ENDBRANCH   1  16
TORSDOF 4
ENDMDL
MODEL 5
REMARK VINA RESULT:      -6.1      3.563      5.307
REMARK  Name = *****
REMARK                            x       y       z     vdW  Elec       q    Type
REMARK                         _______ _______ _______ _____ _____    ______ ____
ROOT
ATOM      1  C   LIG    1       28.761 -19.821   7.304  0.00  0.00    +0.123 C 
ATOM      2  N   LIG    1       28.140 -19.941   8.437  0.00  0.00    -0.178 NA
ATOM      3  C   LIG    1       26.821 -20.332   8.456  0.00  0.00    +0.352 C 
ATOM      4  O   LIG    1       26.231 -20.505   9.520  0.00  0.00    -0.244 OA
ATOM      5  N   LIG    1       26.174 -20.544   7.238  0.00  0.00    -0.272 N 
ATOM      6  C   LIG    1       26.848 -20.452   6.040  0.00  0.00    +0.096 C 
ATOM      7  C   LIG    1       28.130 -20.095   6.000  0.00  0.00    +0.061 C 
ENDROOT
BRANCH   5   8
ATOM      8  C   LIG    1       24.778 -20.969   7.284  0.00  0.00    +0.235 C 
ATOM      9  O   LIG    1       24.055 -20.344   6.214  0.00  0.00    -0.340 OA
ATOM     10  C   LIG    1       22.807 -21.017   6.017  0.00  0.00    +0.203 C 
ATOM     11  S   LIG    1       22.912 -22.707   6.672  0.00  0.00    -0.123 S 
ATOM     12  C   LIG    1       24.636 -22.487   7.148  0.00  0.00    +0.126 C 
BRANCH  10  13
ATOM     13  C   LIG    1       22.492 -21.021   4.513  0.00  0.00    +0.198 C 
BRANCH  13  14
ATOM     14  O   LIG    1       23.562 -21.575   3.738  0.00  0.00    -0.392 OA
ATOM     15  H   LIG    1       24.208 -21.926   4.380  0.00  0.00    +0.209 HD
ENDBRANCH  13  14
ENDBRANCH  10  13
ENDBRANCH   5   8
BRANCH   1  16
ATOM     16  N   LIG    1       30.070 -19.429   7.351  0.00  0.00    -0.343 N 
ATOM     17  H   LIG    1       30.214 -18.515   6.932  0.00  0.00    +0.144 HD
ATOM     18  H   LIG    1       30.562 -19.557   8.225  0.00  0.00    +0.144 HD
ENDBRANCH   1  16
TORSDOF 4
ENDMDL
MODEL 6
REMARK VINA RESULT:      -6.0      5.798      8.699
REMARK  Name = *****
REMARK                            x       y       z     vdW  Elec       q    Type
REMARK                         _______ _______ _______ _____ _____    ______ ____
ROOT
ATOM      1  C   LIG    1       24.555 -26.876   5.762  0.00  0.00    +0.123 C 
ATOM      2  N   LIG    1       23.553 -26.124   6.097  0.00  0.00    -0.178 NA
ATOM      3  C   LIG    1       23.773 -24.823   6.484  0.00  0.00    +0.352 C 
ATOM      4  O   LIG    1       22.833 -24.077   6.752  0.00  0.00    -0.244 OA
ATOM      5  N   LIG    1       25.089 -24.363   6.550  0.00  0.00    -0.272 N 
ATOM      6  C   LIG    1       26.147 -25.154   6.158  0.00  0.00    +0.096 C 
ATOM      7  C   LIG    1       25.954 -26.410   5.760  0.00  0.00    +0.061 C 
ENDROOT
BRANCH   5   8
ATOM      8  C   LIG    1       25.297 -22.976   6.953  0.00  0.00    +0.235 C 
ATOM      9  O   LIG    1       26.606 -22.838   7.525  0.00  0.00    -0.340 OA
ATOM     10  C   LIG    1       26.964 -21.454   7.582  0.00  0.00    +0.203 C 
ATOM     11  S   LIG    1       25.999 -20.520   6.360  0.00  0.00    -0.123 S 
ATOM     12  C   LIG    1       25.177 -22.011   5.771  0.00  0.00    +0.126 C 
BRANCH  10  13
ATOM     13  C   LIG    1       28.472 -21.333   7.312  0.00  0.00    +0.198 C 
BRANCH  13  14
ATOM     14  O   LIG    1       29.250 -21.480   8.506  0.00  0.00    -0.392 OA
ATOM     15  H   LIG    1       28.992 -20.742   9.090  0.00  0.00    +0.209 HD
ENDBRANCH  13  14
ENDBRANCH  10  13
ENDBRANCH   5   8
BRANCH   1  16
ATOM     16  N   LIG    1       24.271 -28.159   5.387  0.00  0.00    -0.343 N 
ATOM     17  H   LIG    1       23.840 -28.695   6.135  0.00  0.00    +0.144 HD
ATOM     18  H   LIG    1       23.829 -28.293   4.487  0.00  0.00    +0.144 HD
ENDBRANCH   1  16
TORSDOF 4
ENDMDL
MODEL 7
REMARK VINA RESULT:      -5.8      3.316      5.906
REMARK  Name = *****
REMARK                            x       y       z     vdW  Elec       q    Type
REMARK                         _______ _______ _______ _____ _____    ______ ____
ROOT
ATOM      1  C   LIG    1       24.793 -20.969   7.010  0.00  0.00    +0.123 C 
ATOM      2  N   LIG    1       25.428 -20.452   6.004  0.00  0.00    -0.178 NA
ATOM      3  C   LIG    1       26.782 -20.231   6.090  0.00  0.00    +0.352 C 
ATOM      4  O   LIG    1       27.411 -19.794   5.129  0.00  0.00    -0.244 OA
ATOM      5  N   LIG    1       27.429 -20.529   7.290  0.00  0.00    -0.272 N 
ATOM      6  C   LIG    1       26.757 -21.113   8.343  0.00  0.00    +0.096 C 
ATOM      7  C   LIG    1       25.449 -21.354   8.273  0.00  0.00    +0.061 C 
ENDROOT
BRANCH   5   8
ATOM      8  C   LIG    1       28.868 -20.296   7.354  0.00  0.00    +0.235 C 
ATOM      9  O   LIG    1       29.114 -18.985   7.882  0.00  0.00    -0.340 OA
ATOM     10  C   LIG    1       30.481 -18.879   8.292  0.00  0.00    +0.203 C 
ATOM     11  S   LIG    1       31.153 -20.534   8.617  0.00  0.00    -0.123 S 
ATOM     12  C   LIG    1       29.576 -21.321   8.242  0.00  0.00    +0.126 C 
BRANCH  10  13
ATOM     13  C   LIG    1       30.541 -17.997   9.550  0.00  0.00    +0.198 C 
BRANCH  13  14
ATOM     14  O   LIG    1       30.711 -18.769  10.745  0.00  0.00    -0.392 OA
ATOM     15  H   LIG    1       31.049 -19.639  10.459  0.00  0.00    +0.209 HD
ENDBRANCH  13  14
ENDBRANCH  10  13
ENDBRANCH   5   8
BRANCH   1  16
ATOM     16  N   LIG    1       23.448 -21.165   6.863  0.00  0.00    -0.343 N 
ATOM     17  H   LIG    1       22.965 -21.218   7.755  0.00  0.00    +0.144 HD
ATOM     18  H   LIG    1       22.968 -20.597   6.177  0.00  0.00    +0.144 HD
ENDBRANCH   1  16
TORSDOF 4
ENDMDL
MODEL 8
REMARK VINA RESULT:      -5.8      3.035      5.501
REMARK  Name = *****
REMARK                            x       y       z     vdW  Elec       q    Type
REMARK                         _______ _______ _______ _____ _____    ______ ____
ROOT
ATOM      1  C   LIG    1       29.289 -19.867   6.483  0.00  0.00    +0.123 C 
ATOM      2  N   LIG    1       29.604 -20.743   7.387  0.00  0.00    -0.178 NA
ATOM      3  C   LIG    1       30.278 -20.345   8.518  0.00  0.00    +0.352 C 
ATOM      4  O   LIG    1       30.536 -21.149   9.412  0.00  0.00    -0.244 OA
ATOM      5  N   LIG    1       30.646 -19.005   8.636  0.00  0.00    -0.272 N 
ATOM      6  C   LIG    1       30.276 -18.072   7.691  0.00  0.00    +0.096 C 
ATOM      7  C   LIG    1       29.605 -18.432   6.597  0.00  0.00    +0.061 C 
ENDROOT
BRANCH   5   8
ATOM      8  C   LIG    1       31.350 -18.605   9.850  0.00  0.00    +0.235 C 
ATOM      9  O   LIG    1       32.331 -17.610   9.525  0.00  0.00    -0.340 OA
ATOM     10  C   LIG    1       32.763 -16.950  10.719  0.00  0.00    +0.203 C 
ATOM     11  S   LIG    1       31.495 -17.121  12.007  0.00  0.00    -0.123 S 
ATOM     12  C   LIG    1       30.399 -18.028  10.901  0.00  0.00    +0.126 C 
BRANCH  10  13
ATOM     13  C   LIG    1       33.025 -15.472  10.387  0.00  0.00    +0.198 C 
BRANCH  13  14
ATOM     14  O   LIG    1       32.739 -15.167   9.016  0.00  0.00    -0.392 OA
ATOM     15  H   LIG    1       31.808 -15.422   8.871  0.00  0.00    +0.209 HD
ENDBRANCH  13  14
ENDBRANCH  10  13
ENDBRANCH   5   8
BRANCH   1  16
ATOM     16  N   LIG    1       28.620 -20.324   5.382  0.00  0.00    -0.343 N 
ATOM     17  H   LIG    1       27.746 -20.783   5.623  0.00  0.00    +0.144 HD
ATOM     18  H   LIG    1       28.543 -19.698   4.592  0.00  0.00    +0.144 HD
ENDBRANCH   1  16
TORSDOF 4
ENDMDL
MODEL 9
REMARK VINA RESULT:      -5.7      6.793      8.582
REMARK  Name = *****
REMARK                            x       y       z     vdW  Elec       q    Type
REMARK                         _______ _______ _______ _____ _____    ______ ____
ROOT
ATOM      1  C   LIG    1       23.734 -21.931   7.321  0.00  0.00    +0.123 C 
ATOM      2  N   LIG    1       25.028 -22.009   7.363  0.00  0.00    -0.178 NA
ATOM      3  C   LIG    1       25.654 -23.185   7.023  0.00  0.00    +0.352 C 
ATOM      4  O   LIG    1       26.881 -23.262   7.002  0.00  0.00    -0.244 OA
ATOM      5  N   LIG    1       24.865 -24.284   6.684  0.00  0.00    -0.272 N 
ATOM      6  C   LIG    1       23.492 -24.186   6.604  0.00  0.00    +0.096 C 
ATOM      7  C   LIG    1       22.867 -23.051   6.910  0.00  0.00    +0.061 C 
ENDROOT
BRANCH   5   8
ATOM      8  C   LIG    1       25.552 -25.517   6.315  0.00  0.00    +0.235 C 
ATOM      9  O   LIG    1       25.013 -26.608   7.076  0.00  0.00    -0.340 OA
ATOM     10  C   LIG    1       25.400 -27.850   6.481  0.00  0.00    +0.203 C 
ATOM     11  S   LIG    1       25.804 -27.590   4.730  0.00  0.00    -0.123 S 
ATOM     12  C   LIG    1       25.398 -25.837   4.827  0.00  0.00    +0.126 C 
BRANCH  10  13
ATOM     13  C   LIG    1       24.241 -28.847   6.643  0.00  0.00    +0.198 C 
BRANCH  13  14
ATOM     14  O   LIG    1       23.508 -29.026   5.426  0.00  0.00    -0.392 OA
ATOM     15  H   LIG    1       22.580 -29.179   5.688  0.00  0.00    +0.209 HD
ENDBRANCH  13  14
ENDBRANCH  10  13
ENDBRANCH   5   8
BRANCH   1  16
ATOM     16  N   LIG    1       23.171 -20.736   7.671  0.00  0.00    -0.343 N 
ATOM     17  H   LIG    1       23.049 -20.645   8.676  0.00  0.00    +0.144 HD
ATOM     18  H   LIG    1       23.538 -19.902   7.231  0.00  0.00    +0.144 HD
ENDBRANCH   1  16
TORSDOF 4
ENDMDL
