MODEL 1
REMARK VINA RESULT:      -6.7      0.000      0.000
REMARK  Name = *****
REMARK                            x       y       z     vdW  Elec       q    Type
REMARK                         _______ _______ _______ _____ _____    ______ ____
ROOT
ATOM      1  C   LIG    1       26.908 -20.918   8.324  0.00  0.00    +0.307 C 
ATOM      2  O   LIG    1       26.061 -20.726   9.187  0.00  0.00    -0.251 OA
ENDROOT
BRANCH   1   3
ATOM      3  C   LIG    1       26.749 -21.929   7.225  0.00  0.00    +0.120 C 
BRANCH   3   4
ATOM      4  C   LIG    1       25.740 -23.009   7.600  0.00  0.00    +0.011 C 
BRANCH   4   5
ATOM      5  C   LIG    1       24.493 -22.968   6.711  0.00  0.00    +0.000 C 
BRANCH   5   6
ATOM      6  C   LIG    1       23.358 -22.130   7.308  0.00  0.00    -0.000 C 
BRANCH   6   7
ATOM      7  C   LIG    1       23.288 -20.703   6.752  0.00  0.00    -0.000 C 
BRANCH   7   9
ATOM      8  C   LIG    1       22.465 -19.202   4.872  0.00  0.00    +0.004 C 
ATOM      9  C   LIG    1       22.573 -20.625   5.401  0.00  0.00    -0.003 C 
ENDBRANCH   7   9
ENDBRANCH   6   7
ENDBRANCH   5   6
ENDBRANCH   4   5
ENDBRANCH   3   4
ENDBRANCH   1   3
BRANCH   1  10
ATOM     10  O   LIG    1       28.062 -20.221   8.217  0.00  0.00    -0.462 OA
BRANCH  10  11
ATOM     11  C   LIG    1       29.164 -20.924   7.601  0.00  0.00    +0.265 C 
BRANCH  11  12
ATOM     12  C   LIG    1       30.452 -20.672   8.392  0.00  0.00    +0.177 C 
BRANCH  12  13
ATOM     13  O   LIG    1       31.521 -20.305   7.500  0.00  0.00    -0.386 OA
ATOM     14  H   LIG    1       31.144 -20.296   6.602  0.00  0.00    +0.210 HD
ENDBRANCH  12  13
BRANCH  12  15
ATOM     15  C   LIG    1       30.898 -21.918   9.155  0.00  0.00    +0.190 C 
BRANCH  15  16
ATOM     16  O   LIG    1       32.179 -22.329   8.675  0.00  0.00    -0.392 OA
ATOM     17  H   LIG    1       32.334 -21.791   7.873  0.00  0.00    +0.209 HD
ENDBRANCH  15  16
ENDBRANCH  12  15
ENDBRANCH  11  12
ENDBRANCH  10  11
ENDBRANCH   1  10
TORSDOF 12
ENDMDL
MODEL 2
REMARK VINA RESULT:      -6.6      1.323      1.938
REMARK  Name = *****
REMARK                            x       y       z     vdW  Elec       q    Type
REMARK                         _______ _______ _______ _____ _____    ______ ____
ROOT
ATOM      1  C   LIG    1       26.565 -20.665   8.410  0.00  0.00    +0.307 C 
ATOM      2  O   LIG    1       26.012 -20.425   9.476  0.00  0.00    -0.251 OA
ENDROOT
BRANCH   1   3
ATOM      3  C   LIG    1       25.851 -20.639   7.088  0.00  0.00    +0.120 C 
BRANCH   3   4
ATOM      4  C   LIG    1       24.602 -21.514   7.109  0.00  0.00    +0.011 C 
BRANCH   4   5
ATOM      5  C   LIG    1       23.319 -20.693   6.948  0.00  0.00    +0.000 C 
BRANCH   5   6
ATOM      6  C   LIG    1       22.795 -20.674   5.508  0.00  0.00    -0.000 C 
BRANCH   6   7
ATOM      7  C   LIG    1       22.469 -19.270   4.989  0.00  0.00    -0.000 C 
BRANCH   7   9
ATOM      8  C   LIG    1       24.565 -19.755   3.635  0.00  0.00    +0.004 C 
ATOM      9  C   LIG    1       23.356 -18.848   3.816  0.00  0.00    -0.003 C 
ENDBRANCH   7   9
ENDBRANCH   6   7
ENDBRANCH   5   6
ENDBRANCH   4   5
ENDBRANCH   3   4
ENDBRANCH   1   3
BRANCH   1  10
ATOM     10  O   LIG    1       27.884 -20.934   8.275  0.00  0.00    -0.462 OA
BRANCH  10  11
ATOM     11  C   LIG    1       28.668 -19.913   7.623  0.00  0.00    +0.265 C 
BRANCH  11  12
ATOM     12  C   LIG    1       30.161 -20.227   7.768  0.00  0.00    +0.177 C 
BRANCH  12  13
ATOM     13  O   LIG    1       30.345 -21.588   8.199  0.00  0.00    -0.386 OA
ATOM     14  H   LIG    1       29.696 -21.746   8.908  0.00  0.00    +0.210 HD
ENDBRANCH  12  13
BRANCH  12  15
ATOM     15  C   LIG    1       30.830 -19.324   8.804  0.00  0.00    +0.190 C 
BRANCH  15  16
ATOM     16  O   LIG    1       32.083 -19.894   9.184  0.00  0.00    -0.392 OA
ATOM     17  H   LIG    1       32.621 -19.892   8.367  0.00  0.00    +0.209 HD
ENDBRANCH  15  16
ENDBRANCH  12  15
ENDBRANCH  11  12
ENDBRANCH  10  11
ENDBRANCH   1  10
TORSDOF 12
ENDMDL
MODEL 3
REMARK VINA RESULT:      -6.6      2.026      2.883
REMARK  Name = *****
REMARK                            x       y       z     vdW  Elec       q    Type
REMARK                         _______ _______ _______ _____ _____    ______ ____
ROOT
ATOM      1  C   LIG    1       29.444 -20.837   7.757  0.00  0.00    +0.307 C 
ATOM      2  O   LIG    1       29.793 -21.506   8.722  0.00  0.00    -0.251 OA
ENDROOT
BRANCH   1   3
ATOM      3  C   LIG    1       28.097 -20.972   7.106  0.00  0.00    +0.120 C 
BRANCH   3   4
ATOM      4  C   LIG    1       27.049 -21.482   8.089  0.00  0.00    +0.011 C 
BRANCH   4   5
ATOM      5  C   LIG    1       25.767 -20.643   8.054  0.00  0.00    +0.000 C 
BRANCH   5   6
ATOM      6  C   LIG    1       24.983 -20.801   6.747  0.00  0.00    -0.000 C 
BRANCH   6   7
ATOM      7  C   LIG    1       23.469 -20.634   6.912  0.00  0.00    -0.000 C 
BRANCH   7   9
ATOM      8  C   LIG    1       22.476 -19.283   5.001  0.00  0.00    +0.004 C 
ATOM      9  C   LIG    1       22.717 -20.670   5.580  0.00  0.00    -0.003 C 
ENDBRANCH   7   9
ENDBRANCH   6   7
ENDBRANCH   5   6
ENDBRANCH   4   5
ENDBRANCH   3   4
ENDBRANCH   1   3
BRANCH   1  10
ATOM     10  O   LIG    1       30.195 -19.868   7.186  0.00  0.00    -0.462 OA
BRANCH  10  11
ATOM     11  C   LIG    1       30.317 -18.643   7.942  0.00  0.00    +0.265 C 
BRANCH  11  12
ATOM     12  C   LIG    1       31.753 -18.486   8.454  0.00  0.00    +0.177 C 
BRANCH  12  13
ATOM     13  O   LIG    1       32.140 -19.640   9.222  0.00  0.00    -0.386 OA
ATOM     14  H   LIG    1       32.276 -20.365   8.585  0.00  0.00    +0.210 HD
ENDBRANCH  12  13
BRANCH  12  15
ATOM     15  C   LIG    1       31.899 -17.263   9.358  0.00  0.00    +0.190 C 
BRANCH  15  16
ATOM     16  O   LIG    1       32.649 -16.259   8.673  0.00  0.00    -0.392 OA
ATOM     17  H   LIG    1       33.322 -15.961   9.318  0.00  0.00    +0.209 HD
ENDBRANCH  15  16
ENDBRANCH  12  15
ENDBRANCH  11  12
ENDBRANCH  10  11
ENDBRANCH   1  10
TORSDOF 12
ENDMDL
MODEL 4
REMARK VINA RESULT:      -6.5      1.724      2.599
REMARK  Name = *****
REMARK                            x       y       z     vdW  Elec       q    Type
REMARK                         _______ _______ _______ _____ _____    ______ ____
ROOT
ATOM      1  C   LIG    1       26.249 -20.627   8.309  0.00  0.00    +0.307 C 
ATOM      2  O   LIG    1       25.786 -20.741   9.437  0.00  0.00    -0.251 OA
ENDROOT
BRANCH   1   3
ATOM      3  C   LIG    1       25.465 -20.934   7.064  0.00  0.00    +0.120 C 
BRANCH   3   4
ATOM      4  C   LIG    1       23.985 -20.618   7.242  0.00  0.00    +0.011 C 
BRANCH   4   5
ATOM      5  C   LIG    1       23.089 -21.596   6.475  0.00  0.00    +0.000 C 
BRANCH   5   6
ATOM      6  C   LIG    1       22.463 -20.979   5.220  0.00  0.00    -0.000 C 
BRANCH   6   7
ATOM      7  C   LIG    1       22.499 -19.447   5.203  0.00  0.00    -0.000 C 
BRANCH   7   9
ATOM      8  C   LIG    1       24.496 -19.648   3.642  0.00  0.00    +0.004 C 
ATOM      9  C   LIG    1       23.225 -18.882   3.980  0.00  0.00    -0.003 C 
ENDBRANCH   7   9
ENDBRANCH   6   7
ENDBRANCH   5   6
ENDBRANCH   4   5
ENDBRANCH   3   4
ENDBRANCH   1   3
BRANCH   1  10
ATOM     10  O   LIG    1       27.491 -20.169   8.034  0.00  0.00    -0.462 OA
BRANCH  10  11
ATOM     11  C   LIG    1       27.853 -20.139   6.636  0.00  0.00    +0.265 C 
BRANCH  11  12
ATOM     12  C   LIG    1       29.377 -20.191   6.489  0.00  0.00    +0.177 C 
BRANCH  12  13
ATOM     13  O   LIG    1       29.952 -21.006   7.527  0.00  0.00    -0.386 OA
ATOM     14  H   LIG    1       30.874 -21.181   7.264  0.00  0.00    +0.210 HD
ENDBRANCH  12  13
BRANCH  12  15
ATOM     15  C   LIG    1       30.002 -18.801   6.598  0.00  0.00    +0.190 C 
BRANCH  15  16
ATOM     16  O   LIG    1       29.858 -18.122   5.349  0.00  0.00    -0.392 OA
ATOM     17  H   LIG    1       30.460 -17.352   5.409  0.00  0.00    +0.209 HD
ENDBRANCH  15  16
ENDBRANCH  12  15
ENDBRANCH  11  12
ENDBRANCH  10  11
ENDBRANCH   1  10
TORSDOF 12
ENDMDL
MODEL 5
REMARK VINA RESULT:      -6.5      1.806      2.389
REMARK  Name = *****
REMARK                            x       y       z     vdW  Elec       q    Type
REMARK                         _______ _______ _______ _____ _____    ______ ____
ROOT
ATOM      1  C   LIG    1       28.755 -20.364   8.000  0.00  0.00    +0.307 C 
ATOM      2  O   LIG    1       29.270 -21.387   8.433  0.00  0.00    -0.251 OA
ENDROOT
BRANCH   1   3
ATOM      3  C   LIG    1       27.392 -20.333   7.369  0.00  0.00    +0.120 C 
BRANCH   3   4
ATOM      4  C   LIG    1       26.296 -20.611   8.392  0.00  0.00    +0.011 C 
BRANCH   4   5
ATOM      5  C   LIG    1       25.223 -21.559   7.846  0.00  0.00    +0.000 C 
BRANCH   5   6
ATOM      6  C   LIG    1       23.963 -20.830   7.371  0.00  0.00    -0.000 C 
BRANCH   6   7
ATOM      7  C   LIG    1       23.948 -20.543   5.865  0.00  0.00    -0.000 C 
BRANCH   7   9
ATOM      8  C   LIG    1       22.411 -18.898   4.685  0.00  0.00    +0.004 C 
ATOM      9  C   LIG    1       22.542 -20.272   5.325  0.00  0.00    -0.003 C 
ENDBRANCH   7   9
ENDBRANCH   6   7
ENDBRANCH   5   6
ENDBRANCH   4   5
ENDBRANCH   3   4
ENDBRANCH   1   3
BRANCH   1  10
ATOM     10  O   LIG    1       29.315 -19.135   8.073  0.00  0.00    -0.462 OA
BRANCH  10  11
ATOM     11  C   LIG    1       30.633 -19.011   7.496  0.00  0.00    +0.265 C 
BRANCH  11  12
ATOM     12  C   LIG    1       31.667 -18.764   8.599  0.00  0.00    +0.177 C 
BRANCH  12  13
ATOM     13  O   LIG    1       32.073 -20.012   9.192  0.00  0.00    -0.386 OA
ATOM     14  H   LIG    1       31.322 -20.320   9.732  0.00  0.00    +0.210 HD
ENDBRANCH  12  13
BRANCH  12  15
ATOM     15  C   LIG    1       31.101 -17.888   9.716  0.00  0.00    +0.190 C 
BRANCH  15  16
ATOM     16  O   LIG    1       30.590 -18.724  10.755  0.00  0.00    -0.392 OA
ATOM     17  H   LIG    1       31.128 -18.506  11.544  0.00  0.00    +0.209 HD
ENDBRANCH  15  16
ENDBRANCH  12  15
ENDBRANCH  11  12
ENDBRANCH  10  11
ENDBRANCH   1  10
TORSDOF 12
ENDMDL
MODEL 6
REMARK VINA RESULT:      -6.5      2.624      4.243
REMARK  Name = *****
REMARK                            x       y       z     vdW  Elec       q    Type
REMARK                         _______ _______ _______ _____ _____    ______ ____
ROOT
ATOM      1  C   LIG    1       30.870 -19.937   8.074  0.00  0.00    +0.307 C 
ATOM      2  O   LIG    1       31.772 -19.685   7.286  0.00  0.00    -0.251 OA
ENDROOT
BRANCH   1   3
ATOM      3  C   LIG    1       29.721 -20.850   7.746  0.00  0.00    +0.120 C 
BRANCH   3   4
ATOM      4  C   LIG    1       28.982 -20.391   6.495  0.00  0.00    +0.011 C 
BRANCH   4   5
ATOM      5  C   LIG    1       27.462 -20.397   6.686  0.00  0.00    +0.000 C 
BRANCH   5   6
ATOM      6  C   LIG    1       27.043 -20.557   8.151  0.00  0.00    -0.000 C 
BRANCH   6   7
ATOM      7  C   LIG    1       25.526 -20.640   8.353  0.00  0.00    -0.000 C 
BRANCH   7   9
ATOM      8  C   LIG    1       23.457 -21.569   7.205  0.00  0.00    +0.004 C 
ATOM      9  C   LIG    1       24.759 -20.800   7.038  0.00  0.00    -0.003 C 
ENDBRANCH   7   9
ENDBRANCH   6   7
ENDBRANCH   5   6
ENDBRANCH   4   5
ENDBRANCH   3   4
ENDBRANCH   1   3
BRANCH   1  10
ATOM     10  O   LIG    1       30.812 -19.475   9.344  0.00  0.00    -0.462 OA
BRANCH  10  11
ATOM     11  C   LIG    1       30.313 -18.129   9.499  0.00  0.00    +0.265 C 
BRANCH  11  12
ATOM     12  C   LIG    1       31.132 -17.387  10.561  0.00  0.00    +0.177 C 
BRANCH  12  13
ATOM     13  O   LIG    1       30.330 -16.369  11.188  0.00  0.00    -0.386 OA
ATOM     14  H   LIG    1       30.788 -15.522  11.036  0.00  0.00    +0.210 HD
ENDBRANCH  12  13
BRANCH  12  15
ATOM     15  C   LIG    1       32.354 -16.700   9.954  0.00  0.00    +0.190 C 
BRANCH  15  16
ATOM     16  O   LIG    1       32.362 -16.917   8.543  0.00  0.00    -0.392 OA
ATOM     17  H   LIG    1       32.771 -17.798   8.424  0.00  0.00    +0.209 HD
ENDBRANCH  15  16
ENDBRANCH  12  15
ENDBRANCH  11  12
ENDBRANCH  10  11
ENDBRANCH   1  10
TORSDOF 12
ENDMDL
MODEL 7
REMARK VINA RESULT:      -6.4      1.760      2.336
REMARK  Name = *****
REMARK                            x       y       z     vdW  Elec       q    Type
REMARK                         _______ _______ _______ _____ _____    ______ ____
ROOT
ATOM      1  C   LIG    1       28.651 -19.725   6.013  0.00  0.00    +0.307 C 
ATOM      2  O   LIG    1       28.764 -18.771   5.253  0.00  0.00    -0.251 OA
ENDROOT
BRANCH   1   3
ATOM      3  C   LIG    1       27.328 -20.344   6.365  0.00  0.00    +0.120 C 
BRANCH   3   4
ATOM      4  C   LIG    1       27.158 -20.480   7.874  0.00  0.00    +0.011 C 
BRANCH   4   5
ATOM      5  C   LIG    1       25.689 -20.650   8.276  0.00  0.00    +0.000 C 
BRANCH   5   6
ATOM      6  C   LIG    1       24.995 -21.803   7.544  0.00  0.00    -0.000 C 
BRANCH   6   7
ATOM      7  C   LIG    1       23.490 -21.594   7.352  0.00  0.00    -0.000 C 
BRANCH   7   9
ATOM      8  C   LIG    1       22.546 -20.823   5.120  0.00  0.00    +0.004 C 
ATOM      9  C   LIG    1       23.165 -20.404   6.446  0.00  0.00    -0.003 C 
ENDBRANCH   7   9
ENDBRANCH   6   7
ENDBRANCH   5   6
ENDBRANCH   4   5
ENDBRANCH   3   4
ENDBRANCH   1   3
BRANCH   1  10
ATOM     10  O   LIG    1       29.690 -20.372   6.590  0.00  0.00    -0.462 OA
BRANCH  10  11
ATOM     11  C   LIG    1       30.695 -19.529   7.194  0.00  0.00    +0.265 C 
BRANCH  11  12
ATOM     12  C   LIG    1       30.902 -19.930   8.659  0.00  0.00    +0.177 C 
BRANCH  12  13
ATOM     13  O   LIG    1       32.169 -19.441   9.136  0.00  0.00    -0.386 OA
ATOM     14  H   LIG    1       32.028 -19.158  10.058  0.00  0.00    +0.210 HD
ENDBRANCH  12  13
BRANCH  12  15
ATOM     15  C   LIG    1       30.901 -21.448   8.834  0.00  0.00    +0.190 C 
BRANCH  15  16
ATOM     16  O   LIG    1       32.046 -21.834   9.596  0.00  0.00    -0.392 OA
ATOM     17  H   LIG    1       32.581 -21.018   9.680  0.00  0.00    +0.209 HD
ENDBRANCH  15  16
ENDBRANCH  12  15
ENDBRANCH  11  12
ENDBRANCH  10  11
ENDBRANCH   1  10
TORSDOF 12
ENDMDL
MODEL 8
REMARK VINA RESULT:      -6.3      4.559      6.169
REMARK  Name = *****
REMARK                            x       y       z     vdW  Elec       q    Type
REMARK                         _______ _______ _______ _____ _____    ______ ____
ROOT
ATOM      1  C   LIG    1       23.722 -24.642   6.452  0.00  0.00    +0.307 C 
ATOM      2  O   LIG    1       22.657 -24.125   6.766  0.00  0.00    -0.251 OA
ENDROOT
BRANCH   1   3
ATOM      3  C   LIG    1       24.923 -23.851   6.015  0.00  0.00    +0.120 C 
BRANCH   3   4
ATOM      4  C   LIG    1       25.813 -23.488   7.198  0.00  0.00    +0.011 C 
BRANCH   4   5
ATOM      5  C   LIG    1       25.333 -22.223   7.916  0.00  0.00    +0.000 C 
BRANCH   5   6
ATOM      6  C   LIG    1       24.960 -21.092   6.953  0.00  0.00    -0.000 C 
BRANCH   6   7
ATOM      7  C   LIG    1       23.484 -20.682   7.024  0.00  0.00    -0.000 C 
BRANCH   7   9
ATOM      8  C   LIG    1       22.567 -19.432   5.010  0.00  0.00    +0.004 C 
ATOM      9  C   LIG    1       22.772 -20.786   5.674  0.00  0.00    -0.003 C 
ENDBRANCH   7   9
ENDBRANCH   6   7
ENDBRANCH   5   6
ENDBRANCH   4   5
ENDBRANCH   3   4
ENDBRANCH   1   3
BRANCH   1  10
ATOM     10  O   LIG    1       23.972 -25.970   6.501  0.00  0.00    -0.462 OA
BRANCH  10  11
ATOM     11  C   LIG    1       24.344 -26.585   5.248  0.00  0.00    +0.265 C 
BRANCH  11  12
ATOM     12  C   LIG    1       24.693 -28.060   5.472  0.00  0.00    +0.177 C 
BRANCH  12  13
ATOM     13  O   LIG    1       23.578 -28.897   5.115  0.00  0.00    -0.386 OA
ATOM     14  H   LIG    1       23.953 -29.732   4.781  0.00  0.00    +0.210 HD
ENDBRANCH  12  13
BRANCH  12  15
ATOM     15  C   LIG    1       25.031 -28.344   6.935  0.00  0.00    +0.190 C 
BRANCH  15  16
ATOM     16  O   LIG    1       26.220 -27.637   7.289  0.00  0.00    -0.392 OA
ATOM     17  H   LIG    1       26.154 -27.499   8.256  0.00  0.00    +0.209 HD
ENDBRANCH  15  16
ENDBRANCH  12  15
ENDBRANCH  11  12
ENDBRANCH  10  11
ENDBRANCH   1  10
TORSDOF 12
ENDMDL
MODEL 9
REMARK VINA RESULT:      -6.2      1.470      2.141
REMARK  Name = *****
REMARK                            x       y       z     vdW  Elec       q    Type
REMARK                         _______ _______ _______ _____ _____    ______ ____
ROOT
ATOM      1  C   LIG    1       26.728 -21.010   8.438  0.00  0.00    +0.307 C 
ATOM      2  O   LIG    1       25.863 -20.748   9.265  0.00  0.00    -0.251 OA
ENDROOT
BRANCH   1   3
ATOM      3  C   LIG    1       26.713 -22.256   7.598  0.00  0.00    +0.120 C 
BRANCH   3   4
ATOM      4  C   LIG    1       25.589 -22.223   6.569  0.00  0.00    +0.011 C 
BRANCH   4   5
ATOM      5  C   LIG    1       24.354 -23.000   7.037  0.00  0.00    +0.000 C 
BRANCH   5   6
ATOM      6  C   LIG    1       23.106 -22.121   7.168  0.00  0.00    -0.000 C 
BRANCH   6   7
ATOM      7  C   LIG    1       23.281 -20.713   6.589  0.00  0.00    -0.000 C 
BRANCH   7   9
ATOM      8  C   LIG    1       22.455 -19.051   4.851  0.00  0.00    +0.004 C 
ATOM      9  C   LIG    1       22.522 -20.511   5.275  0.00  0.00    -0.003 C 
ENDBRANCH   7   9
ENDBRANCH   6   7
ENDBRANCH   5   6
ENDBRANCH   4   5
ENDBRANCH   3   4
ENDBRANCH   1   3
BRANCH   1  10
ATOM     10  O   LIG    1       27.770 -20.201   8.139  0.00  0.00    -0.462 OA
BRANCH  10  11
ATOM     11  C   LIG    1       28.936 -20.858   7.595  0.00  0.00    +0.265 C 
BRANCH  11  12
ATOM     12  C   LIG    1       29.742 -19.871   6.744  0.00  0.00    +0.177 C 
BRANCH  12  13
ATOM     13  O   LIG    1       30.365 -18.880   7.582  0.00  0.00    -0.386 OA
ATOM     14  H   LIG    1       31.302 -19.134   7.664  0.00  0.00    +0.210 HD
ENDBRANCH  12  13
BRANCH  12  15
ATOM     15  C   LIG    1       28.855 -19.134   5.743  0.00  0.00    +0.190 C 
BRANCH  15  16
ATOM     16  O   LIG    1       27.959 -20.064   5.134  0.00  0.00    -0.392 OA
ATOM     17  H   LIG    1       27.639 -19.615   4.325  0.00  0.00    +0.209 HD
ENDBRANCH  15  16
ENDBRANCH  12  15
ENDBRANCH  11  12
ENDBRANCH  10  11
ENDBRANCH   1  10
TORSDOF 12
ENDMDL
