MODEL 1
REMARK VINA RESULT:      -9.7      0.000      0.000
REMARK  Name = *****
REMARK                            x       y       z     vdW  Elec       q    Type
REMARK                         _______ _______ _______ _____ _____    ______ ____
ROOT
ATOM      1  C   LIG    1       25.978 -21.035   6.582  0.00  0.00    +0.044 C 
ATOM      2  C   LIG    1       25.572 -22.466   6.192  0.00  0.00    +0.006 C 
ATOM      3  C   LIG    1       24.063 -22.511   6.469  0.00  0.00    -0.001 C 
ATOM      4  C   LIG    1       23.710 -23.983   6.685  0.00  0.00    +0.034 C 
ATOM      5  C   LIG    1       25.045 -24.681   6.586  0.00  0.00    -0.073 C 
ATOM      6  C   LIG    1       25.283 -25.900   6.058  0.00  0.00    -0.027 C 
ATOM      7  C   LIG    1       23.863 -21.654   7.711  0.00  0.00    +0.036 C 
ATOM      8  C   LIG    1       26.111 -23.668   6.967  0.00  0.00    +0.035 C 
ATOM      9  C   LIG    1       24.980 -20.617   7.697  0.00  0.00    +0.122 C 
ENDROOT
BRANCH   1  11
ATOM     10  C   LIG    1       28.197 -19.816   6.264  0.00  0.00    +0.000 C 
ATOM     11  C   LIG    1       27.460 -20.818   6.778  0.00  0.00    -0.022 C 
BRANCH  10  12
ATOM     12  C   LIG    1       29.665 -19.567   6.422  0.00  0.00    +0.141 C 
BRANCH  12  13
ATOM     13  C   LIG    1       30.170 -19.454   7.873  0.00  0.00    +0.030 C 
ATOM     14  C   LIG    1       30.675 -20.816   8.382  0.00  0.00    +0.011 C 
BRANCH  13  15
ATOM     15  C   LIG    1       31.274 -18.383   7.980  0.00  0.00    +0.095 C 
BRANCH  15  18
ATOM     16  C   LIG    1       31.430 -16.663  11.743  0.00  0.00    +0.106 C 
ATOM     17  C   LIG    1       31.343 -17.263  10.406  0.00  0.00    -0.106 C 
ATOM     18  C   LIG    1       31.294 -17.753   9.319  0.00  0.00    -0.102 C 
ENDBRANCH  15  18
ENDBRANCH  13  15
ENDBRANCH  12  13
BRANCH  12  19
ATOM     19  O   LIG    1       29.943 -18.374   5.693  0.00  0.00    -0.388 OA
ATOM     20  H   LIG    1       29.107 -17.883   5.620  0.00  0.00    +0.210 HD
ENDBRANCH  12  19
ENDBRANCH  10  12
ENDBRANCH   1  11
BRANCH   9  21
ATOM     21  O   LIG    1       25.503 -20.601   9.018  0.00  0.00    -0.391 OA
ATOM     22  H   LIG    1       24.844 -21.025   9.597  0.00  0.00    +0.210 HD
ENDBRANCH   9  21
BRANCH   6  23
ATOM     23  C   LIG    1       24.267 -26.877   5.487  0.00  0.00    +0.028 C 
BRANCH  23  24
ATOM     24  C   LIG    1       24.334 -28.264   6.165  0.00  0.00    +0.015 C 
BRANCH  24  25
ATOM     25  C   LIG    1       25.010 -29.357   5.327  0.00  0.00    +0.121 C 
BRANCH  25  26
ATOM     26  C   LIG    1       24.998 -30.697   6.042  0.00  0.00    +0.307 C 
ATOM     27  O   LIG    1       25.905 -31.517   5.971  0.00  0.00    -0.251 OA
BRANCH  26  28
ATOM     28  O   LIG    1       23.875 -30.852   6.798  0.00  0.00    -0.457 OA
BRANCH  28  29
ATOM     29  C   LIG    1       24.092 -31.488   8.067  0.00  0.00    +0.311 C 
BRANCH  29  30
ATOM     30  C   LIG    1       23.666 -30.621   9.250  0.00  0.00    +0.200 C 
ATOM     31  O   LIG    1       22.506 -30.593   9.663  0.00  0.00    -0.288 OA
BRANCH  30  32
ATOM     32  C   LIG    1       24.703 -29.794   9.932  0.00  0.00    +0.021 A 
ATOM     33  C   LIG    1       25.822 -29.291   9.256  0.00  0.00    +0.011 A 
ATOM     34  C   LIG    1       26.788 -28.559   9.952  0.00  0.00    +0.001 A 
ATOM     35  C   LIG    1       26.631 -28.307  11.316  0.00  0.00    +0.000 A 
ATOM     36  C   LIG    1       25.510 -28.789  11.989  0.00  0.00    +0.001 A 
ATOM     37  C   LIG    1       24.550 -29.534  11.301  0.00  0.00    +0.011 A 
ENDBRANCH  30  32
ENDBRANCH  29  30
ENDBRANCH  28  29
ENDBRANCH  26  28
ENDBRANCH  25  26
ENDBRANCH  24  25
ENDBRANCH  23  24
ENDBRANCH   6  23
TORSDOF 15
ENDMDL
MODEL 2
REMARK VINA RESULT:      -9.6      1.658      2.265
REMARK  Name = *****
REMARK                            x       y       z     vdW  Elec       q    Type
REMARK                         _______ _______ _______ _____ _____    ______ ____
ROOT
ATOM      1  C   LIG    1       25.887 -21.237   6.515  0.00  0.00    +0.044 C 
ATOM      2  C   LIG    1       25.529 -22.697   6.189  0.00  0.00    +0.006 C 
ATOM      3  C   LIG    1       24.001 -22.744   6.331  0.00  0.00    -0.001 C 
ATOM      4  C   LIG    1       23.642 -24.204   6.615  0.00  0.00    +0.034 C 
ATOM      5  C   LIG    1       24.985 -24.888   6.685  0.00  0.00    -0.073 C 
ATOM      6  C   LIG    1       25.279 -26.136   6.265  0.00  0.00    -0.027 C 
ATOM      7  C   LIG    1       23.682 -21.808   7.488  0.00  0.00    +0.036 C 
ATOM      8  C   LIG    1       26.004 -23.837   7.090  0.00  0.00    +0.035 C 
ATOM      9  C   LIG    1       24.788 -20.759   7.504  0.00  0.00    +0.122 C 
ENDROOT
BRANCH   1  11
ATOM     10  C   LIG    1       28.109 -19.998   6.334  0.00  0.00    +0.000 C 
ATOM     11  C   LIG    1       27.342 -20.987   6.829  0.00  0.00    -0.022 C 
BRANCH  10  12
ATOM     12  C   LIG    1       29.555 -19.718   6.607  0.00  0.00    +0.141 C 
BRANCH  12  13
ATOM     13  C   LIG    1       29.911 -19.423   8.077  0.00  0.00    +0.030 C 
ATOM     14  C   LIG    1       31.165 -20.206   8.502  0.00  0.00    +0.011 C 
BRANCH  13  15
ATOM     15  C   LIG    1       30.107 -17.909   8.293  0.00  0.00    +0.095 C 
BRANCH  15  18
ATOM     16  C   LIG    1       31.547 -16.984  12.064  0.00  0.00    +0.106 C 
ATOM     17  C   LIG    1       31.030 -17.343  10.737  0.00  0.00    -0.106 C 
ATOM     18  C   LIG    1       30.610 -17.614   9.653  0.00  0.00    -0.102 C 
ENDBRANCH  15  18
ENDBRANCH  13  15
ENDBRANCH  12  13
BRANCH  12  19
ATOM     19  O   LIG    1       29.909 -18.621   5.769  0.00  0.00    -0.388 OA
ATOM     20  H   LIG    1       30.668 -18.177   6.185  0.00  0.00    +0.210 HD
ENDBRANCH  12  19
ENDBRANCH  10  12
ENDBRANCH   1  11
BRANCH   9  21
ATOM     21  O   LIG    1       25.187 -20.647   8.863  0.00  0.00    -0.391 OA
ATOM     22  H   LIG    1       26.087 -20.274   8.873  0.00  0.00    +0.210 HD
ENDBRANCH   9  21
BRANCH   6  23
ATOM     23  C   LIG    1       24.328 -27.164   5.673  0.00  0.00    +0.028 C 
BRANCH  23  24
ATOM     24  C   LIG    1       24.624 -28.598   6.166  0.00  0.00    +0.015 C 
BRANCH  24  25
ATOM     25  C   LIG    1       25.146 -28.687   7.606  0.00  0.00    +0.121 C 
BRANCH  25  26
ATOM     26  C   LIG    1       24.405 -29.745   8.405  0.00  0.00    +0.307 C 
ATOM     27  O   LIG    1       23.626 -30.551   7.913  0.00  0.00    -0.251 OA
BRANCH  26  28
ATOM     28  O   LIG    1       24.744 -29.706   9.724  0.00  0.00    -0.457 OA
BRANCH  28  29
ATOM     29  C   LIG    1       23.902 -30.494  10.581  0.00  0.00    +0.311 C 
BRANCH  29  30
ATOM     30  C   LIG    1       24.025 -30.112  12.055  0.00  0.00    +0.200 C 
ATOM     31  O   LIG    1       24.629 -30.810  12.868  0.00  0.00    -0.288 OA
BRANCH  30  32
ATOM     32  C   LIG    1       23.398 -28.837  12.510  0.00  0.00    +0.021 A 
ATOM     33  C   LIG    1       24.153 -27.776  13.027  0.00  0.00    +0.011 A 
ATOM     34  C   LIG    1       23.511 -26.620  13.481  0.00  0.00    +0.001 A 
ATOM     35  C   LIG    1       22.122 -26.509  13.400  0.00  0.00    +0.000 A 
ATOM     36  C   LIG    1       21.370 -27.554  12.870  0.00  0.00    +0.001 A 
ATOM     37  C   LIG    1       22.004 -28.718  12.429  0.00  0.00    +0.011 A 
ENDBRANCH  30  32
ENDBRANCH  29  30
ENDBRANCH  28  29
ENDBRANCH  26  28
ENDBRANCH  25  26
ENDBRANCH  24  25
ENDBRANCH  23  24
ENDBRANCH   6  23
TORSDOF 15
ENDMDL
MODEL 3
REMARK VINA RESULT:      -9.5      1.747      2.371
REMARK  Name = *****
REMARK                            x       y       z     vdW  Elec       q    Type
REMARK                         _______ _______ _______ _____ _____    ______ ____
ROOT
ATOM      1  C   LIG    1       25.859 -21.652   6.571  0.00  0.00    +0.044 C 
ATOM      2  C   LIG    1       25.494 -23.099   6.203  0.00  0.00    +0.006 C 
ATOM      3  C   LIG    1       23.960 -23.117   6.247  0.00  0.00    -0.001 C 
ATOM      4  C   LIG    1       23.555 -24.572   6.487  0.00  0.00    +0.034 C 
ATOM      5  C   LIG    1       24.877 -25.285   6.633  0.00  0.00    -0.073 C 
ATOM      6  C   LIG    1       25.173 -26.533   6.215  0.00  0.00    -0.027 C 
ATOM      7  C   LIG    1       23.586 -22.189   7.394  0.00  0.00    +0.036 C 
ATOM      8  C   LIG    1       25.889 -24.260   7.116  0.00  0.00    +0.035 C 
ATOM      9  C   LIG    1       24.709 -21.163   7.494  0.00  0.00    +0.122 C 
ENDROOT
BRANCH   1  11
ATOM     10  C   LIG    1       27.820 -20.308   7.496  0.00  0.00    +0.000 C 
ATOM     11  C   LIG    1       27.296 -21.435   6.980  0.00  0.00    -0.022 C 
BRANCH  10  12
ATOM     12  C   LIG    1       29.237 -20.045   7.905  0.00  0.00    +0.141 C 
BRANCH  12  13
ATOM     13  C   LIG    1       30.179 -19.572   6.781  0.00  0.00    +0.030 C 
ATOM     14  C   LIG    1       29.503 -18.490   5.922  0.00  0.00    +0.011 C 
BRANCH  13  15
ATOM     15  C   LIG    1       31.508 -19.058   7.370  0.00  0.00    +0.095 C 
BRANCH  15  18
ATOM     16  C   LIG    1       30.772 -16.641  10.652  0.00  0.00    +0.106 C 
ATOM     17  C   LIG    1       31.062 -17.482   9.483  0.00  0.00    -0.106 C 
ATOM     18  C   LIG    1       31.281 -18.178   8.539  0.00  0.00    -0.102 C 
ENDBRANCH  15  18
ENDBRANCH  13  15
ENDBRANCH  12  13
BRANCH  12  19
ATOM     19  O   LIG    1       29.710 -21.256   8.489  0.00  0.00    -0.388 OA
ATOM     20  H   LIG    1       30.679 -21.254   8.405  0.00  0.00    +0.210 HD
ENDBRANCH  12  19
ENDBRANCH  10  12
ENDBRANCH   1  11
BRANCH   9  21
ATOM     21  O   LIG    1       25.023 -21.077   8.878  0.00  0.00    -0.391 OA
ATOM     22  H   LIG    1       24.201 -20.856   9.350  0.00  0.00    +0.210 HD
ENDBRANCH   9  21
BRANCH   6  23
ATOM     23  C   LIG    1       24.242 -27.534   5.549  0.00  0.00    +0.028 C 
BRANCH  23  24
ATOM     24  C   LIG    1       24.297 -28.928   6.214  0.00  0.00    +0.015 C 
BRANCH  24  25
ATOM     25  C   LIG    1       25.089 -28.982   7.527  0.00  0.00    +0.121 C 
BRANCH  25  26
ATOM     26  C   LIG    1       25.413 -30.412   7.926  0.00  0.00    +0.307 C 
ATOM     27  O   LIG    1       24.883 -31.396   7.427  0.00  0.00    -0.251 OA
BRANCH  26  28
ATOM     28  O   LIG    1       26.388 -30.458   8.876  0.00  0.00    -0.457 OA
BRANCH  28  29
ATOM     29  C   LIG    1       25.932 -30.202  10.214  0.00  0.00    +0.311 C 
BRANCH  29  30
ATOM     30  C   LIG    1       26.816 -29.209  10.967  0.00  0.00    +0.200 C 
ATOM     31  O   LIG    1       28.039 -29.183  10.834  0.00  0.00    -0.288 OA
BRANCH  30  32
ATOM     32  C   LIG    1       26.160 -28.230  11.882  0.00  0.00    +0.021 A 
ATOM     33  C   LIG    1       24.879 -28.441  12.408  0.00  0.00    +0.011 A 
ATOM     34  C   LIG    1       24.293 -27.470  13.226  0.00  0.00    +0.001 A 
ATOM     35  C   LIG    1       24.988 -26.302  13.540  0.00  0.00    +0.000 A 
ATOM     36  C   LIG    1       26.270 -26.097  13.034  0.00  0.00    +0.001 A 
ATOM     37  C   LIG    1       26.854 -27.056  12.204  0.00  0.00    +0.011 A 
ENDBRANCH  30  32
ENDBRANCH  29  30
ENDBRANCH  28  29
ENDBRANCH  26  28
ENDBRANCH  25  26
ENDBRANCH  24  25
ENDBRANCH  23  24
ENDBRANCH   6  23
TORSDOF 15
ENDMDL
MODEL 4
REMARK VINA RESULT:      -9.2      1.709     10.870
REMARK  Name = *****
REMARK                            x       y       z     vdW  Elec       q    Type
REMARK                         _______ _______ _______ _____ _____    ______ ____
ROOT
ATOM      1  C   LIG    1       24.427 -28.868   6.900  0.00  0.00    +0.044 C 
ATOM      2  C   LIG    1       24.607 -27.341   6.845  0.00  0.00    +0.006 C 
ATOM      3  C   LIG    1       24.380 -26.995   5.367  0.00  0.00    -0.001 C 
ATOM      4  C   LIG    1       25.103 -25.670   5.121  0.00  0.00    +0.034 C 
ATOM      5  C   LIG    1       25.755 -25.375   6.449  0.00  0.00    -0.073 C 
ATOM      6  C   LIG    1       25.930 -24.161   7.012  0.00  0.00    -0.027 C 
ATOM      7  C   LIG    1       24.974 -28.161   4.591  0.00  0.00    +0.036 C 
ATOM      8  C   LIG    1       25.962 -26.705   7.154  0.00  0.00    +0.035 C 
ATOM      9  C   LIG    1       24.856 -29.381   5.498  0.00  0.00    +0.122 C 
ENDROOT
BRANCH   1  11
ATOM     10  C   LIG    1       24.254 -30.228   9.052  0.00  0.00    +0.000 C 
ATOM     11  C   LIG    1       24.965 -29.534   8.144  0.00  0.00    -0.022 C 
BRANCH  10  12
ATOM     12  C   LIG    1       24.742 -30.895  10.301  0.00  0.00    +0.141 C 
BRANCH  12  13
ATOM     13  C   LIG    1       24.459 -30.141  11.614  0.00  0.00    +0.030 C 
ATOM     14  C   LIG    1       25.387 -28.922  11.754  0.00  0.00    +0.011 C 
BRANCH  13  15
ATOM     15  C   LIG    1       22.978 -29.717  11.685  0.00  0.00    +0.095 C 
BRANCH  15  18
ATOM     16  C   LIG    1       22.404 -26.351  14.029  0.00  0.00    +0.106 C 
ATOM     17  C   LIG    1       22.629 -27.527  13.179  0.00  0.00    -0.106 C 
ATOM     18  C   LIG    1       22.801 -28.495  12.502  0.00  0.00    -0.102 C 
ENDBRANCH  15  18
ENDBRANCH  13  15
ENDBRANCH  12  13
BRANCH  12  19
ATOM     19  O   LIG    1       26.142 -31.093  10.120  0.00  0.00    -0.388 OA
ATOM     20  H   LIG    1       26.249 -31.762   9.422  0.00  0.00    +0.210 HD
ENDBRANCH  12  19
ENDBRANCH  10  12
ENDBRANCH   1  11
BRANCH   9  21
ATOM     21  O   LIG    1       26.122 -30.024   5.438  0.00  0.00    -0.391 OA
ATOM     22  H   LIG    1       26.801 -29.327   5.385  0.00  0.00    +0.210 HD
ENDBRANCH   9  21
BRANCH   6  23
ATOM     23  C   LIG    1       25.564 -22.806   6.427  0.00  0.00    +0.028 C 
BRANCH  23  24
ATOM     24  C   LIG    1       25.800 -21.647   7.422  0.00  0.00    +0.015 C 
BRANCH  24  25
ATOM     25  C   LIG    1       26.801 -20.587   6.946  0.00  0.00    +0.121 C 
BRANCH  25  26
ATOM     26  C   LIG    1       28.204 -20.875   7.453  0.00  0.00    +0.307 C 
ATOM     27  O   LIG    1       28.444 -21.471   8.495  0.00  0.00    -0.251 OA
BRANCH  26  28
ATOM     28  O   LIG    1       29.153 -20.423   6.586  0.00  0.00    -0.457 OA
BRANCH  28  29
ATOM     29  C   LIG    1       29.570 -19.067   6.811  0.00  0.00    +0.311 C 
BRANCH  29  30
ATOM     30  C   LIG    1       30.944 -18.966   7.470  0.00  0.00    +0.200 C 
ATOM     31  O   LIG    1       31.937 -19.531   7.013  0.00  0.00    -0.288 OA
BRANCH  30  32
ATOM     32  C   LIG    1       31.079 -18.138   8.703  0.00  0.00    +0.021 A 
ATOM     33  C   LIG    1       30.057 -18.046   9.657  0.00  0.00    +0.011 A 
ATOM     34  C   LIG    1       30.218 -17.219  10.774  0.00  0.00    +0.001 A 
ATOM     35  C   LIG    1       31.402 -16.504  10.954  0.00  0.00    +0.000 A 
ATOM     36  C   LIG    1       32.428 -16.607  10.018  0.00  0.00    +0.001 A 
ATOM     37  C   LIG    1       32.267 -17.419   8.892  0.00  0.00    +0.011 A 
ENDBRANCH  30  32
ENDBRANCH  29  30
ENDBRANCH  28  29
ENDBRANCH  26  28
ENDBRANCH  25  26
ENDBRANCH  24  25
ENDBRANCH  23  24
ENDBRANCH   6  23
TORSDOF 15
ENDMDL
MODEL 5
REMARK VINA RESULT:      -9.2      2.402      4.733
REMARK  Name = *****
REMARK                            x       y       z     vdW  Elec       q    Type
REMARK                         _______ _______ _______ _____ _____    ______ ____
ROOT
ATOM      1  C   LIG    1       28.989 -20.613   6.504  0.00  0.00    +0.044 C 
ATOM      2  C   LIG    1       27.514 -20.994   6.716  0.00  0.00    +0.006 C 
ATOM      3  C   LIG    1       26.826 -20.546   5.419  0.00  0.00    -0.001 C 
ATOM      4  C   LIG    1       25.352 -20.332   5.767  0.00  0.00    +0.034 C 
ATOM      5  C   LIG    1       25.300 -20.603   7.251  0.00  0.00    -0.073 C 
ATOM      6  C   LIG    1       24.293 -21.190   7.930  0.00  0.00    -0.027 C 
ATOM      7  C   LIG    1       27.542 -19.266   5.012  0.00  0.00    +0.036 C 
ATOM      8  C   LIG    1       26.684 -20.319   7.809  0.00  0.00    +0.035 C 
ATOM      9  C   LIG    1       28.961 -19.379   5.559  0.00  0.00    +0.122 C 
ENDROOT
BRANCH   1  11
ATOM     10  C   LIG    1       30.375 -19.492   8.330  0.00  0.00    +0.000 C 
ATOM     11  C   LIG    1       29.832 -20.582   7.756  0.00  0.00    -0.022 C 
BRANCH  10  12
ATOM     12  C   LIG    1       31.223 -19.416   9.562  0.00  0.00    +0.141 C 
BRANCH  12  13
ATOM     13  C   LIG    1       31.745 -18.013   9.926  0.00  0.00    +0.030 C 
ATOM     14  C   LIG    1       32.047 -17.197   8.657  0.00  0.00    +0.011 C 
BRANCH  13  15
ATOM     15  C   LIG    1       30.732 -17.276  10.826  0.00  0.00    +0.095 C 
BRANCH  15  18
ATOM     16  C   LIG    1       32.659 -15.574  14.073  0.00  0.00    +0.106 C 
ATOM     17  C   LIG    1       31.955 -16.152  12.921  0.00  0.00    -0.106 C 
ATOM     18  C   LIG    1       31.398 -16.636  11.983  0.00  0.00    -0.102 C 
ENDBRANCH  15  18
ENDBRANCH  13  15
ENDBRANCH  12  13
BRANCH  12  19
ATOM     19  O   LIG    1       32.304 -20.321   9.352  0.00  0.00    -0.388 OA
ATOM     20  H   LIG    1       32.686 -20.114   8.482  0.00  0.00    +0.210 HD
ENDBRANCH  12  19
ENDBRANCH  10  12
ENDBRANCH   1  11
BRANCH   9  21
ATOM     21  O   LIG    1       29.234 -18.127   6.172  0.00  0.00    -0.391 OA
ATOM     22  H   LIG    1       29.095 -18.235   7.130  0.00  0.00    +0.210 HD
ENDBRANCH   9  21
BRANCH   6  23
ATOM     23  C   LIG    1       22.958 -21.667   7.381  0.00  0.00    +0.028 C 
BRANCH  23  24
ATOM     24  C   LIG    1       23.117 -22.783   6.324  0.00  0.00    +0.015 C 
BRANCH  24  25
ATOM     25  C   LIG    1       23.796 -24.060   6.835  0.00  0.00    +0.121 C 
BRANCH  25  26
ATOM     26  C   LIG    1       25.223 -24.176   6.326  0.00  0.00    +0.307 C 
ATOM     27  O   LIG    1       26.214 -24.007   7.025  0.00  0.00    -0.251 OA
BRANCH  26  28
ATOM     28  O   LIG    1       25.259 -24.527   5.010  0.00  0.00    -0.457 OA
BRANCH  28  29
ATOM     29  C   LIG    1       24.827 -25.869   4.737  0.00  0.00    +0.311 C 
BRANCH  29  30
ATOM     30  C   LIG    1       25.821 -26.925   5.216  0.00  0.00    +0.200 C 
ATOM     31  O   LIG    1       27.016 -26.886   4.924  0.00  0.00    -0.288 OA
BRANCH  30  32
ATOM     32  C   LIG    1       25.317 -28.031   6.081  0.00  0.00    +0.021 A 
ATOM     33  C   LIG    1       25.607 -28.101   7.450  0.00  0.00    +0.011 A 
ATOM     34  C   LIG    1       25.146 -29.184   8.206  0.00  0.00    +0.001 A 
ATOM     35  C   LIG    1       24.379 -30.184   7.607  0.00  0.00    +0.000 A 
ATOM     36  C   LIG    1       24.073 -30.108   6.250  0.00  0.00    +0.001 A 
ATOM     37  C   LIG    1       24.543 -29.037   5.487  0.00  0.00    +0.011 A 
ENDBRANCH  30  32
ENDBRANCH  29  30
ENDBRANCH  28  29
ENDBRANCH  26  28
ENDBRANCH  25  26
ENDBRANCH  24  25
ENDBRANCH  23  24
ENDBRANCH   6  23
TORSDOF 15
ENDMDL
MODEL 6
REMARK VINA RESULT:      -9.1      1.977      9.895
REMARK  Name = *****
REMARK                            x       y       z     vdW  Elec       q    Type
REMARK                         _______ _______ _______ _____ _____    ______ ____
ROOT
ATOM      1  C   LIG    1       24.645 -30.072   7.524  0.00  0.00    +0.044 C 
ATOM      2  C   LIG    1       24.627 -28.555   7.276  0.00  0.00    +0.006 C 
ATOM      3  C   LIG    1       24.338 -28.428   5.774  0.00  0.00    -0.001 C 
ATOM      4  C   LIG    1       24.883 -27.064   5.346  0.00  0.00    +0.034 C 
ATOM      5  C   LIG    1       25.508 -26.525   6.609  0.00  0.00    -0.073 C 
ATOM      6  C   LIG    1       25.532 -25.238   7.013  0.00  0.00    -0.027 C 
ATOM      7  C   LIG    1       25.068 -29.599   5.130  0.00  0.00    +0.036 C 
ATOM      8  C   LIG    1       25.893 -27.719   7.465  0.00  0.00    +0.035 C 
ATOM      9  C   LIG    1       25.119 -30.699   6.183  0.00  0.00    +0.122 C 
ENDROOT
BRANCH   1  11
ATOM     10  C   LIG    1       24.975 -30.050  10.053  0.00  0.00    +0.000 C 
ATOM     11  C   LIG    1       25.280 -30.504   8.824  0.00  0.00    -0.022 C 
BRANCH  10  12
ATOM     12  C   LIG    1       25.583 -30.441  11.365  0.00  0.00    +0.141 C 
BRANCH  12  13
ATOM     13  C   LIG    1       26.538 -29.407  11.991  0.00  0.00    +0.030 C 
ATOM     14  C   LIG    1       26.679 -28.174  11.082  0.00  0.00    +0.011 C 
BRANCH  13  15
ATOM     15  C   LIG    1       26.049 -29.001  13.397  0.00  0.00    +0.095 C 
BRANCH  15  18
ATOM     16  C   LIG    1       22.640 -26.658  13.204  0.00  0.00    +0.106 C 
ATOM     17  C   LIG    1       23.830 -27.515  13.277  0.00  0.00    -0.106 C 
ATOM     18  C   LIG    1       24.809 -28.196  13.330  0.00  0.00    -0.102 C 
ENDBRANCH  15  18
ENDBRANCH  13  15
ENDBRANCH  12  13
BRANCH  12  19
ATOM     19  O   LIG    1       26.253 -31.677  11.136  0.00  0.00    -0.388 OA
ATOM     20  H   LIG    1       25.825 -32.343  11.701  0.00  0.00    +0.210 HD
ENDBRANCH  12  19
ENDBRANCH  10  12
ENDBRANCH   1  11
BRANCH   9  21
ATOM     21  O   LIG    1       26.456 -31.180   6.167  0.00  0.00    -0.391 OA
ATOM     22  H   LIG    1       26.900 -30.782   5.398  0.00  0.00    +0.210 HD
ENDBRANCH   9  21
BRANCH   6  23
ATOM     23  C   LIG    1       24.988 -24.024   6.276  0.00  0.00    +0.028 C 
BRANCH  23  24
ATOM     24  C   LIG    1       23.495 -23.765   6.581  0.00  0.00    +0.015 C 
BRANCH  24  25
ATOM     25  C   LIG    1       23.167 -22.330   7.011  0.00  0.00    +0.121 C 
BRANCH  25  26
ATOM     26  C   LIG    1       23.994 -21.313   6.240  0.00  0.00    +0.307 C 
ATOM     27  O   LIG    1       23.873 -21.104   5.040  0.00  0.00    -0.251 OA
BRANCH  26  28
ATOM     28  O   LIG    1       24.854 -20.644   7.058  0.00  0.00    -0.457 OA
BRANCH  28  29
ATOM     29  C   LIG    1       26.211 -20.598   6.588  0.00  0.00    +0.311 C 
BRANCH  29  30
ATOM     30  C   LIG    1       27.234 -20.868   7.689  0.00  0.00    +0.200 C 
ATOM     31  O   LIG    1       26.949 -21.478   8.719  0.00  0.00    -0.288 OA
BRANCH  30  32
ATOM     32  C   LIG    1       28.631 -20.383   7.492  0.00  0.00    +0.021 A 
ATOM     33  C   LIG    1       29.709 -20.889   8.229  0.00  0.00    +0.011 A 
ATOM     34  C   LIG    1       30.992 -20.367   8.036  0.00  0.00    +0.001 A 
ATOM     35  C   LIG    1       31.207 -19.360   7.094  0.00  0.00    +0.000 A 
ATOM     36  C   LIG    1       30.141 -18.868   6.345  0.00  0.00    +0.001 A 
ATOM     37  C   LIG    1       28.855 -19.374   6.545  0.00  0.00    +0.011 A 
ENDBRANCH  30  32
ENDBRANCH  29  30
ENDBRANCH  28  29
ENDBRANCH  26  28
ENDBRANCH  25  26
ENDBRANCH  24  25
ENDBRANCH  23  24
ENDBRANCH   6  23
TORSDOF 15
ENDMDL
MODEL 7
REMARK VINA RESULT:      -9.1      3.453      5.657
REMARK  Name = *****
REMARK                            x       y       z     vdW  Elec       q    Type
REMARK                         _______ _______ _______ _____ _____    ______ ____
ROOT
ATOM      1  C   LIG    1       26.136 -25.688   6.250  0.00  0.00    +0.044 C 
ATOM      2  C   LIG    1       25.837 -27.132   6.685  0.00  0.00    +0.006 C 
ATOM      3  C   LIG    1       25.970 -27.944   5.390  0.00  0.00    -0.001 C 
ATOM      4  C   LIG    1       25.136 -29.211   5.590  0.00  0.00    +0.034 C 
ATOM      5  C   LIG    1       24.525 -29.016   6.956  0.00  0.00    -0.073 C 
ATOM      6  C   LIG    1       24.284 -29.971   7.878  0.00  0.00    -0.027 C 
ATOM      7  C   LIG    1       25.431 -27.035   4.295  0.00  0.00    +0.036 C 
ATOM      8  C   LIG    1       24.453 -27.519   7.206  0.00  0.00    +0.035 C 
ATOM      9  C   LIG    1       25.684 -25.607   4.766  0.00  0.00    +0.122 C 
ENDROOT
BRANCH   1  11
ATOM     10  C   LIG    1       26.049 -23.319   7.191  0.00  0.00    +0.000 C 
ATOM     11  C   LIG    1       25.708 -24.620   7.227  0.00  0.00    -0.022 C 
BRANCH  10  12
ATOM     12  C   LIG    1       25.658 -22.229   8.142  0.00  0.00    +0.141 C 
BRANCH  12  13
ATOM     13  C   LIG    1       24.996 -20.993   7.503  0.00  0.00    +0.030 C 
ATOM     14  C   LIG    1       25.802 -20.512   6.284  0.00  0.00    +0.011 C 
BRANCH  13  15
ATOM     15  C   LIG    1       23.537 -21.303   7.111  0.00  0.00    +0.095 C 
BRANCH  15  18
ATOM     16  C   LIG    1       22.057 -18.636   4.310  0.00  0.00    +0.106 C 
ATOM     17  C   LIG    1       22.591 -19.556   5.323  0.00  0.00    -0.106 C 
ATOM     18  C   LIG    1       23.016 -20.320   6.135  0.00  0.00    -0.102 C 
ENDBRANCH  15  18
ENDBRANCH  13  15
ENDBRANCH  12  13
BRANCH  12  19
ATOM     19  O   LIG    1       26.849 -21.866   8.836  0.00  0.00    -0.388 OA
ATOM     20  H   LIG    1       27.544 -21.746   8.167  0.00  0.00    +0.210 HD
ENDBRANCH  12  19
ENDBRANCH  10  12
ENDBRANCH   1  11
BRANCH   9  21
ATOM     21  O   LIG    1       24.469 -24.908   4.529  0.00  0.00    -0.391 OA
ATOM     22  H   LIG    1       23.824 -25.552   4.187  0.00  0.00    +0.210 HD
ENDBRANCH   9  21
BRANCH   6  23
ATOM     23  C   LIG    1       24.518 -31.468   7.746  0.00  0.00    +0.028 C 
BRANCH  23  24
ATOM     24  C   LIG    1       25.496 -32.010   8.812  0.00  0.00    +0.015 C 
BRANCH  24  25
ATOM     25  C   LIG    1       26.877 -31.342   8.814  0.00  0.00    +0.121 C 
BRANCH  25  26
ATOM     26  C   LIG    1       27.014 -30.347   9.954  0.00  0.00    +0.307 C 
ATOM     27  O   LIG    1       27.437 -29.206   9.818  0.00  0.00    -0.251 OA
BRANCH  26  28
ATOM     28  O   LIG    1       26.575 -30.871  11.133  0.00  0.00    -0.457 OA
BRANCH  28  29
ATOM     29  C   LIG    1       26.015 -29.911  12.042  0.00  0.00    +0.311 C 
BRANCH  29  30
ATOM     30  C   LIG    1       24.488 -29.869  12.002  0.00  0.00    +0.200 C 
ATOM     31  O   LIG    1       23.815 -30.805  11.570  0.00  0.00    -0.288 OA
BRANCH  30  32
ATOM     32  C   LIG    1       23.799 -28.653  12.522  0.00  0.00    +0.021 A 
ATOM     33  C   LIG    1       24.503 -27.558  13.039  0.00  0.00    +0.011 A 
ATOM     34  C   LIG    1       23.807 -26.461  13.555  0.00  0.00    +0.001 A 
ATOM     35  C   LIG    1       22.412 -26.441  13.534  0.00  0.00    +0.000 A 
ATOM     36  C   LIG    1       21.708 -27.519  13.002  0.00  0.00    +0.001 A 
ATOM     37  C   LIG    1       22.398 -28.625  12.500  0.00  0.00    +0.011 A 
ENDBRANCH  30  32
ENDBRANCH  29  30
ENDBRANCH  28  29
ENDBRANCH  26  28
ENDBRANCH  25  26
ENDBRANCH  24  25
ENDBRANCH  23  24
ENDBRANCH   6  23
TORSDOF 15
ENDMDL
MODEL 8
REMARK VINA RESULT:      -9.1      2.348      9.552
REMARK  Name = *****
REMARK                            x       y       z     vdW  Elec       q    Type
REMARK                         _______ _______ _______ _____ _____    ______ ____
ROOT
ATOM      1  C   LIG    1       24.575 -30.134   7.590  0.00  0.00    +0.044 C 
ATOM      2  C   LIG    1       24.692 -28.637   7.260  0.00  0.00    +0.006 C 
ATOM      3  C   LIG    1       24.632 -28.590   5.727  0.00  0.00    -0.001 C 
ATOM      4  C   LIG    1       25.320 -27.289   5.310  0.00  0.00    +0.034 C 
ATOM      5  C   LIG    1       25.790 -26.706   6.620  0.00  0.00    -0.073 C 
ATOM      6  C   LIG    1       25.840 -25.399   6.952  0.00  0.00    -0.027 C 
ATOM      7  C   LIG    1       25.370 -29.838   5.263  0.00  0.00    +0.036 C 
ATOM      8  C   LIG    1       25.970 -27.863   7.588  0.00  0.00    +0.035 C 
ATOM      9  C   LIG    1       25.196 -30.871   6.371  0.00  0.00    +0.122 C 
ENDROOT
BRANCH   1  11
ATOM     10  C   LIG    1       24.590 -29.925  10.132  0.00  0.00    +0.000 C 
ATOM     11  C   LIG    1       24.987 -30.518   8.991  0.00  0.00    -0.022 C 
BRANCH  10  12
ATOM     12  C   LIG    1       24.979 -30.263  11.539  0.00  0.00    +0.141 C 
BRANCH  12  13
ATOM     13  C   LIG    1       25.430 -29.075  12.410  0.00  0.00    +0.030 C 
ATOM     14  C   LIG    1       26.384 -28.157  11.628  0.00  0.00    +0.011 C 
BRANCH  13  15
ATOM     15  C   LIG    1       24.208 -28.288  12.925  0.00  0.00    +0.095 C 
BRANCH  15  18
ATOM     16  C   LIG    1       25.238 -24.449  14.089  0.00  0.00    +0.106 C 
ATOM     17  C   LIG    1       24.884 -25.822  13.705  0.00  0.00    -0.106 C 
ATOM     18  C   LIG    1       24.586 -26.930  13.377  0.00  0.00    -0.102 C 
ENDBRANCH  15  18
ENDBRANCH  13  15
ENDBRANCH  12  13
BRANCH  12  19
ATOM     19  O   LIG    1       26.012 -31.240  11.438  0.00  0.00    -0.388 OA
ATOM     20  H   LIG    1       26.851 -30.758  11.333  0.00  0.00    +0.210 HD
ENDBRANCH  12  19
ENDBRANCH  10  12
ENDBRANCH   1  11
BRANCH   9  21
ATOM     21  O   LIG    1       26.488 -31.427   6.579  0.00  0.00    -0.391 OA
ATOM     22  H   LIG    1       26.666 -31.398   7.536  0.00  0.00    +0.210 HD
ENDBRANCH   9  21
BRANCH   6  23
ATOM     23  C   LIG    1       25.488 -24.206   6.077  0.00  0.00    +0.028 C 
BRANCH  23  24
ATOM     24  C   LIG    1       24.000 -24.196   5.660  0.00  0.00    +0.015 C 
BRANCH  24  25
ATOM     25  C   LIG    1       23.026 -23.768   6.765  0.00  0.00    +0.121 C 
BRANCH  25  26
ATOM     26  C   LIG    1       22.990 -22.258   6.924  0.00  0.00    +0.307 C 
ATOM     27  O   LIG    1       22.989 -21.684   8.005  0.00  0.00    -0.251 OA
BRANCH  26  28
ATOM     28  O   LIG    1       22.996 -21.627   5.716  0.00  0.00    -0.457 OA
BRANCH  28  29
ATOM     29  C   LIG    1       23.654 -20.350   5.712  0.00  0.00    +0.311 C 
BRANCH  29  30
ATOM     30  C   LIG    1       25.028 -20.389   5.046  0.00  0.00    +0.200 C 
ATOM     31  O   LIG    1       25.168 -20.480   3.826  0.00  0.00    -0.288 OA
BRANCH  30  32
ATOM     32  C   LIG    1       26.238 -20.298   5.914  0.00  0.00    +0.021 A 
ATOM     33  C   LIG    1       27.505 -19.991   5.401  0.00  0.00    +0.011 A 
ATOM     34  C   LIG    1       28.614 -19.961   6.251  0.00  0.00    +0.001 A 
ATOM     35  C   LIG    1       28.461 -20.214   7.615  0.00  0.00    +0.000 A 
ATOM     36  C   LIG    1       27.200 -20.502   8.133  0.00  0.00    +0.001 A 
ATOM     37  C   LIG    1       26.091 -20.547   7.285  0.00  0.00    +0.011 A 
ENDBRANCH  30  32
ENDBRANCH  29  30
ENDBRANCH  28  29
ENDBRANCH  26  28
ENDBRANCH  25  26
ENDBRANCH  24  25
ENDBRANCH  23  24
ENDBRANCH   6  23
TORSDOF 15
ENDMDL
MODEL 9
REMARK VINA RESULT:      -8.9      2.264      9.600
REMARK  Name = *****
REMARK                            x       y       z     vdW  Elec       q    Type
REMARK                         _______ _______ _______ _____ _____    ______ ____
ROOT
ATOM      1  C   LIG    1       24.604 -29.761   7.407  0.00  0.00    +0.044 C 
ATOM      2  C   LIG    1       24.616 -28.236   7.208  0.00  0.00    +0.006 C 
ATOM      3  C   LIG    1       24.290 -28.054   5.719  0.00  0.00    -0.001 C 
ATOM      4  C   LIG    1       24.856 -26.691   5.320  0.00  0.00    +0.034 C 
ATOM      5  C   LIG    1       25.528 -26.207   6.582  0.00  0.00    -0.073 C 
ATOM      6  C   LIG    1       25.594 -24.934   7.025  0.00  0.00    -0.027 C 
ATOM      7  C   LIG    1       24.974 -29.220   5.019  0.00  0.00    +0.036 C 
ATOM      8  C   LIG    1       25.907 -27.437   7.389  0.00  0.00    +0.035 C 
ATOM      9  C   LIG    1       25.027 -30.355   6.035  0.00  0.00    +0.122 C 
ENDROOT
BRANCH   1  11
ATOM     10  C   LIG    1       24.911 -29.930   9.934  0.00  0.00    +0.000 C 
ATOM     11  C   LIG    1       25.263 -30.249   8.674  0.00  0.00    -0.022 C 
BRANCH  10  12
ATOM     12  C   LIG    1       25.540 -30.380  11.216  0.00  0.00    +0.141 C 
BRANCH  12  13
ATOM     13  C   LIG    1       26.361 -29.314  11.967  0.00  0.00    +0.030 C 
ATOM     14  C   LIG    1       27.490 -28.768  11.077  0.00  0.00    +0.011 C 
BRANCH  13  15
ATOM     15  C   LIG    1       25.446 -28.174  12.457  0.00  0.00    +0.095 C 
BRANCH  15  18
ATOM     16  C   LIG    1       27.672 -24.993  13.897  0.00  0.00    +0.106 C 
ATOM     17  C   LIG    1       26.872 -26.102  13.362  0.00  0.00    -0.106 C 
ATOM     18  C   LIG    1       26.231 -27.016  12.940  0.00  0.00    -0.102 C 
ENDBRANCH  15  18
ENDBRANCH  13  15
ENDBRANCH  12  13
BRANCH  12  19
ATOM     19  O   LIG    1       26.351 -31.504  10.884  0.00  0.00    -0.388 OA
ATOM     20  H   LIG    1       26.420 -32.053  11.684  0.00  0.00    +0.210 HD
ENDBRANCH  12  19
ENDBRANCH  10  12
ENDBRANCH   1  11
BRANCH   9  21
ATOM     21  O   LIG    1       26.351 -30.867   5.967  0.00  0.00    -0.391 OA
ATOM     22  H   LIG    1       26.711 -30.864   6.871  0.00  0.00    +0.210 HD
ENDBRANCH   9  21
BRANCH   6  23
ATOM     23  C   LIG    1       25.060 -23.685   6.342  0.00  0.00    +0.028 C 
BRANCH  23  24
ATOM     24  C   LIG    1       23.564 -23.440   6.641  0.00  0.00    +0.015 C 
BRANCH  24  25
ATOM     25  C   LIG    1       23.194 -21.976   6.912  0.00  0.00    +0.121 C 
BRANCH  25  26
ATOM     26  C   LIG    1       22.706 -21.281   5.651  0.00  0.00    +0.307 C 
ATOM     27  O   LIG    1       21.668 -21.569   5.071  0.00  0.00    -0.251 OA
BRANCH  26  28
ATOM     28  O   LIG    1       23.549 -20.278   5.274  0.00  0.00    -0.457 OA
BRANCH  28  29
ATOM     29  C   LIG    1       24.661 -20.703   4.471  0.00  0.00    +0.311 C 
BRANCH  29  30
ATOM     30  C   LIG    1       25.864 -19.768   4.573  0.00  0.00    +0.200 C 
ATOM     31  O   LIG    1       26.042 -18.835   3.790  0.00  0.00    -0.288 OA
BRANCH  30  32
ATOM     32  C   LIG    1       26.844 -19.992   5.676  0.00  0.00    +0.021 A 
ATOM     33  C   LIG    1       26.466 -20.522   6.916  0.00  0.00    +0.011 A 
ATOM     34  C   LIG    1       27.416 -20.671   7.930  0.00  0.00    +0.001 A 
ATOM     35  C   LIG    1       28.747 -20.315   7.705  0.00  0.00    +0.000 A 
ATOM     36  C   LIG    1       29.131 -19.806   6.467  0.00  0.00    +0.001 A 
ATOM     37  C   LIG    1       28.182 -19.641   5.454  0.00  0.00    +0.011 A 
ENDBRANCH  30  32
ENDBRANCH  29  30
ENDBRANCH  28  29
ENDBRANCH  26  28
ENDBRANCH  25  26
ENDBRANCH  24  25
ENDBRANCH  23  24
ENDBRANCH   6  23
TORSDOF 15
ENDMDL
