MODEL 1
REMARK VINA RESULT:      -5.5      0.000      0.000
REMARK  Name = *****
REMARK                            x       y       z     vdW  Elec       q    Type
REMARK                         _______ _______ _______ _____ _____    ______ ____
ROOT
ATOM      1  C   LIG    1       25.962 -19.639   4.516  0.00  0.00    +0.206 A 
ATOM      2  C   LIG    1       24.891 -20.293   5.140  0.00  0.00    +0.184 A 
ATOM      3  C   LIG    1       25.013 -20.907   6.390  0.00  0.00    +0.022 A 
ATOM      4  C   LIG    1       23.852 -21.562   6.975  0.00  0.00    +0.019 C 
ATOM      5  C   LIG    1       22.691 -21.571   6.313  0.00  0.00    +0.092 C 
ATOM      6  C   LIG    1       22.529 -20.936   4.996  0.00  0.00    +0.337 C 
ATOM      7  O   LIG    1       21.446 -20.949   4.423  0.00  0.00    -0.245 OA
ATOM      8  C   LIG    1       26.246 -20.894   7.062  0.00  0.00    +0.023 A 
ATOM      9  C   LIG    1       27.348 -20.262   6.453  0.00  0.00    +0.025 A 
ATOM     10  C   LIG    1       28.711 -20.055   6.796  0.00  0.00    +0.050 A 
ATOM     11  C   LIG    1       29.273 -19.355   5.754  0.00  0.00    +0.196 A 
ATOM     12  O   LIG    1       28.350 -19.110   4.790  0.00  0.00    -0.459 OA
ATOM     13  O   LIG    1       23.651 -20.328   4.456  0.00  0.00    -0.418 OA
ATOM     14  C   LIG    1       27.174 -19.663   5.207  0.00  0.00    +0.180 A 
ENDROOT
BRANCH   1  16
ATOM     15  C   LIG    1       25.748 -17.651   3.363  0.00  0.00    +0.277 C 
ATOM     16  O   LIG    1       25.873 -19.070   3.273  0.00  0.00    -0.488 OA
ENDBRANCH   1  16
TORSDOF 1
ENDMDL
MODEL 2
REMARK VINA RESULT:      -5.0      1.281      4.543
REMARK  Name = *****
REMARK                            x       y       z     vdW  Elec       q    Type
REMARK                         _______ _______ _______ _____ _____    ______ ____
ROOT
ATOM      1  C   LIG    1       25.271 -19.239   4.062  0.00  0.00    +0.206 A 
ATOM      2  C   LIG    1       26.022 -19.873   5.062  0.00  0.00    +0.184 A 
ATOM      3  C   LIG    1       25.431 -20.654   6.061  0.00  0.00    +0.022 A 
ATOM      4  C   LIG    1       26.280 -21.285   7.062  0.00  0.00    +0.019 C 
ATOM      5  C   LIG    1       27.604 -21.110   7.016  0.00  0.00    +0.092 C 
ATOM      6  C   LIG    1       28.256 -20.292   5.981  0.00  0.00    +0.337 C 
ATOM      7  O   LIG    1       29.475 -20.165   5.958  0.00  0.00    -0.245 OA
ATOM      8  C   LIG    1       24.037 -20.816   6.094  0.00  0.00    +0.023 A 
ATOM      9  C   LIG    1       23.252 -20.176   5.115  0.00  0.00    +0.025 A 
ATOM     10  C   LIG    1       21.863 -20.090   4.831  0.00  0.00    +0.050 A 
ATOM     11  C   LIG    1       21.742 -19.290   3.719  0.00  0.00    +0.196 A 
ATOM     12  O   LIG    1       22.962 -18.876   3.293  0.00  0.00    -0.459 OA
ATOM     13  O   LIG    1       27.426 -19.695   5.045  0.00  0.00    -0.418 OA
ATOM     14  C   LIG    1       23.888 -19.410   4.141  0.00  0.00    +0.180 A 
ENDROOT
BRANCH   1  16
ATOM     15  C   LIG    1       25.727 -17.058   3.462  0.00  0.00    +0.277 C 
ATOM     16  O   LIG    1       25.827 -18.435   3.103  0.00  0.00    -0.488 OA
ENDBRANCH   1  16
TORSDOF 1
ENDMDL
MODEL 3
REMARK VINA RESULT:      -4.1      2.968      4.915
REMARK  Name = *****
REMARK                            x       y       z     vdW  Elec       q    Type
REMARK                         _______ _______ _______ _____ _____    ______ ____
ROOT
ATOM      1  C   LIG    1       25.400 -16.525   3.449  0.00  0.00    +0.206 A 
ATOM      2  C   LIG    1       24.379 -17.417   3.806  0.00  0.00    +0.184 A 
ATOM      3  C   LIG    1       23.145 -16.983   4.300  0.00  0.00    +0.022 A 
ATOM      4  C   LIG    1       22.132 -17.972   4.644  0.00  0.00    +0.019 C 
ATOM      5  C   LIG    1       22.394 -19.273   4.486  0.00  0.00    +0.092 C 
ATOM      6  C   LIG    1       23.682 -19.762   3.971  0.00  0.00    +0.337 C 
ATOM      7  O   LIG    1       23.883 -20.962   3.824  0.00  0.00    -0.245 OA
ATOM      8  C   LIG    1       22.897 -15.611   4.467  0.00  0.00    +0.023 A 
ATOM      9  C   LIG    1       23.910 -14.690   4.136  0.00  0.00    +0.025 A 
ATOM     10  C   LIG    1       24.041 -13.276   4.174  0.00  0.00    +0.050 A 
ATOM     11  C   LIG    1       25.305 -12.990   3.713  0.00  0.00    +0.196 A 
ATOM     12  O   LIG    1       25.965 -14.130   3.388  0.00  0.00    -0.459 OA
ATOM     13  O   LIG    1       24.633 -18.802   3.660  0.00  0.00    -0.418 OA
ATOM     14  C   LIG    1       25.121 -15.172   3.646  0.00  0.00    +0.180 A 
ENDROOT
BRANCH   1  16
ATOM     15  C   LIG    1       27.570 -16.999   4.077  0.00  0.00    +0.277 C 
ATOM     16  O   LIG    1       26.631 -16.932   3.005  0.00  0.00    -0.488 OA
ENDBRANCH   1  16
TORSDOF 1
ENDMDL
MODEL 4
REMARK VINA RESULT:      -3.3      2.548      5.829
REMARK  Name = *****
REMARK                            x       y       z     vdW  Elec       q    Type
REMARK                         _______ _______ _______ _____ _____    ______ ____
ROOT
ATOM      1  C   LIG    1       24.906 -18.340   3.720  0.00  0.00    +0.206 A 
ATOM      2  C   LIG    1       24.872 -16.939   3.709  0.00  0.00    +0.184 A 
ATOM      3  C   LIG    1       23.731 -16.214   4.066  0.00  0.00    +0.022 A 
ATOM      4  C   LIG    1       23.777 -14.759   4.035  0.00  0.00    +0.019 C 
ATOM      5  C   LIG    1       24.901 -14.138   3.665  0.00  0.00    +0.092 C 
ATOM      6  C   LIG    1       26.117 -14.871   3.280  0.00  0.00    +0.337 C 
ATOM      7  O   LIG    1       27.136 -14.269   2.960  0.00  0.00    -0.245 OA
ATOM      8  C   LIG    1       22.558 -16.889   4.443  0.00  0.00    +0.023 A 
ATOM      9  C   LIG    1       22.553 -18.298   4.445  0.00  0.00    +0.025 A 
ATOM     10  C   LIG    1       21.596 -19.304   4.741  0.00  0.00    +0.050 A 
ATOM     11  C   LIG    1       22.225 -20.511   4.543  0.00  0.00    +0.196 A 
ATOM     12  O   LIG    1       23.509 -20.321   4.147  0.00  0.00    -0.459 OA
ATOM     13  O   LIG    1       26.045 -16.254   3.309  0.00  0.00    -0.418 OA
ATOM     14  C   LIG    1       23.716 -18.974   4.082  0.00  0.00    +0.180 A 
ENDROOT
BRANCH   1  16
ATOM     15  C   LIG    1       26.666 -19.639   4.456  0.00  0.00    +0.277 C 
ATOM     16  O   LIG    1       25.999 -19.068   3.331  0.00  0.00    -0.488 OA
ENDBRANCH   1  16
TORSDOF 1
ENDMDL
MODEL 5
REMARK VINA RESULT:      -2.9      3.040      5.620
REMARK  Name = *****
REMARK                            x       y       z     vdW  Elec       q    Type
REMARK                         _______ _______ _______ _____ _____    ______ ____
ROOT
ATOM      1  C   LIG    1       23.241 -17.598   4.183  0.00  0.00    +0.206 A 
ATOM      2  C   LIG    1       24.092 -16.513   3.933  0.00  0.00    +0.184 A 
ATOM      3  C   LIG    1       25.416 -16.679   3.515  0.00  0.00    +0.022 A 
ATOM      4  C   LIG    1       26.236 -15.501   3.270  0.00  0.00    +0.019 C 
ATOM      5  C   LIG    1       25.718 -14.283   3.450  0.00  0.00    +0.092 C 
ATOM      6  C   LIG    1       24.330 -14.072   3.891  0.00  0.00    +0.337 C 
ATOM      7  O   LIG    1       23.882 -12.941   4.031  0.00  0.00    -0.245 OA
ATOM      8  C   LIG    1       25.942 -17.970   3.343  0.00  0.00    +0.023 A 
ATOM      9  C   LIG    1       25.118 -19.083   3.605  0.00  0.00    +0.025 A 
ATOM     10  C   LIG    1       25.281 -20.493   3.561  0.00  0.00    +0.050 A 
ATOM     11  C   LIG    1       24.077 -21.036   3.944  0.00  0.00    +0.196 A 
ATOM     12  O   LIG    1       23.178 -20.058   4.220  0.00  0.00    -0.459 OA
ATOM     13  O   LIG    1       23.574 -15.209   4.126  0.00  0.00    -0.418 OA
ATOM     14  C   LIG    1       23.806 -18.864   4.019  0.00  0.00    +0.180 A 
ENDROOT
BRANCH   1  16
ATOM     15  C   LIG    1       21.032 -18.133   3.785  0.00  0.00    +0.277 C 
ATOM     16  O   LIG    1       21.956 -17.455   4.635  0.00  0.00    -0.488 OA
ENDBRANCH   1  16
TORSDOF 1
ENDMDL
MODEL 6
REMARK VINA RESULT:      -2.8      3.719      5.255
REMARK  Name = *****
REMARK                            x       y       z     vdW  Elec       q    Type
REMARK                         _______ _______ _______ _____ _____    ______ ____
ROOT
ATOM      1  C   LIG    1       24.747 -14.669   4.118  0.00  0.00    +0.206 A 
ATOM      2  C   LIG    1       24.532 -16.043   3.944  0.00  0.00    +0.184 A 
ATOM      3  C   LIG    1       25.563 -16.927   3.613  0.00  0.00    +0.022 A 
ATOM      4  C   LIG    1       25.261 -18.343   3.454  0.00  0.00    +0.019 C 
ATOM      5  C   LIG    1       24.008 -18.777   3.624  0.00  0.00    +0.092 C 
ATOM      6  C   LIG    1       22.900 -17.873   3.970  0.00  0.00    +0.337 C 
ATOM      7  O   LIG    1       21.766 -18.307   4.133  0.00  0.00    -0.245 OA
ATOM      8  C   LIG    1       26.870 -16.446   3.430  0.00  0.00    +0.023 A 
ATOM      9  C   LIG    1       27.116 -15.067   3.579  0.00  0.00    +0.025 A 
ATOM     10  C   LIG    1       28.255 -14.227   3.468  0.00  0.00    +0.050 A 
ATOM     11  C   LIG    1       27.824 -12.948   3.735  0.00  0.00    +0.196 A 
ATOM     12  O   LIG    1       26.495 -12.940   4.007  0.00  0.00    -0.459 OA
ATOM     13  O   LIG    1       23.212 -16.530   4.106  0.00  0.00    -0.418 OA
ATOM     14  C   LIG    1       26.055 -14.228   3.910  0.00  0.00    +0.180 A 
ENDROOT
BRANCH   1  16
ATOM     15  C   LIG    1       23.715 -12.716   3.451  0.00  0.00    +0.277 C 
ATOM     16  O   LIG    1       23.742 -13.782   4.400  0.00  0.00    -0.488 OA
ENDBRANCH   1  16
TORSDOF 1
ENDMDL
MODEL 7
REMARK VINA RESULT:      -2.6      3.081      4.641
REMARK  Name = *****
REMARK                            x       y       z     vdW  Elec       q    Type
REMARK                         _______ _______ _______ _____ _____    ______ ____
ROOT
ATOM      1  C   LIG    1       23.698 -16.125   4.102  0.00  0.00    +0.206 A 
ATOM      2  C   LIG    1       23.896 -17.512   4.045  0.00  0.00    +0.184 A 
ATOM      3  C   LIG    1       25.115 -18.080   3.663  0.00  0.00    +0.022 A 
ATOM      4  C   LIG    1       25.244 -19.531   3.635  0.00  0.00    +0.019 C 
ATOM      5  C   LIG    1       24.200 -20.296   3.969  0.00  0.00    +0.092 C 
ATOM      6  C   LIG    1       22.903 -19.730   4.373  0.00  0.00    +0.337 C 
ATOM      7  O   LIG    1       21.972 -20.461   4.688  0.00  0.00    -0.245 OA
ATOM      8  C   LIG    1       26.194 -17.255   3.307  0.00  0.00    +0.023 A 
ATOM      9  C   LIG    1       26.022 -15.857   3.334  0.00  0.00    +0.025 A 
ATOM     10  C   LIG    1       26.840 -14.733   3.042  0.00  0.00    +0.050 A 
ATOM     11  C   LIG    1       26.065 -13.619   3.268  0.00  0.00    +0.196 A 
ATOM     12  O   LIG    1       24.824 -13.977   3.683  0.00  0.00    -0.459 OA
ATOM     13  O   LIG    1       22.804 -18.348   4.383  0.00  0.00    -0.418 OA
ATOM     14  C   LIG    1       24.789 -15.341   3.722  0.00  0.00    +0.180 A 
ENDROOT
BRANCH   1  16
ATOM     15  C   LIG    1       22.359 -15.423   5.845  0.00  0.00    +0.277 C 
ATOM     16  O   LIG    1       22.499 -15.551   4.431  0.00  0.00    -0.488 OA
ENDBRANCH   1  16
TORSDOF 1
ENDMDL
