MODEL 1
REMARK VINA RESULT:      -7.9      0.000      0.000
REMARK  Name = *****
REMARK                            x       y       z     vdW  Elec       q    Type
REMARK                         _______ _______ _______ _____ _____    ______ ____
ROOT
ATOM      1  C   LIG    1       28.512 -19.504   5.588  0.00  0.00    +0.141 C 
ATOM      2  N   LIG    1       27.482 -20.022   6.457  0.00  0.00    -0.245 N 
ATOM      3  C   LIG    1       26.241 -20.372   6.007  0.00  0.00    +0.229 C 
ATOM      4  O   LIG    1       25.851 -20.291   4.851  0.00  0.00    -0.275 OA
ATOM      5  C   LIG    1       25.418 -20.858   7.179  0.00  0.00    +0.114 C 
ATOM      6  C   LIG    1       26.392 -20.833   8.356  0.00  0.00    +0.114 C 
ATOM      7  C   LIG    1       27.652 -20.254   7.788  0.00  0.00    +0.223 C 
ATOM      8  O   LIG    1       28.663 -20.046   8.442  0.00  0.00    -0.275 OA
ENDROOT
BRANCH   5   9
ATOM      9  C   LIG    1       24.778 -22.217   6.997  0.00  0.00    -0.035 A 
ATOM     10  C   LIG    1       23.385 -22.383   6.940  0.00  0.00    +0.004 A 
ATOM     11  C   LIG    1       22.827 -23.646   6.734  0.00  0.00    +0.000 A 
ATOM     12  C   LIG    1       23.652 -24.758   6.573  0.00  0.00    +0.000 A 
ATOM     13  C   LIG    1       25.036 -24.607   6.618  0.00  0.00    +0.000 A 
ATOM     14  C   LIG    1       25.595 -23.345   6.825  0.00  0.00    +0.004 A 
ENDBRANCH   5   9
TORSDOF 1
ENDMDL
MODEL 2
REMARK VINA RESULT:      -7.8      2.991      4.923
REMARK  Name = *****
REMARK                            x       y       z     vdW  Elec       q    Type
REMARK                         _______ _______ _______ _____ _____    ______ ____
ROOT
ATOM      1  C   LIG    1       26.016 -24.637   6.839  0.00  0.00    +0.141 C 
ATOM      2  N   LIG    1       24.960 -23.654   6.794  0.00  0.00    -0.245 N 
ATOM      3  C   LIG    1       25.199 -22.309   6.825  0.00  0.00    +0.229 C 
ATOM      4  O   LIG    1       26.299 -21.780   6.896  0.00  0.00    -0.275 OA
ATOM      5  C   LIG    1       23.875 -21.579   6.776  0.00  0.00    +0.114 C 
ATOM      6  C   LIG    1       22.840 -22.691   6.613  0.00  0.00    +0.114 C 
ATOM      7  C   LIG    1       23.638 -23.958   6.674  0.00  0.00    +0.223 C 
ATOM      8  O   LIG    1       23.149 -25.077   6.611  0.00  0.00    -0.275 OA
ENDROOT
BRANCH   5   9
ATOM      9  C   LIG    1       23.758 -20.528   5.693  0.00  0.00    -0.035 A 
ATOM     10  C   LIG    1       24.765 -20.330   4.736  0.00  0.00    +0.004 A 
ATOM     11  C   LIG    1       24.609 -19.377   3.727  0.00  0.00    +0.000 A 
ATOM     12  C   LIG    1       23.443 -18.617   3.656  0.00  0.00    +0.000 A 
ATOM     13  C   LIG    1       22.432 -18.810   4.593  0.00  0.00    +0.000 A 
ATOM     14  C   LIG    1       22.586 -19.761   5.603  0.00  0.00    +0.004 A 
ENDBRANCH   5   9
TORSDOF 1
ENDMDL
MODEL 3
REMARK VINA RESULT:      -7.4      2.072      3.320
REMARK  Name = *****
REMARK                            x       y       z     vdW  Elec       q    Type
REMARK                         _______ _______ _______ _____ _____    ______ ____
ROOT
ATOM      1  C   LIG    1       31.024 -19.169   8.587  0.00  0.00    +0.141 C 
ATOM      2  N   LIG    1       30.064 -19.733   7.669  0.00  0.00    -0.245 N 
ATOM      3  C   LIG    1       29.406 -20.905   7.913  0.00  0.00    +0.229 C 
ATOM      4  O   LIG    1       29.543 -21.608   8.904  0.00  0.00    -0.275 OA
ATOM      5  C   LIG    1       28.494 -21.203   6.744  0.00  0.00    +0.114 C 
ATOM      6  C   LIG    1       28.643 -19.986   5.833  0.00  0.00    +0.114 C 
ATOM      7  C   LIG    1       29.686 -19.142   6.502  0.00  0.00    +0.223 C 
ATOM      8  O   LIG    1       30.103 -18.087   6.049  0.00  0.00    -0.275 OA
ENDROOT
BRANCH   5   9
ATOM      9  C   LIG    1       27.049 -21.471   7.106  0.00  0.00    -0.035 A 
ATOM     10  C   LIG    1       26.153 -20.435   7.411  0.00  0.00    +0.004 A 
ATOM     11  C   LIG    1       24.817 -20.713   7.705  0.00  0.00    +0.000 A 
ATOM     12  C   LIG    1       24.356 -22.028   7.689  0.00  0.00    +0.000 A 
ATOM     13  C   LIG    1       25.231 -23.066   7.378  0.00  0.00    +0.000 A 
ATOM     14  C   LIG    1       26.568 -22.789   7.086  0.00  0.00    +0.004 A 
ENDBRANCH   5   9
TORSDOF 1
ENDMDL
MODEL 4
REMARK VINA RESULT:      -7.3      2.210      3.597
REMARK  Name = *****
REMARK                            x       y       z     vdW  Elec       q    Type
REMARK                         _______ _______ _______ _____ _____    ______ ____
ROOT
ATOM      1  C   LIG    1       31.208 -19.312   8.806  0.00  0.00    +0.141 C 
ATOM      2  N   LIG    1       30.249 -19.838   7.863  0.00  0.00    -0.245 N 
ATOM      3  C   LIG    1       29.568 -21.004   8.072  0.00  0.00    +0.229 C 
ATOM      4  O   LIG    1       29.679 -21.731   9.049  0.00  0.00    -0.275 OA
ATOM      5  C   LIG    1       28.666 -21.259   6.885  0.00  0.00    +0.114 C 
ATOM      6  C   LIG    1       28.848 -20.024   6.004  0.00  0.00    +0.114 C 
ATOM      7  C   LIG    1       29.897 -19.215   6.705  0.00  0.00    +0.223 C 
ATOM      8  O   LIG    1       30.339 -18.157   6.281  0.00  0.00    -0.275 OA
ENDROOT
BRANCH   5   9
ATOM      9  C   LIG    1       27.212 -21.508   7.223  0.00  0.00    -0.035 A 
ATOM     10  C   LIG    1       26.618 -22.770   7.069  0.00  0.00    +0.004 A 
ATOM     11  C   LIG    1       25.283 -22.976   7.425  0.00  0.00    +0.000 A 
ATOM     12  C   LIG    1       24.529 -21.928   7.949  0.00  0.00    +0.000 A 
ATOM     13  C   LIG    1       25.108 -20.673   8.116  0.00  0.00    +0.000 A 
ATOM     14  C   LIG    1       26.441 -20.465   7.759  0.00  0.00    +0.004 A 
ENDBRANCH   5   9
TORSDOF 1
ENDMDL
MODEL 5
REMARK VINA RESULT:      -7.2      2.394      3.258
REMARK  Name = *****
REMARK                            x       y       z     vdW  Elec       q    Type
REMARK                         _______ _______ _______ _____ _____    ______ ____
ROOT
ATOM      1  C   LIG    1       29.639 -19.077   8.614  0.00  0.00    +0.141 C 
ATOM      2  N   LIG    1       28.863 -19.556   7.495  0.00  0.00    -0.245 N 
ATOM      3  C   LIG    1       27.878 -20.493   7.624  0.00  0.00    +0.229 C 
ATOM      4  O   LIG    1       27.539 -21.035   8.667  0.00  0.00    -0.275 OA
ATOM      5  C   LIG    1       27.286 -20.768   6.260  0.00  0.00    +0.114 C 
ATOM      6  C   LIG    1       28.002 -19.783   5.336  0.00  0.00    +0.114 C 
ATOM      7  C   LIG    1       28.999 -19.097   6.220  0.00  0.00    +0.223 C 
ATOM      8  O   LIG    1       29.790 -18.252   5.829  0.00  0.00    -0.275 OA
ENDROOT
BRANCH   5   9
ATOM      9  C   LIG    1       25.781 -20.641   6.173  0.00  0.00    -0.035 A 
ATOM     10  C   LIG    1       24.950 -20.848   7.284  0.00  0.00    +0.004 A 
ATOM     11  C   LIG    1       23.567 -20.686   7.179  0.00  0.00    +0.000 A 
ATOM     12  C   LIG    1       22.997 -20.306   5.965  0.00  0.00    +0.000 A 
ATOM     13  C   LIG    1       23.811 -20.087   4.856  0.00  0.00    +0.000 A 
ATOM     14  C   LIG    1       25.193 -20.250   4.959  0.00  0.00    +0.004 A 
ENDBRANCH   5   9
TORSDOF 1
ENDMDL
MODEL 6
REMARK VINA RESULT:      -7.0      2.162      5.056
REMARK  Name = *****
REMARK                            x       y       z     vdW  Elec       q    Type
REMARK                         _______ _______ _______ _____ _____    ______ ____
ROOT
ATOM      1  C   LIG    1       23.556 -24.315   6.507  0.00  0.00    +0.141 C 
ATOM      2  N   LIG    1       23.984 -22.970   6.813  0.00  0.00    -0.245 N 
ATOM      3  C   LIG    1       25.144 -22.695   7.480  0.00  0.00    +0.229 C 
ATOM      4  O   LIG    1       25.943 -23.523   7.894  0.00  0.00    -0.275 OA
ATOM      5  C   LIG    1       25.269 -21.196   7.639  0.00  0.00    +0.114 C 
ATOM      6  C   LIG    1       24.064 -20.638   6.884  0.00  0.00    +0.114 C 
ATOM      7  C   LIG    1       23.307 -21.850   6.436  0.00  0.00    +0.223 C 
ATOM      8  O   LIG    1       22.252 -21.808   5.819  0.00  0.00    -0.275 OA
ENDROOT
BRANCH   5   9
ATOM      9  C   LIG    1       26.573 -20.603   7.153  0.00  0.00    -0.035 A 
ATOM     10  C   LIG    1       26.770 -20.236   5.813  0.00  0.00    +0.004 A 
ATOM     11  C   LIG    1       27.973 -19.656   5.404  0.00  0.00    +0.000 A 
ATOM     12  C   LIG    1       28.990 -19.427   6.329  0.00  0.00    +0.000 A 
ATOM     13  C   LIG    1       28.804 -19.778   7.664  0.00  0.00    +0.000 A 
ATOM     14  C   LIG    1       27.603 -20.358   8.074  0.00  0.00    +0.004 A 
ENDBRANCH   5   9
TORSDOF 1
ENDMDL
MODEL 7
REMARK VINA RESULT:      -7.0      2.478      4.962
REMARK  Name = *****
REMARK                            x       y       z     vdW  Elec       q    Type
REMARK                         _______ _______ _______ _____ _____    ______ ____
ROOT
ATOM      1  C   LIG    1       22.884 -19.985   5.394  0.00  0.00    +0.141 C 
ATOM      2  N   LIG    1       24.101 -20.510   5.965  0.00  0.00    -0.245 N 
ATOM      3  C   LIG    1       25.303 -20.468   5.317  0.00  0.00    +0.229 C 
ATOM      4  O   LIG    1       25.498 -19.999   4.204  0.00  0.00    -0.275 OA
ATOM      5  C   LIG    1       26.352 -21.114   6.194  0.00  0.00    +0.114 C 
ATOM      6  C   LIG    1       25.606 -21.449   7.485  0.00  0.00    +0.114 C 
ATOM      7  C   LIG    1       24.186 -21.055   7.210  0.00  0.00    +0.223 C 
ATOM      8  O   LIG    1       23.271 -21.203   8.007  0.00  0.00    -0.275 OA
ENDROOT
BRANCH   5   9
ATOM      9  C   LIG    1       27.585 -20.275   6.449  0.00  0.00    -0.035 A 
ATOM     10  C   LIG    1       28.179 -19.499   5.442  0.00  0.00    +0.004 A 
ATOM     11  C   LIG    1       29.295 -18.707   5.720  0.00  0.00    +0.000 A 
ATOM     12  C   LIG    1       29.825 -18.671   7.008  0.00  0.00    +0.000 A 
ATOM     13  C   LIG    1       29.239 -19.428   8.020  0.00  0.00    +0.000 A 
ATOM     14  C   LIG    1       28.125 -20.222   7.744  0.00  0.00    +0.004 A 
ENDBRANCH   5   9
TORSDOF 1
ENDMDL
MODEL 8
REMARK VINA RESULT:      -6.9      3.904      7.003
REMARK  Name = *****
REMARK                            x       y       z     vdW  Elec       q    Type
REMARK                         _______ _______ _______ _____ _____    ______ ____
ROOT
ATOM      1  C   LIG    1       27.680 -19.886   5.460  0.00  0.00    +0.141 C 
ATOM      2  N   LIG    1       28.771 -19.952   6.403  0.00  0.00    -0.245 N 
ATOM      3  C   LIG    1       29.737 -18.990   6.486  0.00  0.00    +0.229 C 
ATOM      4  O   LIG    1       29.805 -17.984   5.794  0.00  0.00    -0.275 OA
ATOM      5  C   LIG    1       30.723 -19.383   7.563  0.00  0.00    +0.114 C 
ATOM      6  C   LIG    1       30.136 -20.661   8.160  0.00  0.00    +0.114 C 
ATOM      7  C   LIG    1       28.924 -20.943   7.325  0.00  0.00    +0.223 C 
ATOM      8  O   LIG    1       28.199 -21.914   7.479  0.00  0.00    -0.275 OA
ENDROOT
BRANCH   5   9
ATOM      9  C   LIG    1       30.981 -18.328   8.617  0.00  0.00    -0.035 A 
ATOM     10  C   LIG    1       30.077 -18.081   9.661  0.00  0.00    +0.004 A 
ATOM     11  C   LIG    1       30.363 -17.126  10.638  0.00  0.00    +0.000 A 
ATOM     12  C   LIG    1       31.559 -16.412  10.591  0.00  0.00    +0.000 A 
ATOM     13  C   LIG    1       32.470 -16.654   9.566  0.00  0.00    +0.000 A 
ATOM     14  C   LIG    1       32.185 -17.607   8.587  0.00  0.00    +0.004 A 
ENDBRANCH   5   9
TORSDOF 1
ENDMDL
MODEL 9
REMARK VINA RESULT:      -6.9      1.611      2.339
REMARK  Name = *****
REMARK                            x       y       z     vdW  Elec       q    Type
REMARK                         _______ _______ _______ _____ _____    ______ ____
ROOT
ATOM      1  C   LIG    1       26.536 -20.077   5.461  0.00  0.00    +0.141 C 
ATOM      2  N   LIG    1       26.052 -21.169   6.271  0.00  0.00    -0.245 N 
ATOM      3  C   LIG    1       25.143 -22.082   5.817  0.00  0.00    +0.229 C 
ATOM      4  O   LIG    1       24.635 -22.092   4.705  0.00  0.00    -0.275 OA
ATOM      5  C   LIG    1       24.852 -23.071   6.924  0.00  0.00    +0.114 C 
ATOM      6  C   LIG    1       25.796 -22.657   8.052  0.00  0.00    +0.114 C 
ATOM      7  C   LIG    1       26.477 -21.425   7.539  0.00  0.00    +0.223 C 
ATOM      8  O   LIG    1       27.292 -20.778   8.180  0.00  0.00    -0.275 OA
ENDROOT
BRANCH   5   9
ATOM      9  C   LIG    1       25.017 -24.527   6.548  0.00  0.00    -0.035 A 
ATOM     10  C   LIG    1       23.920 -25.340   6.223  0.00  0.00    +0.004 A 
ATOM     11  C   LIG    1       24.109 -26.671   5.843  0.00  0.00    +0.000 A 
ATOM     12  C   LIG    1       25.396 -27.203   5.774  0.00  0.00    +0.000 A 
ATOM     13  C   LIG    1       26.493 -26.404   6.085  0.00  0.00    +0.000 A 
ATOM     14  C   LIG    1       26.306 -25.075   6.466  0.00  0.00    +0.004 A 
ENDBRANCH   5   9
TORSDOF 1
ENDMDL
