MODEL 1
REMARK VINA RESULT:      -7.8      0.000      0.000
REMARK  Name = *****
REMARK                            x       y       z     vdW  Elec       q    Type
REMARK                         _______ _______ _______ _____ _____    ______ ____
ROOT
ATOM      1  C   LIG    1       25.248 -21.689   6.707  0.00  0.00    +0.046 A 
ATOM      2  C   LIG    1       26.625 -21.217   6.670  0.00  0.00    +0.025 A 
ATOM      3  C   LIG    1       26.878 -20.132   5.817  0.00  0.00    +0.074 A 
ATOM      4  C   LIG    1       28.163 -19.630   5.679  0.00  0.00    +0.032 A 
ATOM      5  C   LIG    1       29.241 -20.135   6.399  0.00  0.00    +0.048 A 
ATOM      6  C   LIG    1       29.062 -21.186   7.272  0.00  0.00    +0.121 A 
ATOM      7  N   LIG    1       25.950 -19.495   5.109  0.00  0.00    -0.246 NA
ATOM      8  C   LIG    1       24.690 -19.940   5.124  0.00  0.00    +0.075 A 
ATOM      9  C   LIG    1       23.758 -19.186   4.415  0.00  0.00    +0.048 A 
ATOM     10  C   LIG    1       22.416 -19.534   4.300  0.00  0.00    +0.043 A 
ATOM     11 CL   LIG    1       21.294 -18.557   3.477  0.00  0.00    -0.084 Cl
ATOM     12  C   LIG    1       21.986 -20.712   4.898  0.00  0.00    +0.021 A 
ATOM     13  C   LIG    1       22.906 -21.451   5.625  0.00  0.00    +0.013 A 
ATOM     14  C   LIG    1       27.764 -21.725   7.415  0.00  0.00    +0.057 A 
ATOM     15  C   LIG    1       24.277 -21.068   5.840  0.00  0.00    +0.022 A 
ENDROOT
BRANCH   1  16
ATOM     16  N   LIG    1       24.963 -22.792   7.546  0.00  0.00    -0.340 N 
ATOM     17  H   LIG    1       24.349 -22.557   8.320  0.00  0.00    +0.146 HD
BRANCH  16  18
ATOM     18  C   LIG    1       24.837 -24.212   7.154  0.00  0.00    +0.067 C 
ATOM     19  C   LIG    1       23.413 -24.460   6.654  0.00  0.00    +0.027 C 
BRANCH  18  20
ATOM     20  C   LIG    1       25.991 -24.668   6.209  0.00  0.00    +0.023 C 
BRANCH  20  21
ATOM     21  C   LIG    1       26.124 -26.179   5.912  0.00  0.00    +0.017 C 
BRANCH  21  22
ATOM     22  C   LIG    1       25.900 -27.194   7.042  0.00  0.00    +0.084 C 
BRANCH  22  23
ATOM     23  N   LIG    1       24.885 -28.267   6.902  0.00  0.00    -0.303 NA
BRANCH  23  25
ATOM     24  C   LIG    1       26.174 -28.924   9.077  0.00  0.00    +0.020 C 
ATOM     25  C   LIG    1       25.220 -29.300   7.940  0.00  0.00    +0.081 C 
ENDBRANCH  23  25
BRANCH  23  26
ATOM     26  C   LIG    1       24.848 -28.905   5.566  0.00  0.00    +0.081 C 
ATOM     27  C   LIG    1       25.421 -30.312   5.358  0.00  0.00    +0.020 C 
ENDBRANCH  23  26
ENDBRANCH  22  23
ENDBRANCH  21  22
ENDBRANCH  20  21
ENDBRANCH  18  20
ENDBRANCH  16  18
ENDBRANCH   1  16
BRANCH   6  28
ATOM     28  O   LIG    1       30.052 -21.680   8.084  0.00  0.00    -0.495 OA
ATOM     29  C   LIG    1       30.973 -20.719   8.604  0.00  0.00    +0.277 C 
ENDBRANCH   6  28
TORSDOF 9
ENDMDL
MODEL 2
REMARK VINA RESULT:      -7.6      2.264      6.672
REMARK  Name = *****
REMARK                            x       y       z     vdW  Elec       q    Type
REMARK                         _______ _______ _______ _____ _____    ______ ____
ROOT
ATOM      1  C   LIG    1       25.125 -21.238   5.327  0.00  0.00    +0.046 A 
ATOM      2  C   LIG    1       24.818 -22.562   5.851  0.00  0.00    +0.025 A 
ATOM      3  C   LIG    1       23.457 -22.889   5.930  0.00  0.00    +0.074 A 
ATOM      4  C   LIG    1       23.054 -24.110   6.450  0.00  0.00    +0.032 A 
ATOM      5  C   LIG    1       23.963 -25.076   6.869  0.00  0.00    +0.048 A 
ATOM      6  C   LIG    1       25.318 -24.832   6.800  0.00  0.00    +0.121 A 
ATOM      7  N   LIG    1       22.466 -22.105   5.514  0.00  0.00    -0.246 NA
ATOM      8  C   LIG    1       22.744 -20.882   5.054  0.00  0.00    +0.075 A 
ATOM      9  C   LIG    1       21.666 -20.143   4.571  0.00  0.00    +0.048 A 
ATOM     10  C   LIG    1       21.781 -18.840   4.094  0.00  0.00    +0.043 A 
ATOM     11 CL   LIG    1       20.454 -17.989   3.456  0.00  0.00    -0.084 Cl
ATOM     12  C   LIG    1       23.029 -18.232   4.129  0.00  0.00    +0.021 A 
ATOM     13  C   LIG    1       24.107 -18.974   4.585  0.00  0.00    +0.013 A 
ATOM     14  C   LIG    1       25.749 -23.587   6.290  0.00  0.00    +0.057 A 
ATOM     15  C   LIG    1       24.036 -20.352   4.995  0.00  0.00    +0.022 A 
ENDROOT
BRANCH   1  16
ATOM     16  N   LIG    1       26.490 -20.872   5.249  0.00  0.00    -0.340 N 
ATOM     17  H   LIG    1       26.823 -20.777   4.295  0.00  0.00    +0.146 HD
BRANCH  16  18
ATOM     18  C   LIG    1       27.247 -20.015   6.186  0.00  0.00    +0.067 C 
ATOM     19  C   LIG    1       26.956 -20.471   7.616  0.00  0.00    +0.027 C 
BRANCH  18  20
ATOM     20  C   LIG    1       28.752 -19.895   5.791  0.00  0.00    +0.023 C 
BRANCH  20  21
ATOM     21  C   LIG    1       29.631 -18.910   6.596  0.00  0.00    +0.017 C 
BRANCH  21  22
ATOM     22  C   LIG    1       31.115 -19.232   6.818  0.00  0.00    +0.084 C 
BRANCH  22  23
ATOM     23  N   LIG    1       31.638 -19.472   8.186  0.00  0.00    -0.303 NA
BRANCH  23  25
ATOM     24  C   LIG    1       31.264 -21.913   9.043  0.00  0.00    +0.020 C 
ATOM     25  C   LIG    1       30.730 -20.497   8.808  0.00  0.00    +0.081 C 
ENDBRANCH  23  25
BRANCH  23  26
ATOM     26  C   LIG    1       31.682 -18.268   9.046  0.00  0.00    +0.081 C 
ATOM     27  C   LIG    1       30.442 -17.826   9.833  0.00  0.00    +0.020 C 
ENDBRANCH  23  26
ENDBRANCH  22  23
ENDBRANCH  21  22
ENDBRANCH  20  21
ENDBRANCH  18  20
ENDBRANCH  16  18
ENDBRANCH   1  16
BRANCH   6  28
ATOM     28  O   LIG    1       26.277 -25.764   7.107  0.00  0.00    -0.495 OA
ATOM     29  C   LIG    1       25.897 -27.131   6.943  0.00  0.00    +0.277 C 
ENDBRANCH   6  28
TORSDOF 9
ENDMDL
MODEL 3
REMARK VINA RESULT:      -7.0      3.472      8.206
REMARK  Name = *****
REMARK                            x       y       z     vdW  Elec       q    Type
REMARK                         _______ _______ _______ _____ _____    ______ ____
ROOT
ATOM      1  C   LIG    1       26.149 -20.790   6.116  0.00  0.00    +0.046 A 
ATOM      2  C   LIG    1       27.461 -20.578   6.709  0.00  0.00    +0.025 A 
ATOM      3  C   LIG    1       28.027 -21.685   7.359  0.00  0.00    +0.074 A 
ATOM      4  C   LIG    1       29.257 -21.579   7.989  0.00  0.00    +0.032 A 
ATOM      5  C   LIG    1       30.004 -20.405   7.973  0.00  0.00    +0.048 A 
ATOM      6  C   LIG    1       29.520 -19.283   7.335  0.00  0.00    +0.121 A 
ATOM      7  N   LIG    1       27.474 -22.894   7.411  0.00  0.00    -0.246 NA
ATOM      8  C   LIG    1       26.260 -23.085   6.887  0.00  0.00    +0.075 A 
ATOM      9  C   LIG    1       25.772 -24.390   6.916  0.00  0.00    +0.048 A 
ATOM     10  C   LIG    1       24.511 -24.748   6.448  0.00  0.00    +0.043 A 
ATOM     11 CL   LIG    1       23.972 -26.361   6.443  0.00  0.00    -0.084 Cl
ATOM     12  C   LIG    1       23.683 -23.750   5.952  0.00  0.00    +0.021 A 
ATOM     13  C   LIG    1       24.176 -22.455   5.899  0.00  0.00    +0.013 A 
ATOM     14  C   LIG    1       28.260 -19.364   6.701  0.00  0.00    +0.057 A 
ATOM     15  C   LIG    1       25.507 -22.070   6.288  0.00  0.00    +0.022 A 
ENDROOT
BRANCH   1  16
ATOM     16  N   LIG    1       25.544 -19.687   5.467  0.00  0.00    -0.340 N 
ATOM     17  H   LIG    1       25.697 -18.808   5.951  0.00  0.00    +0.146 HD
BRANCH  16  18
ATOM     18  C   LIG    1       25.353 -19.492   4.015  0.00  0.00    +0.067 C 
ATOM     19  C   LIG    1       23.855 -19.393   3.724  0.00  0.00    +0.027 C 
BRANCH  18  20
ATOM     20  C   LIG    1       26.243 -18.341   3.452  0.00  0.00    +0.023 C 
BRANCH  20  21
ATOM     21  C   LIG    1       25.568 -16.978   3.173  0.00  0.00    +0.017 C 
BRANCH  21  22
ATOM     22  C   LIG    1       26.341 -15.681   3.448  0.00  0.00    +0.084 C 
BRANCH  22  23
ATOM     23  N   LIG    1       26.118 -14.478   2.609  0.00  0.00    -0.303 NA
BRANCH  23  25
ATOM     24  C   LIG    1       28.113 -13.586   4.041  0.00  0.00    +0.020 C 
ATOM     25  C   LIG    1       27.377 -13.662   2.701  0.00  0.00    +0.081 C 
ENDBRANCH  23  25
BRANCH  23  26
ATOM     26  C   LIG    1       24.963 -13.649   3.022  0.00  0.00    +0.081 C 
ATOM     27  C   LIG    1       24.179 -13.984   4.297  0.00  0.00    +0.020 C 
ENDBRANCH  23  26
ENDBRANCH  22  23
ENDBRANCH  21  22
ENDBRANCH  20  21
ENDBRANCH  18  20
ENDBRANCH  16  18
ENDBRANCH   1  16
BRANCH   6  28
ATOM     28  O   LIG    1       30.232 -18.119   7.196  0.00  0.00    -0.495 OA
ATOM     29  C   LIG    1       31.028 -17.733   8.318  0.00  0.00    +0.277 C 
ENDBRANCH   6  28
TORSDOF 9
ENDMDL
MODEL 4
REMARK VINA RESULT:      -6.9      3.220      7.644
REMARK  Name = *****
REMARK                            x       y       z     vdW  Elec       q    Type
REMARK                         _______ _______ _______ _____ _____    ______ ____
ROOT
ATOM      1  C   LIG    1       25.405 -22.748   6.263  0.00  0.00    +0.046 A 
ATOM      2  C   LIG    1       24.183 -22.033   5.924  0.00  0.00    +0.025 A 
ATOM      3  C   LIG    1       23.038 -22.825   5.749  0.00  0.00    +0.074 A 
ATOM      4  C   LIG    1       21.831 -22.247   5.387  0.00  0.00    +0.032 A 
ATOM      5  C   LIG    1       21.681 -20.872   5.228  0.00  0.00    +0.048 A 
ATOM      6  C   LIG    1       22.759 -20.031   5.406  0.00  0.00    +0.121 A 
ATOM      7  N   LIG    1       22.996 -24.143   5.925  0.00  0.00    -0.246 NA
ATOM      8  C   LIG    1       24.121 -24.803   6.213  0.00  0.00    +0.075 A 
ATOM      9  C   LIG    1       23.992 -26.170   6.452  0.00  0.00    +0.048 A 
ATOM     10  C   LIG    1       25.070 -27.006   6.727  0.00  0.00    +0.043 A 
ATOM     11 CL   LIG    1       24.868 -28.659   7.073  0.00  0.00    -0.084 Cl
ATOM     12  C   LIG    1       26.345 -26.458   6.734  0.00  0.00    +0.021 A 
ATOM     13  C   LIG    1       26.474 -25.094   6.522  0.00  0.00    +0.013 A 
ATOM     14  C   LIG    1       24.003 -20.601   5.757  0.00  0.00    +0.057 A 
ATOM     15  C   LIG    1       25.372 -24.189   6.329  0.00  0.00    +0.022 A 
ENDROOT
BRANCH   1  16
ATOM     16  N   LIG    1       26.581 -21.980   6.431  0.00  0.00    -0.340 N 
ATOM     17  H   LIG    1       27.306 -22.207   5.757  0.00  0.00    +0.146 HD
BRANCH  16  18
ATOM     18  C   LIG    1       26.683 -20.582   6.900  0.00  0.00    +0.067 C 
ATOM     19  C   LIG    1       26.613 -20.567   8.427  0.00  0.00    +0.027 C 
BRANCH  18  20
ATOM     20  C   LIG    1       27.889 -19.830   6.256  0.00  0.00    +0.023 C 
BRANCH  20  21
ATOM     21  C   LIG    1       29.301 -20.427   6.459  0.00  0.00    +0.017 C 
BRANCH  21  22
ATOM     22  C   LIG    1       30.481 -19.491   6.756  0.00  0.00    +0.084 C 
BRANCH  22  23
ATOM     23  N   LIG    1       31.381 -19.754   7.905  0.00  0.00    -0.303 NA
BRANCH  23  25
ATOM     24  C   LIG    1       31.495 -22.078   9.094  0.00  0.00    +0.020 C 
ATOM     25  C   LIG    1       30.709 -20.815   8.730  0.00  0.00    +0.081 C 
ENDBRANCH  23  25
BRANCH  23  26
ATOM     26  C   LIG    1       31.655 -18.571   8.753  0.00  0.00    +0.081 C 
ATOM     27  C   LIG    1       30.535 -17.580   9.092  0.00  0.00    +0.020 C 
ENDBRANCH  23  26
ENDBRANCH  22  23
ENDBRANCH  21  22
ENDBRANCH  20  21
ENDBRANCH  18  20
ENDBRANCH  16  18
ENDBRANCH   1  16
BRANCH   6  28
ATOM     28  O   LIG    1       22.673 -18.663   5.358  0.00  0.00    -0.495 OA
ATOM     29  C   LIG    1       21.946 -18.119   4.254  0.00  0.00    +0.277 C 
ENDBRANCH   6  28
TORSDOF 9
ENDMDL
MODEL 5
REMARK VINA RESULT:      -6.9      2.842      4.868
REMARK  Name = *****
REMARK                            x       y       z     vdW  Elec       q    Type
REMARK                         _______ _______ _______ _____ _____    ______ ____
ROOT
ATOM      1  C   LIG    1       26.008 -21.447   6.808  0.00  0.00    +0.046 A 
ATOM      2  C   LIG    1       25.252 -20.843   5.720  0.00  0.00    +0.025 A 
ATOM      3  C   LIG    1       25.929 -19.871   4.969  0.00  0.00    +0.074 A 
ATOM      4  C   LIG    1       25.287 -19.207   3.935  0.00  0.00    +0.032 A 
ATOM      5  C   LIG    1       23.978 -19.497   3.562  0.00  0.00    +0.048 A 
ATOM      6  C   LIG    1       23.260 -20.457   4.242  0.00  0.00    +0.121 A 
ATOM      7  N   LIG    1       27.199 -19.522   5.154  0.00  0.00    -0.246 NA
ATOM      8  C   LIG    1       27.887 -20.058   6.165  0.00  0.00    +0.075 A 
ATOM      9  C   LIG    1       29.231 -19.700   6.258  0.00  0.00    +0.048 A 
ATOM     10  C   LIG    1       30.074 -20.140   7.274  0.00  0.00    +0.043 A 
ATOM     11 CL   LIG    1       31.724 -19.732   7.322  0.00  0.00    -0.084 Cl
ATOM     12  C   LIG    1       29.543 -20.954   8.266  0.00  0.00    +0.021 A 
ATOM     13  C   LIG    1       28.214 -21.332   8.163  0.00  0.00    +0.013 A 
ATOM     14  C   LIG    1       23.888 -21.133   5.311  0.00  0.00    +0.057 A 
ATOM     15  C   LIG    1       27.343 -20.970   7.075  0.00  0.00    +0.022 A 
ENDROOT
BRANCH   1  16
ATOM     16  N   LIG    1       25.348 -22.421   7.594  0.00  0.00    -0.340 N 
ATOM     17  H   LIG    1       24.624 -22.029   8.189  0.00  0.00    +0.146 HD
BRANCH  16  18
ATOM     18  C   LIG    1       25.067 -23.827   7.236  0.00  0.00    +0.067 C 
ATOM     19  C   LIG    1       23.596 -23.949   6.835  0.00  0.00    +0.027 C 
BRANCH  18  20
ATOM     20  C   LIG    1       26.109 -24.398   6.225  0.00  0.00    +0.023 C 
BRANCH  20  21
ATOM     21  C   LIG    1       25.923 -25.856   5.747  0.00  0.00    +0.017 C 
BRANCH  21  22
ATOM     22  C   LIG    1       26.019 -27.003   6.764  0.00  0.00    +0.084 C 
BRANCH  22  23
ATOM     23  N   LIG    1       24.913 -27.983   6.901  0.00  0.00    -0.303 NA
BRANCH  23  25
ATOM     24  C   LIG    1       26.384 -28.489   9.001  0.00  0.00    +0.020 C 
ATOM     25  C   LIG    1       25.332 -28.938   7.984  0.00  0.00    +0.081 C 
ENDBRANCH  23  25
BRANCH  23  26
ATOM     26  C   LIG    1       24.609 -28.741   5.666  0.00  0.00    +0.081 C 
ATOM     27  C   LIG    1       25.350 -30.046   5.350  0.00  0.00    +0.020 C 
ENDBRANCH  23  26
ENDBRANCH  22  23
ENDBRANCH  21  22
ENDBRANCH  20  21
ENDBRANCH  18  20
ENDBRANCH  16  18
ENDBRANCH   1  16
BRANCH   6  28
ATOM     28  O   LIG    1       22.001 -20.865   3.880  0.00  0.00    -0.495 OA
ATOM     29  C   LIG    1       21.261 -21.574   4.875  0.00  0.00    +0.277 C 
ENDBRANCH   6  28
TORSDOF 9
ENDMDL
MODEL 6
REMARK VINA RESULT:      -6.8      1.535      2.160
REMARK  Name = *****
REMARK                            x       y       z     vdW  Elec       q    Type
REMARK                         _______ _______ _______ _____ _____    ______ ____
ROOT
ATOM      1  C   LIG    1       27.090 -21.274   6.484  0.00  0.00    +0.046 A 
ATOM      2  C   LIG    1       28.351 -20.556   6.601  0.00  0.00    +0.025 A 
ATOM      3  C   LIG    1       28.490 -19.425   5.783  0.00  0.00    +0.074 A 
ATOM      4  C   LIG    1       29.667 -18.692   5.789  0.00  0.00    +0.032 A 
ATOM      5  C   LIG    1       30.735 -19.005   6.625  0.00  0.00    +0.048 A 
ATOM      6  C   LIG    1       30.660 -20.090   7.471  0.00  0.00    +0.121 A 
ATOM      7  N   LIG    1       27.543 -18.954   4.976  0.00  0.00    -0.246 NA
ATOM      8  C   LIG    1       26.394 -19.624   4.851  0.00  0.00    +0.075 A 
ATOM      9  C   LIG    1       25.422 -19.039   4.043  0.00  0.00    +0.048 A 
ATOM     10  C   LIG    1       24.188 -19.626   3.779  0.00  0.00    +0.043 A 
ATOM     11 CL   LIG    1       23.001 -18.854   2.837  0.00  0.00    -0.084 Cl
ATOM     12  C   LIG    1       23.921 -20.875   4.324  0.00  0.00    +0.021 A 
ATOM     13  C   LIG    1       24.877 -21.449   5.148  0.00  0.00    +0.013 A 
ATOM     14  C   LIG    1       29.477 -20.862   7.468  0.00  0.00    +0.057 A 
ATOM     15  C   LIG    1       26.121 -20.824   5.515  0.00  0.00    +0.022 A 
ENDROOT
BRANCH   1  16
ATOM     16  N   LIG    1       26.925 -22.429   7.285  0.00  0.00    -0.340 N 
ATOM     17  H   LIG    1       27.803 -22.805   7.628  0.00  0.00    +0.146 HD
BRANCH  16  18
ATOM     18  C   LIG    1       25.800 -22.744   8.190  0.00  0.00    +0.067 C 
ATOM     19  C   LIG    1       25.338 -21.455   8.870  0.00  0.00    +0.027 C 
BRANCH  18  20
ATOM     20  C   LIG    1       24.693 -23.587   7.483  0.00  0.00    +0.023 C 
BRANCH  20  21
ATOM     21  C   LIG    1       25.145 -24.758   6.581  0.00  0.00    +0.017 C 
BRANCH  21  22
ATOM     22  C   LIG    1       24.099 -25.746   6.044  0.00  0.00    +0.084 C 
BRANCH  22  23
ATOM     23  N   LIG    1       24.515 -27.060   5.496  0.00  0.00    -0.303 NA
BRANCH  23  25
ATOM     24  C   LIG    1       24.312 -29.305   6.819  0.00  0.00    +0.020 C 
ATOM     25  C   LIG    1       24.909 -27.902   6.678  0.00  0.00    +0.081 C 
ENDBRANCH  23  25
BRANCH  23  26
ATOM     26  C   LIG    1       25.644 -26.996   4.540  0.00  0.00    +0.081 C 
ATOM     27  C   LIG    1       27.077 -27.280   5.005  0.00  0.00    +0.020 C 
ENDBRANCH  23  26
ENDBRANCH  22  23
ENDBRANCH  21  22
ENDBRANCH  20  21
ENDBRANCH  18  20
ENDBRANCH  16  18
ENDBRANCH   1  16
BRANCH   6  28
ATOM     28  O   LIG    1       31.629 -20.410   8.387  0.00  0.00    -0.495 OA
ATOM     29  C   LIG    1       31.412 -21.607   9.137  0.00  0.00    +0.277 C 
ENDBRANCH   6  28
TORSDOF 9
ENDMDL
MODEL 7
REMARK VINA RESULT:      -6.7      3.925      9.018
REMARK  Name = *****
REMARK                            x       y       z     vdW  Elec       q    Type
REMARK                         _______ _______ _______ _____ _____    ______ ____
ROOT
ATOM      1  C   LIG    1       26.192 -20.425   5.885  0.00  0.00    +0.046 A 
ATOM      2  C   LIG    1       25.717 -21.736   6.305  0.00  0.00    +0.025 A 
ATOM      3  C   LIG    1       26.653 -22.545   6.965  0.00  0.00    +0.074 A 
ATOM      4  C   LIG    1       26.314 -23.826   7.374  0.00  0.00    +0.032 A 
ATOM      5  C   LIG    1       25.037 -24.351   7.196  0.00  0.00    +0.048 A 
ATOM      6  C   LIG    1       24.060 -23.604   6.574  0.00  0.00    +0.121 A 
ATOM      7  N   LIG    1       27.893 -22.172   7.270  0.00  0.00    -0.246 NA
ATOM      8  C   LIG    1       28.338 -20.979   6.865  0.00  0.00    +0.075 A 
ATOM      9  C   LIG    1       29.622 -20.625   7.278  0.00  0.00    +0.048 A 
ATOM     10  C   LIG    1       30.245 -19.436   6.910  0.00  0.00    +0.043 A 
ATOM     11 CL   LIG    1       31.789 -19.010   7.482  0.00  0.00    -0.084 Cl
ATOM     12  C   LIG    1       29.567 -18.569   6.064  0.00  0.00    +0.021 A 
ATOM     13  C   LIG    1       28.281 -18.907   5.673  0.00  0.00    +0.013 A 
ATOM     14  C   LIG    1       24.390 -22.302   6.134  0.00  0.00    +0.057 A 
ATOM     15  C   LIG    1       27.575 -20.082   6.112  0.00  0.00    +0.022 A 
ENDROOT
BRANCH   1  16
ATOM     16  N   LIG    1       25.275 -19.591   5.202  0.00  0.00    -0.340 N 
ATOM     17  H   LIG    1       25.126 -18.700   5.665  0.00  0.00    +0.146 HD
BRANCH  16  18
ATOM     18  C   LIG    1       25.058 -19.498   3.743  0.00  0.00    +0.067 C 
ATOM     19  C   LIG    1       23.554 -19.474   3.470  0.00  0.00    +0.027 C 
BRANCH  18  20
ATOM     20  C   LIG    1       25.897 -18.354   3.094  0.00  0.00    +0.023 C 
BRANCH  20  21
ATOM     21  C   LIG    1       25.503 -16.896   3.424  0.00  0.00    +0.017 C 
BRANCH  21  22
ATOM     22  C   LIG    1       26.582 -15.804   3.425  0.00  0.00    +0.084 C 
BRANCH  22  23
ATOM     23  N   LIG    1       26.450 -14.612   2.551  0.00  0.00    -0.303 NA
BRANCH  23  25
ATOM     24  C   LIG    1       27.826 -13.575   4.516  0.00  0.00    +0.020 C 
ATOM     25  C   LIG    1       27.483 -13.628   3.024  0.00  0.00    +0.081 C 
ENDBRANCH  23  25
BRANCH  23  26
ATOM     26  C   LIG    1       25.114 -13.976   2.581  0.00  0.00    +0.081 C 
ATOM     27  C   LIG    1       24.403 -13.717   3.915  0.00  0.00    +0.020 C 
ENDBRANCH  23  26
ENDBRANCH  22  23
ENDBRANCH  21  22
ENDBRANCH  20  21
ENDBRANCH  18  20
ENDBRANCH  16  18
ENDBRANCH   1  16
BRANCH   6  28
ATOM     28  O   LIG    1       22.757 -24.012   6.442  0.00  0.00    -0.495 OA
ATOM     29  C   LIG    1       21.766 -22.988   6.543  0.00  0.00    +0.277 C 
ENDBRANCH   6  28
TORSDOF 9
ENDMDL
MODEL 8
REMARK VINA RESULT:      -6.7      3.244      7.679
REMARK  Name = *****
REMARK                            x       y       z     vdW  Elec       q    Type
REMARK                         _______ _______ _______ _____ _____    ______ ____
ROOT
ATOM      1  C   LIG    1       25.428 -22.834   6.293  0.00  0.00    +0.046 A 
ATOM      2  C   LIG    1       24.203 -22.118   5.967  0.00  0.00    +0.025 A 
ATOM      3  C   LIG    1       23.059 -22.910   5.790  0.00  0.00    +0.074 A 
ATOM      4  C   LIG    1       21.848 -22.331   5.440  0.00  0.00    +0.032 A 
ATOM      5  C   LIG    1       21.696 -20.955   5.295  0.00  0.00    +0.048 A 
ATOM      6  C   LIG    1       22.772 -20.114   5.476  0.00  0.00    +0.121 A 
ATOM      7  N   LIG    1       23.020 -24.230   5.953  0.00  0.00    -0.246 NA
ATOM      8  C   LIG    1       24.147 -24.891   6.230  0.00  0.00    +0.075 A 
ATOM      9  C   LIG    1       24.022 -26.260   6.456  0.00  0.00    +0.048 A 
ATOM     10  C   LIG    1       25.103 -27.097   6.717  0.00  0.00    +0.043 A 
ATOM     11 CL   LIG    1       24.905 -28.754   7.048  0.00  0.00    -0.084 Cl
ATOM     12  C   LIG    1       26.377 -26.547   6.723  0.00  0.00    +0.021 A 
ATOM     13  C   LIG    1       26.503 -25.181   6.523  0.00  0.00    +0.013 A 
ATOM     14  C   LIG    1       24.019 -20.685   5.815  0.00  0.00    +0.057 A 
ATOM     15  C   LIG    1       25.398 -24.276   6.345  0.00  0.00    +0.022 A 
ENDROOT
BRANCH   1  16
ATOM     16  N   LIG    1       26.604 -22.065   6.463  0.00  0.00    -0.340 N 
ATOM     17  H   LIG    1       27.365 -22.363   5.861  0.00  0.00    +0.146 HD
BRANCH  16  18
ATOM     18  C   LIG    1       26.699 -20.630   6.803  0.00  0.00    +0.067 C 
ATOM     19  C   LIG    1       26.726 -20.485   8.325  0.00  0.00    +0.027 C 
BRANCH  18  20
ATOM     20  C   LIG    1       27.841 -19.912   6.020  0.00  0.00    +0.023 C 
BRANCH  20  21
ATOM     21  C   LIG    1       29.284 -20.059   6.555  0.00  0.00    +0.017 C 
BRANCH  21  22
ATOM     22  C   LIG    1       29.848 -18.996   7.508  0.00  0.00    +0.084 C 
BRANCH  22  23
ATOM     23  N   LIG    1       30.343 -19.376   8.854  0.00  0.00    -0.303 NA
BRANCH  23  25
ATOM     24  C   LIG    1       30.362 -17.576  10.748  0.00  0.00    +0.020 C 
ATOM     25  C   LIG    1       30.945 -18.133   9.447  0.00  0.00    +0.081 C 
ENDBRANCH  23  25
BRANCH  23  26
ATOM     26  C   LIG    1       31.351 -20.460   8.853  0.00  0.00    +0.081 C 
ATOM     27  C   LIG    1       30.962 -21.888   9.250  0.00  0.00    +0.020 C 
ENDBRANCH  23  26
ENDBRANCH  22  23
ENDBRANCH  21  22
ENDBRANCH  20  21
ENDBRANCH  18  20
ENDBRANCH  16  18
ENDBRANCH   1  16
BRANCH   6  28
ATOM     28  O   LIG    1       22.684 -18.746   5.441  0.00  0.00    -0.495 OA
ATOM     29  C   LIG    1       22.086 -18.185   4.271  0.00  0.00    +0.277 C 
ENDBRANCH   6  28
TORSDOF 9
ENDMDL
MODEL 9
REMARK VINA RESULT:      -6.7      4.456     10.181
REMARK  Name = *****
REMARK                            x       y       z     vdW  Elec       q    Type
REMARK                         _______ _______ _______ _____ _____    ______ ____
ROOT
ATOM      1  C   LIG    1       25.270 -30.051   7.651  0.00  0.00    +0.046 A 
ATOM      2  C   LIG    1       24.400 -31.206   7.480  0.00  0.00    +0.025 A 
ATOM      3  C   LIG    1       23.855 -31.741   8.657  0.00  0.00    +0.074 A 
ATOM      4  C   LIG    1       23.044 -32.864   8.609  0.00  0.00    +0.032 A 
ATOM      5  C   LIG    1       22.695 -33.482   7.411  0.00  0.00    +0.048 A 
ATOM      6  C   LIG    1       23.177 -32.996   6.215  0.00  0.00    +0.121 A 
ATOM      7  N   LIG    1       24.037 -31.234   9.873  0.00  0.00    -0.246 NA
ATOM      8  C   LIG    1       24.853 -30.189  10.034  0.00  0.00    +0.075 A 
ATOM      9  C   LIG    1       24.943 -29.667  11.323  0.00  0.00    +0.048 A 
ATOM     10  C   LIG    1       25.776 -28.605  11.665  0.00  0.00    +0.043 A 
ATOM     11 CL   LIG    1       25.815 -27.955  13.235  0.00  0.00    -0.084 Cl
ATOM     12  C   LIG    1       26.583 -28.055  10.678  0.00  0.00    +0.021 A 
ATOM     13  C   LIG    1       26.476 -28.556   9.389  0.00  0.00    +0.013 A 
ATOM     14  C   LIG    1       24.020 -31.863   6.242  0.00  0.00    +0.057 A 
ATOM     15  C   LIG    1       25.557 -29.588   8.986  0.00  0.00    +0.022 A 
ENDROOT
BRANCH   1  16
ATOM     16  N   LIG    1       25.849 -29.497   6.484  0.00  0.00    -0.340 N 
ATOM     17  H   LIG    1       26.194 -30.200   5.838  0.00  0.00    +0.146 HD
BRANCH  16  18
ATOM     18  C   LIG    1       25.456 -28.254   5.787  0.00  0.00    +0.067 C 
ATOM     19  C   LIG    1       23.975 -28.343   5.418  0.00  0.00    +0.027 C 
BRANCH  18  20
ATOM     20  C   LIG    1       25.899 -26.976   6.566  0.00  0.00    +0.023 C 
BRANCH  20  21
ATOM     21  C   LIG    1       25.357 -25.613   6.079  0.00  0.00    +0.017 C 
BRANCH  21  22
ATOM     22  C   LIG    1       25.632 -24.351   6.909  0.00  0.00    +0.084 C 
BRANCH  22  23
ATOM     23  N   LIG    1       25.374 -23.004   6.342  0.00  0.00    -0.303 NA
BRANCH  23  25
ATOM     24  C   LIG    1       26.250 -21.704   8.433  0.00  0.00    +0.020 C 
ATOM     25  C   LIG    1       26.393 -22.087   6.957  0.00  0.00    +0.081 C 
ENDBRANCH  23  25
BRANCH  23  26
ATOM     26  C   LIG    1       24.016 -22.478   6.608  0.00  0.00    +0.081 C 
ATOM     27  C   LIG    1       22.827 -23.434   6.772  0.00  0.00    +0.020 C 
ENDBRANCH  23  26
ENDBRANCH  22  23
ENDBRANCH  21  22
ENDBRANCH  20  21
ENDBRANCH  18  20
ENDBRANCH  16  18
ENDBRANCH   1  16
BRANCH   6  28
ATOM     28  O   LIG    1       22.809 -33.490   4.989  0.00  0.00    -0.495 OA
ATOM     29  C   LIG    1       23.877 -33.808   4.094  0.00  0.00    +0.277 C 
ENDBRANCH   6  28
TORSDOF 9
ENDMDL
