MODEL 1
REMARK VINA RESULT:      -5.9      0.000      0.000
REMARK  Name = *****
REMARK                            x       y       z     vdW  Elec       q    Type
REMARK                         _______ _______ _______ _____ _____    ______ ____
ROOT
ATOM      1  C   LIG    1       21.456 -30.303  12.522  0.00  0.00    +0.012 C 
ATOM      2  C   LIG    1       22.767 -30.332  11.722  0.00  0.00    +0.013 C 
ATOM      3  C   LIG    1       23.823 -29.319  12.132  0.00  0.00    -0.053 C 
ATOM      4  C   LIG    1       25.194 -29.516  11.456  0.00  0.00    +0.018 C 
ATOM      5  C   LIG    1       25.831 -30.791  12.060  0.00  0.00    +0.021 C 
ATOM      6  C   LIG    1       26.153 -28.383  11.835  0.00  0.00    -0.012 C 
ATOM      7  C   LIG    1       25.887 -27.383  12.685  0.00  0.00    +0.047 C 
ATOM      8  C   LIG    1       24.576 -27.288  13.344  0.00  0.00    +0.179 C 
ATOM      9  O   LIG    1       24.323 -26.394  14.138  0.00  0.00    -0.288 OA
ATOM     10  C   LIG    1       25.019 -29.546   9.880  0.00  0.00    +0.072 C 
ATOM     11  C   LIG    1       23.694 -30.116   9.314  0.00  0.00    +0.005 C 
ATOM     12  C   LIG    1       23.805 -31.429   8.525  0.00  0.00    +0.002 C 
ATOM     13  C   LIG    1       24.782 -31.345   7.325  0.00  0.00    +0.013 C 
ATOM     14  C   LIG    1       24.239 -30.436   6.206  0.00  0.00    +0.015 C 
ATOM     15  C   LIG    1       26.145 -30.813   7.809  0.00  0.00    +0.084 C 
ATOM     16  C   LIG    1       24.780 -32.843   6.885  0.00  0.00    +0.132 C 
ATOM     17  C   LIG    1       24.916 -33.604   8.209  0.00  0.00    +0.043 C 
ATOM     18  C   LIG    1       24.263 -32.692   9.270  0.00  0.00    +0.007 C 
ATOM     19  C   LIG    1       26.252 -30.081   9.138  0.00  0.00    +0.138 C 
ATOM     20  O   LIG    1       27.393 -29.840   9.548  0.00  0.00    -0.297 OA
ATOM     21  C   LIG    1       23.570 -28.311  12.991  0.00  0.00    +0.051 C 
ATOM     22  C   LIG    1       22.469 -30.092  10.248  0.00  0.00    +0.012 C 
ENDROOT
BRANCH  16  23
ATOM     23  O   LIG    1       23.448 -33.156   6.386  0.00  0.00    -0.380 OA
ATOM     24  H   LIG    1       23.553 -33.382   5.437  0.00  0.00    +0.211 HD
ENDBRANCH  16  23
BRANCH  16  25
ATOM     25  C   LIG    1       25.691 -33.400   5.770  0.00  0.00    +0.190 C 
ATOM     26  O   LIG    1       26.919 -33.428   5.956  0.00  0.00    -0.292 OA
BRANCH  25  27
ATOM     27  C   LIG    1       25.143 -33.824   4.425  0.00  0.00    +0.233 C 
BRANCH  27  28
ATOM     28  O   LIG    1       24.775 -32.706   3.643  0.00  0.00    -0.387 OA
ATOM     29  H   LIG    1       23.845 -32.842   3.380  0.00  0.00    +0.210 HD
ENDBRANCH  27  28
ENDBRANCH  25  27
ENDBRANCH  16  25
TORSDOF 4
ENDMDL
MODEL 2
REMARK VINA RESULT:      -5.7      2.015      7.044
REMARK  Name = *****
REMARK                            x       y       z     vdW  Elec       q    Type
REMARK                         _______ _______ _______ _____ _____    ______ ____
ROOT
ATOM      1  C   LIG    1       24.883 -28.773   5.587  0.00  0.00    +0.012 C 
ATOM      2  C   LIG    1       25.146 -29.612   6.847  0.00  0.00    +0.013 C 
ATOM      3  C   LIG    1       24.729 -31.071   6.778  0.00  0.00    -0.053 C 
ATOM      4  C   LIG    1       25.198 -31.926   7.972  0.00  0.00    +0.018 C 
ATOM      5  C   LIG    1       26.730 -32.105   7.842  0.00  0.00    +0.021 C 
ATOM      6  C   LIG    1       24.629 -33.346   7.877  0.00  0.00    -0.012 C 
ATOM      7  C   LIG    1       23.881 -33.825   6.875  0.00  0.00    +0.047 C 
ATOM      8  C   LIG    1       23.520 -32.971   5.734  0.00  0.00    +0.179 C 
ATOM      9  O   LIG    1       22.854 -33.397   4.802  0.00  0.00    -0.288 OA
ATOM     10  C   LIG    1       24.721 -31.263   9.331  0.00  0.00    +0.072 C 
ATOM     11  C   LIG    1       24.605 -29.719   9.376  0.00  0.00    +0.005 C 
ATOM     12  C   LIG    1       25.595 -28.993  10.299  0.00  0.00    +0.002 C 
ATOM     13  C   LIG    1       25.528 -29.470  11.771  0.00  0.00    +0.013 C 
ATOM     14  C   LIG    1       24.211 -29.049  12.451  0.00  0.00    +0.015 C 
ATOM     15  C   LIG    1       25.668 -31.005  11.820  0.00  0.00    +0.084 C 
ATOM     16  C   LIG    1       26.742 -28.680  12.355  0.00  0.00    +0.132 C 
ATOM     17  C   LIG    1       27.840 -28.888  11.306  0.00  0.00    +0.043 C 
ATOM     18  C   LIG    1       27.093 -29.070   9.967  0.00  0.00    +0.007 C 
ATOM     19  C   LIG    1       25.425 -31.835  10.570  0.00  0.00    +0.138 C 
ATOM     20  O   LIG    1       25.726 -33.033  10.632  0.00  0.00    -0.297 OA
ATOM     21  C   LIG    1       23.980 -31.567   5.773  0.00  0.00    +0.051 C 
ATOM     22  C   LIG    1       24.414 -28.994   8.031  0.00  0.00    +0.012 C 
ENDROOT
BRANCH  16  23
ATOM     23  O   LIG    1       26.412 -27.262  12.305  0.00  0.00    -0.380 OA
ATOM     24  H   LIG    1       26.869 -26.844  13.065  0.00  0.00    +0.211 HD
ENDBRANCH  16  23
BRANCH  16  25
ATOM     25  C   LIG    1       27.247 -28.852  13.803  0.00  0.00    +0.190 C 
ATOM     26  O   LIG    1       26.662 -28.249  14.719  0.00  0.00    -0.292 OA
BRANCH  25  27
ATOM     27  C   LIG    1       28.486 -29.656  14.129  0.00  0.00    +0.233 C 
BRANCH  27  28
ATOM     28  O   LIG    1       28.174 -31.015  14.356  0.00  0.00    -0.387 OA
ATOM     29  H   LIG    1       27.650 -31.048  15.179  0.00  0.00    +0.210 HD
ENDBRANCH  27  28
ENDBRANCH  25  27
ENDBRANCH  16  25
TORSDOF 4
ENDMDL
MODEL 3
REMARK VINA RESULT:      -5.4      1.836      2.532
REMARK  Name = *****
REMARK                            x       y       z     vdW  Elec       q    Type
REMARK                         _______ _______ _______ _____ _____    ______ ____
ROOT
ATOM      1  C   LIG    1       19.567 -31.147  12.126  0.00  0.00    +0.012 C 
ATOM      2  C   LIG    1       21.051 -30.804  11.925  0.00  0.00    +0.013 C 
ATOM      3  C   LIG    1       21.510 -29.467  12.482  0.00  0.00    -0.053 C 
ATOM      4  C   LIG    1       23.036 -29.252  12.451  0.00  0.00    +0.018 C 
ATOM      5  C   LIG    1       23.658 -30.186  13.517  0.00  0.00    +0.021 C 
ATOM      6  C   LIG    1       23.392 -27.836  12.916  0.00  0.00    -0.012 C 
ATOM      7  C   LIG    1       22.527 -26.915  13.356  0.00  0.00    +0.047 C 
ATOM      8  C   LIG    1       21.087 -27.207  13.417  0.00  0.00    +0.179 C 
ATOM      9  O   LIG    1       20.285 -26.384  13.834  0.00  0.00    -0.288 OA
ATOM     10  C   LIG    1       23.582 -29.471  10.978  0.00  0.00    +0.072 C 
ATOM     11  C   LIG    1       22.843 -30.495  10.082  0.00  0.00    +0.005 C 
ATOM     12  C   LIG    1       23.632 -31.758   9.704  0.00  0.00    +0.002 C 
ATOM     13  C   LIG    1       24.973 -31.454   8.991  0.00  0.00    +0.013 C 
ATOM     14  C   LIG    1       24.754 -30.875   7.580  0.00  0.00    +0.015 C 
ATOM     15  C   LIG    1       25.792 -30.460   9.838  0.00  0.00    +0.084 C 
ATOM     16  C   LIG    1       25.562 -32.899   8.922  0.00  0.00    +0.132 C 
ATOM     17  C   LIG    1       25.302 -33.456  10.326  0.00  0.00    +0.043 C 
ATOM     18  C   LIG    1       24.035 -32.728  10.824  0.00  0.00    +0.007 C 
ATOM     19  C   LIG    1       25.108 -29.625  10.909  0.00  0.00    +0.138 C 
ATOM     20  O   LIG    1       25.845 -28.984  11.667  0.00  0.00    -0.297 OA
ATOM     21  C   LIG    1       20.649 -28.532  12.932  0.00  0.00    +0.051 C 
ATOM     22  C   LIG    1       21.375 -30.802  10.437  0.00  0.00    +0.012 C 
ENDROOT
BRANCH  16  23
ATOM     23  O   LIG    1       24.718 -33.678   8.026  0.00  0.00    -0.380 OA
ATOM     24  H   LIG    1       25.269 -33.893   7.244  0.00  0.00    +0.211 HD
ENDBRANCH  16  23
BRANCH  16  25
ATOM     25  C   LIG    1       26.980 -33.212   8.399  0.00  0.00    +0.190 C 
ATOM     26  O   LIG    1       27.800 -33.742   9.167  0.00  0.00    -0.292 OA
BRANCH  25  27
ATOM     27  C   LIG    1       27.429 -32.808   7.012  0.00  0.00    +0.233 C 
BRANCH  27  28
ATOM     28  O   LIG    1       26.676 -33.467   6.014  0.00  0.00    -0.387 OA
ATOM     29  H   LIG    1       27.033 -34.374   5.948  0.00  0.00    +0.210 HD
ENDBRANCH  27  28
ENDBRANCH  25  27
ENDBRANCH  16  25
TORSDOF 4
ENDMDL
MODEL 4
REMARK VINA RESULT:      -5.4      1.724      7.118
REMARK  Name = *****
REMARK                            x       y       z     vdW  Elec       q    Type
REMARK                         _______ _______ _______ _____ _____    ______ ____
ROOT
ATOM      1  C   LIG    1       23.694 -33.825   9.629  0.00  0.00    +0.012 C 
ATOM      2  C   LIG    1       24.297 -32.417   9.503  0.00  0.00    +0.013 C 
ATOM      3  C   LIG    1       24.679 -31.976   8.100  0.00  0.00    -0.053 C 
ATOM      4  C   LIG    1       25.079 -30.492   7.984  0.00  0.00    +0.018 C 
ATOM      5  C   LIG    1       23.793 -29.649   8.163  0.00  0.00    +0.021 C 
ATOM      6  C   LIG    1       25.563 -30.171   6.566  0.00  0.00    -0.012 C 
ATOM      7  C   LIG    1       25.584 -31.024   5.534  0.00  0.00    +0.047 C 
ATOM      8  C   LIG    1       25.130 -32.412   5.699  0.00  0.00    +0.179 C 
ATOM      9  O   LIG    1       25.124 -33.198   4.763  0.00  0.00    -0.288 OA
ATOM     10  C   LIG    1       26.237 -30.163   9.017  0.00  0.00    +0.072 C 
ATOM     11  C   LIG    1       26.259 -30.955  10.348  0.00  0.00    +0.005 C 
ATOM     12  C   LIG    1       25.983 -30.144  11.623  0.00  0.00    +0.002 C 
ATOM     13  C   LIG    1       26.954 -28.953  11.817  0.00  0.00    +0.013 C 
ATOM     14  C   LIG    1       28.385 -29.426  12.138  0.00  0.00    +0.015 C 
ATOM     15  C   LIG    1       26.968 -28.088  10.541  0.00  0.00    +0.084 C 
ATOM     16  C   LIG    1       26.291 -28.279  13.061  0.00  0.00    +0.132 C 
ATOM     17  C   LIG    1       24.798 -28.281  12.713  0.00  0.00    +0.043 C 
ATOM     18  C   LIG    1       24.596 -29.506  11.795  0.00  0.00    +0.007 C 
ATOM     19  C   LIG    1       26.459 -28.658   9.226  0.00  0.00    +0.138 C 
ATOM     20  O   LIG    1       26.332 -27.862   8.289  0.00  0.00    -0.297 OA
ATOM     21  C   LIG    1       24.699 -32.823   7.052  0.00  0.00    +0.051 C 
ATOM     22  C   LIG    1       25.555 -32.325  10.357  0.00  0.00    +0.012 C 
ENDROOT
BRANCH  16  23
ATOM     23  O   LIG    1       26.434 -29.191  14.187  0.00  0.00    -0.380 OA
ATOM     24  H   LIG    1       26.695 -30.058  13.810  0.00  0.00    +0.211 HD
ENDBRANCH  16  23
BRANCH  16  25
ATOM     25  C   LIG    1       26.773 -26.939  13.655  0.00  0.00    +0.190 C 
ATOM     26  O   LIG    1       27.567 -26.957  14.611  0.00  0.00    -0.292 OA
BRANCH  25  27
ATOM     27  C   LIG    1       26.238 -25.610  13.171  0.00  0.00    +0.233 C 
BRANCH  27  28
ATOM     28  O   LIG    1       27.046 -24.537  13.611  0.00  0.00    -0.387 OA
ATOM     29  H   LIG    1       26.469 -23.751  13.656  0.00  0.00    +0.210 HD
ENDBRANCH  27  28
ENDBRANCH  25  27
ENDBRANCH  16  25
TORSDOF 4
ENDMDL
MODEL 5
REMARK VINA RESULT:      -5.3      3.093      5.619
REMARK  Name = *****
REMARK                            x       y       z     vdW  Elec       q    Type
REMARK                         _______ _______ _______ _____ _____    ______ ____
ROOT
ATOM      1  C   LIG    1       18.156 -31.651  14.369  0.00  0.00    +0.012 C 
ATOM      2  C   LIG    1       19.334 -30.719  14.049  0.00  0.00    +0.013 C 
ATOM      3  C   LIG    1       19.066 -29.230  14.186  0.00  0.00    -0.053 C 
ATOM      4  C   LIG    1       20.319 -28.341  14.066  0.00  0.00    +0.018 C 
ATOM      5  C   LIG    1       21.164 -28.554  15.346  0.00  0.00    +0.021 C 
ATOM      6  C   LIG    1       19.935 -26.858  14.094  0.00  0.00    -0.012 C 
ATOM      7  C   LIG    1       18.700 -26.371  14.264  0.00  0.00    +0.047 C 
ATOM      8  C   LIG    1       17.554 -27.277  14.433  0.00  0.00    +0.179 C 
ATOM      9  O   LIG    1       16.422 -26.850  14.609  0.00  0.00    -0.288 OA
ATOM     10  C   LIG    1       21.078 -28.659  12.710  0.00  0.00    +0.072 C 
ATOM     11  C   LIG    1       20.998 -30.105  12.163  0.00  0.00    +0.005 C 
ATOM     12  C   LIG    1       22.314 -30.899  12.153  0.00  0.00    +0.002 C 
ATOM     13  C   LIG    1       23.446 -30.202  11.358  0.00  0.00    +0.013 C 
ATOM     14  C   LIG    1       23.160 -30.191   9.844  0.00  0.00    +0.015 C 
ATOM     15  C   LIG    1       23.615 -28.756  11.864  0.00  0.00    +0.084 C 
ATOM     16  C   LIG    1       24.630 -31.162  11.700  0.00  0.00    +0.132 C 
ATOM     17  C   LIG    1       24.484 -31.382  13.210  0.00  0.00    +0.043 C 
ATOM     18  C   LIG    1       22.975 -31.231  13.499  0.00  0.00    +0.007 C 
ATOM     19  C   LIG    1       22.504 -28.090  12.661  0.00  0.00    +0.138 C 
ATOM     20  O   LIG    1       22.772 -27.004  13.186  0.00  0.00    -0.297 OA
ATOM     21  C   LIG    1       17.827 -28.728  14.362  0.00  0.00    +0.051 C 
ATOM     22  C   LIG    1       19.800 -30.959  12.619  0.00  0.00    +0.012 C 
ENDROOT
BRANCH  16  23
ATOM     23  O   LIG    1       24.347 -32.451  11.085  0.00  0.00    -0.380 OA
ATOM     24  H   LIG    1       24.875 -32.486  10.259  0.00  0.00    +0.211 HD
ENDBRANCH  16  23
BRANCH  16  25
ATOM     25  C   LIG    1       26.087 -30.898  11.264  0.00  0.00    +0.190 C 
ATOM     26  O   LIG    1       26.897 -30.469  12.103  0.00  0.00    -0.292 OA
BRANCH  25  27
ATOM     27  C   LIG    1       26.533 -31.056   9.827  0.00  0.00    +0.233 C 
BRANCH  27  28
ATOM     28  O   LIG    1       27.270 -29.933   9.389  0.00  0.00    -0.387 OA
ATOM     29  H   LIG    1       27.514 -29.429  10.189  0.00  0.00    +0.210 HD
ENDBRANCH  27  28
ENDBRANCH  25  27
ENDBRANCH  16  25
TORSDOF 4
ENDMDL
MODEL 6
REMARK VINA RESULT:      -5.2      2.751      6.724
REMARK  Name = *****
REMARK                            x       y       z     vdW  Elec       q    Type
REMARK                         _______ _______ _______ _____ _____    ______ ____
ROOT
ATOM      1  C   LIG    1       25.348 -30.130   5.390  0.00  0.00    +0.012 C 
ATOM      2  C   LIG    1       25.290 -30.767   6.787  0.00  0.00    +0.013 C 
ATOM      3  C   LIG    1       26.376 -31.781   7.105  0.00  0.00    -0.053 C 
ATOM      4  C   LIG    1       26.413 -32.236   8.577  0.00  0.00    +0.018 C 
ATOM      5  C   LIG    1       26.937 -31.047   9.419  0.00  0.00    +0.021 C 
ATOM      6  C   LIG    1       27.453 -33.343   8.776  0.00  0.00    -0.012 C 
ATOM      7  C   LIG    1       28.276 -33.823   7.835  0.00  0.00    +0.047 C 
ATOM      8  C   LIG    1       28.230 -33.300   6.461  0.00  0.00    +0.179 C 
ATOM      9  O   LIG    1       28.987 -33.712   5.594  0.00  0.00    -0.288 OA
ATOM     10  C   LIG    1       24.986 -32.777   9.011  0.00  0.00    +0.072 C 
ATOM     11  C   LIG    1       23.743 -32.142   8.342  0.00  0.00    +0.005 C 
ATOM     12  C   LIG    1       22.824 -31.321   9.260  0.00  0.00    +0.002 C 
ATOM     13  C   LIG    1       22.294 -32.123  10.475  0.00  0.00    +0.013 C 
ATOM     14  C   LIG    1       21.295 -33.215  10.049  0.00  0.00    +0.015 C 
ATOM     15  C   LIG    1       23.479 -32.767  11.222  0.00  0.00    +0.084 C 
ATOM     16  C   LIG    1       21.575 -30.973  11.250  0.00  0.00    +0.132 C 
ATOM     17  C   LIG    1       22.588 -29.823  11.200  0.00  0.00    +0.043 C 
ATOM     18  C   LIG    1       23.385 -30.040   9.895  0.00  0.00    +0.007 C 
ATOM     19  C   LIG    1       24.824 -32.923  10.531  0.00  0.00    +0.138 C 
ATOM     20  O   LIG    1       25.773 -33.280  11.239  0.00  0.00    -0.297 OA
ATOM     21  C   LIG    1       27.214 -32.267   6.168  0.00  0.00    +0.051 C 
ATOM     22  C   LIG    1       23.953 -31.472   6.970  0.00  0.00    +0.012 C 
ENDROOT
BRANCH  16  23
ATOM     23  O   LIG    1       20.444 -30.536  10.443  0.00  0.00    -0.380 OA
ATOM     24  H   LIG    1       19.711 -30.354  11.070  0.00  0.00    +0.211 HD
ENDBRANCH  16  23
BRANCH  16  25
ATOM     25  C   LIG    1       20.939 -31.159  12.643  0.00  0.00    +0.190 C 
ATOM     26  O   LIG    1       21.680 -31.229  13.638  0.00  0.00    -0.292 OA
BRANCH  25  27
ATOM     27  C   LIG    1       19.449 -31.353  12.823  0.00  0.00    +0.233 C 
BRANCH  27  28
ATOM     28  O   LIG    1       18.745 -30.143  12.630  0.00  0.00    -0.387 OA
ATOM     29  H   LIG    1       17.873 -30.382  12.262  0.00  0.00    +0.210 HD
ENDBRANCH  27  28
ENDBRANCH  25  27
ENDBRANCH  16  25
TORSDOF 4
ENDMDL
MODEL 7
REMARK VINA RESULT:      -5.2      1.384      1.732
REMARK  Name = *****
REMARK                            x       y       z     vdW  Elec       q    Type
REMARK                         _______ _______ _______ _____ _____    ______ ____
ROOT
ATOM      1  C   LIG    1       22.314 -29.731  13.803  0.00  0.00    +0.012 C 
ATOM      2  C   LIG    1       23.524 -29.721  12.856  0.00  0.00    +0.013 C 
ATOM      3  C   LIG    1       24.439 -28.512  12.953  0.00  0.00    -0.053 C 
ATOM      4  C   LIG    1       25.747 -28.635  12.147  0.00  0.00    +0.018 C 
ATOM      5  C   LIG    1       26.640 -29.674  12.866  0.00  0.00    +0.021 C 
ATOM      6  C   LIG    1       26.544 -27.327  12.207  0.00  0.00    -0.012 C 
ATOM      7  C   LIG    1       26.209 -26.236  12.907  0.00  0.00    +0.047 C 
ATOM      8  C   LIG    1       24.975 -26.208  13.705  0.00  0.00    +0.179 C 
ATOM      9  O   LIG    1       24.663 -25.228  14.366  0.00  0.00    -0.288 OA
ATOM     10  C   LIG    1       25.418 -28.977  10.634  0.00  0.00    +0.072 C 
ATOM     11  C   LIG    1       24.152 -29.821  10.347  0.00  0.00    +0.005 C 
ATOM     12  C   LIG    1       24.392 -31.228   9.777  0.00  0.00    +0.002 C 
ATOM     13  C   LIG    1       25.214 -31.228   8.464  0.00  0.00    +0.013 C 
ATOM     14  C   LIG    1       24.420 -30.625   7.290  0.00  0.00    +0.015 C 
ATOM     15  C   LIG    1       26.516 -30.430   8.674  0.00  0.00    +0.084 C 
ATOM     16  C   LIG    1       25.409 -32.767   8.282  0.00  0.00    +0.132 C 
ATOM     17  C   LIG    1       25.800 -33.245   9.685  0.00  0.00    +0.043 C 
ATOM     18  C   LIG    1       25.121 -32.256  10.655  0.00  0.00    +0.007 C 
ATOM     19  C   LIG    1       26.639 -29.459   9.838  0.00  0.00    +0.138 C 
ATOM     20  O   LIG    1       27.763 -28.989  10.052  0.00  0.00    -0.297 OA
ATOM     21  C   LIG    1       24.116 -27.409  13.659  0.00  0.00    +0.051 C 
ATOM     22  C   LIG    1       23.041 -29.800  11.414  0.00  0.00    +0.012 C 
ENDROOT
BRANCH  16  23
ATOM     23  O   LIG    1       24.100 -33.350   8.018  0.00  0.00    -0.380 OA
ATOM     24  H   LIG    1       24.023 -33.429   7.044  0.00  0.00    +0.211 HD
ENDBRANCH  16  23
BRANCH  16  25
ATOM     25  C   LIG    1       26.278 -33.384   7.166  0.00  0.00    +0.190 C 
ATOM     26  O   LIG    1       25.725 -33.811   6.139  0.00  0.00    -0.292 OA
BRANCH  25  27
ATOM     27  C   LIG    1       27.771 -33.571   7.326  0.00  0.00    +0.233 C 
BRANCH  27  28
ATOM     28  O   LIG    1       28.415 -33.672   6.072  0.00  0.00    -0.387 OA
ATOM     29  H   LIG    1       28.301 -34.594   5.772  0.00  0.00    +0.210 HD
ENDBRANCH  27  28
ENDBRANCH  25  27
ENDBRANCH  16  25
TORSDOF 4
ENDMDL
MODEL 8
REMARK VINA RESULT:      -5.2      4.092      6.706
REMARK  Name = *****
REMARK                            x       y       z     vdW  Elec       q    Type
REMARK                         _______ _______ _______ _____ _____    ______ ____
ROOT
ATOM      1  C   LIG    1       20.951 -26.709  13.127  0.00  0.00    +0.012 C 
ATOM      2  C   LIG    1       21.915 -27.882  12.893  0.00  0.00    +0.013 C 
ATOM      3  C   LIG    1       21.278 -29.256  12.766  0.00  0.00    -0.053 C 
ATOM      4  C   LIG    1       22.246 -30.370  12.323  0.00  0.00    +0.018 C 
ATOM      5  C   LIG    1       22.590 -30.123  10.834  0.00  0.00    +0.021 C 
ATOM      6  C   LIG    1       21.547 -31.734  12.342  0.00  0.00    -0.012 C 
ATOM      7  C   LIG    1       20.259 -31.949  12.634  0.00  0.00    +0.047 C 
ATOM      8  C   LIG    1       19.373 -30.832  12.990  0.00  0.00    +0.179 C 
ATOM      9  O   LIG    1       18.190 -31.007  13.240  0.00  0.00    -0.288 OA
ATOM     10  C   LIG    1       23.500 -30.413  13.294  0.00  0.00    +0.072 C 
ATOM     11  C   LIG    1       23.962 -29.080  13.930  0.00  0.00    +0.005 C 
ATOM     12  C   LIG    1       25.336 -28.556  13.482  0.00  0.00    +0.002 C 
ATOM     13  C   LIG    1       26.486 -29.566  13.720  0.00  0.00    +0.013 C 
ATOM     14  C   LIG    1       26.779 -29.758  15.221  0.00  0.00    +0.015 C 
ATOM     15  C   LIG    1       26.119 -30.922  13.086  0.00  0.00    +0.084 C 
ATOM     16  C   LIG    1       27.650 -28.803  13.012  0.00  0.00    +0.132 C 
ATOM     17  C   LIG    1       27.018 -28.328  11.699  0.00  0.00    +0.043 C 
ATOM     18  C   LIG    1       25.517 -28.149  12.013  0.00  0.00    +0.007 C 
ATOM     19  C   LIG    1       24.672 -31.238  12.742  0.00  0.00    +0.138 C 
ATOM     20  O   LIG    1       24.470 -32.261  12.077  0.00  0.00    -0.297 OA
ATOM     21  C   LIG    1       19.981 -29.486  13.052  0.00  0.00    +0.051 C 
ATOM     22  C   LIG    1       22.913 -27.958  14.041  0.00  0.00    +0.012 C 
ENDROOT
BRANCH  16  23
ATOM     23  O   LIG    1       27.918 -27.594  13.780  0.00  0.00    -0.380 OA
ATOM     24  H   LIG    1       28.470 -27.868  14.543  0.00  0.00    +0.211 HD
ENDBRANCH  16  23
BRANCH  16  25
ATOM     25  C   LIG    1       29.062 -29.397  12.825  0.00  0.00    +0.190 C 
ATOM     26  O   LIG    1       29.409 -29.777  11.694  0.00  0.00    -0.292 OA
BRANCH  25  27
ATOM     27  C   LIG    1       29.999 -29.618  13.991  0.00  0.00    +0.233 C 
BRANCH  27  28
ATOM     28  O   LIG    1       30.667 -28.425  14.349  0.00  0.00    -0.387 OA
ATOM     29  H   LIG    1       29.993 -27.719  14.360  0.00  0.00    +0.210 HD
ENDBRANCH  27  28
ENDBRANCH  25  27
ENDBRANCH  16  25
TORSDOF 4
ENDMDL
MODEL 9
REMARK VINA RESULT:      -5.0      4.321      6.142
REMARK  Name = *****
REMARK                            x       y       z     vdW  Elec       q    Type
REMARK                         _______ _______ _______ _____ _____    ______ ____
ROOT
ATOM      1  C   LIG    1       20.416 -30.809  12.158  0.00  0.00    +0.012 C 
ATOM      2  C   LIG    1       21.553 -29.975  12.766  0.00  0.00    +0.013 C 
ATOM      3  C   LIG    1       21.135 -28.728  13.528  0.00  0.00    -0.053 C 
ATOM      4  C   LIG    1       22.277 -28.038  14.299  0.00  0.00    +0.018 C 
ATOM      5  C   LIG    1       22.642 -28.945  15.499  0.00  0.00    +0.021 C 
ATOM      6  C   LIG    1       21.790 -26.730  14.932  0.00  0.00    -0.012 C 
ATOM      7  C   LIG    1       20.537 -26.261  14.893  0.00  0.00    +0.047 C 
ATOM      8  C   LIG    1       19.480 -27.001  14.190  0.00  0.00    +0.179 C 
ATOM      9  O   LIG    1       18.327 -26.597  14.160  0.00  0.00    -0.288 OA
ATOM     10  C   LIG    1       23.481 -27.725  13.315  0.00  0.00    +0.072 C 
ATOM     11  C   LIG    1       23.711 -28.694  12.130  0.00  0.00    +0.005 C 
ATOM     12  C   LIG    1       25.008 -29.517  12.170  0.00  0.00    +0.002 C 
ATOM     13  C   LIG    1       26.286 -28.646  12.265  0.00  0.00    +0.013 C 
ATOM     14  C   LIG    1       26.540 -27.857  10.967  0.00  0.00    +0.015 C 
ATOM     15  C   LIG    1       26.153 -27.667  13.449  0.00  0.00    +0.084 C 
ATOM     16  C   LIG    1       27.352 -29.771  12.460  0.00  0.00    +0.132 C 
ATOM     17  C   LIG    1       26.711 -30.691  13.506  0.00  0.00    +0.043 C 
ATOM     18  C   LIG    1       25.189 -30.540  13.302  0.00  0.00    +0.007 C 
ATOM     19  C   LIG    1       24.785 -27.365  14.041  0.00  0.00    +0.138 C 
ATOM     20  O   LIG    1       24.767 -26.716  15.093  0.00  0.00    -0.297 OA
ATOM     21  C   LIG    1       19.876 -28.248  13.501  0.00  0.00    +0.051 C 
ATOM     22  C   LIG    1       22.501 -29.526  11.663  0.00  0.00    +0.012 C 
ENDROOT
BRANCH  16  23
ATOM     23  O   LIG    1       27.403 -30.549  11.230  0.00  0.00    -0.380 OA
ATOM     24  H   LIG    1       26.545 -31.019  11.163  0.00  0.00    +0.211 HD
ENDBRANCH  16  23
BRANCH  16  25
ATOM     25  C   LIG    1       28.843 -29.486  12.735  0.00  0.00    +0.190 C 
ATOM     26  O   LIG    1       29.639 -29.478  11.782  0.00  0.00    -0.292 OA
BRANCH  25  27
ATOM     27  C   LIG    1       29.378 -29.310  14.139  0.00  0.00    +0.233 C 
BRANCH  27  28
ATOM     28  O   LIG    1       30.664 -28.724  14.131  0.00  0.00    -0.387 OA
ATOM     29  H   LIG    1       31.307 -29.458  14.105  0.00  0.00    +0.210 HD
ENDBRANCH  27  28
ENDBRANCH  25  27
ENDBRANCH  16  25
TORSDOF 4
ENDMDL
