MODEL 1
REMARK VINA RESULT:      -8.3      0.000      0.000
REMARK  Name = *****
REMARK                            x       y       z     vdW  Elec       q    Type
REMARK                         _______ _______ _______ _____ _____    ______ ____
ROOT
ATOM      1  N   LIG    1       27.382 -20.987   6.087  0.00  0.00    -0.284 N 
ATOM      2  H   LIG    1       28.029 -21.586   5.598  0.00  0.00    +0.155 HD
ATOM      3  C   LIG    1       27.810 -20.588   7.363  0.00  0.00    +0.231 C 
ATOM      4  O   LIG    1       27.070 -20.176   8.236  0.00  0.00    -0.274 OA
ENDROOT
BRANCH   1  11
ATOM      5  C   LIG    1       21.698 -21.446   5.195  0.00  0.00    +0.045 C 
ATOM      6  C   LIG    1       23.186 -21.296   5.366  0.00  0.00    -0.036 A 
ATOM      7  C   LIG    1       23.935 -20.257   4.801  0.00  0.00    +0.025 A 
ATOM      8 BR   LIG    1       23.015 -18.937   3.755  0.00  0.00    -0.050 Br
ATOM      9  C   LIG    1       25.343 -20.181   4.985  0.00  0.00    -0.015 A 
ATOM     10  C   LIG    1       26.100 -19.080   4.269  0.00  0.00    +0.046 C 
ATOM     11  C   LIG    1       26.012 -21.191   5.742  0.00  0.00    +0.040 A 
ATOM     12  C   LIG    1       25.262 -22.266   6.269  0.00  0.00    -0.029 A 
ATOM     13  C   LIG    1       25.798 -23.391   7.115  0.00  0.00    +0.045 C 
ATOM     14  C   LIG    1       23.864 -22.278   6.089  0.00  0.00    +0.009 A 
ENDBRANCH   1  11
BRANCH   3  15
ATOM     15  C   LIG    1       29.363 -20.775   7.561  0.00  0.00    +0.181 C 
BRANCH  15  16
ATOM     16  N   LIG    1       30.031 -19.813   8.531  0.00  0.00    -0.274 NA
BRANCH  16  17
ATOM     17  C   LIG    1       31.348 -20.376   8.966  0.00  0.00    +0.206 C 
BRANCH  17  18
ATOM     18  C   LIG    1       31.384 -21.867   9.305  0.00  0.00    +0.319 C 
ATOM     19  O   LIG    1       30.719 -22.342  10.223  0.00  0.00    -0.250 OA
BRANCH  18  20
ATOM     20  O   LIG    1       32.179 -22.649   8.557  0.00  0.00    -0.480 OA
ATOM     21  H   LIG    1       32.281 -22.278   7.653  0.00  0.00    +0.295 HD
ENDBRANCH  18  20
ENDBRANCH  17  18
ENDBRANCH  16  17
BRANCH  16  22
ATOM     22  C   LIG    1       30.135 -18.468   7.903  0.00  0.00    +0.206 C 
BRANCH  22  23
ATOM     23  C   LIG    1       30.788 -17.463   8.812  0.00  0.00    +0.319 C 
ATOM     24  O   LIG    1       30.226 -16.862   9.726  0.00  0.00    -0.250 OA
BRANCH  23  25
ATOM     25  O   LIG    1       32.059 -17.096   8.512  0.00  0.00    -0.480 OA
ATOM     26  H   LIG    1       32.172 -17.304   7.561  0.00  0.00    +0.295 HD
ENDBRANCH  23  25
ENDBRANCH  22  23
ENDBRANCH  16  22
ENDBRANCH  15  16
ENDBRANCH   3  15
TORSDOF 9
ENDMDL
MODEL 2
REMARK VINA RESULT:      -8.2      1.500      3.342
REMARK  Name = *****
REMARK                            x       y       z     vdW  Elec       q    Type
REMARK                         _______ _______ _______ _____ _____    ______ ____
ROOT
ATOM      1  N   LIG    1       27.229 -20.346   5.255  0.00  0.00    -0.284 N 
ATOM      2  H   LIG    1       27.712 -20.952   4.610  0.00  0.00    +0.155 HD
ATOM      3  C   LIG    1       27.967 -20.015   6.403  0.00  0.00    +0.231 C 
ATOM      4  O   LIG    1       27.476 -19.606   7.438  0.00  0.00    -0.274 OA
ENDROOT
BRANCH   1  11
ATOM      5  C   LIG    1       21.562 -21.305   4.728  0.00  0.00    +0.045 C 
ATOM      6  C   LIG    1       23.037 -21.079   4.930  0.00  0.00    -0.036 A 
ATOM      7  C   LIG    1       23.834 -21.850   5.784  0.00  0.00    +0.025 A 
ATOM      8 BR   LIG    1       23.007 -23.289   6.748  0.00  0.00    -0.050 Br
ATOM      9  C   LIG    1       25.220 -21.574   5.945  0.00  0.00    -0.015 A 
ATOM     10  C   LIG    1       26.000 -22.392   6.954  0.00  0.00    +0.046 C 
ATOM     11  C   LIG    1       25.808 -20.479   5.241  0.00  0.00    +0.040 A 
ATOM     12  C   LIG    1       24.992 -19.671   4.419  0.00  0.00    -0.029 A 
ATOM     13  C   LIG    1       25.452 -18.505   3.582  0.00  0.00    +0.045 C 
ATOM     14  C   LIG    1       23.631 -20.006   4.265  0.00  0.00    +0.009 A 
ENDBRANCH   1  11
BRANCH   3  15
ATOM     15  C   LIG    1       29.511 -20.273   6.221  0.00  0.00    +0.181 C 
BRANCH  15  16
ATOM     16  N   LIG    1       30.338 -20.296   7.496  0.00  0.00    -0.274 NA
BRANCH  16  17
ATOM     17  C   LIG    1       30.277 -18.953   8.154  0.00  0.00    +0.206 C 
BRANCH  17  18
ATOM     18  C   LIG    1       31.573 -18.428   8.773  0.00  0.00    +0.319 C 
ATOM     19  O   LIG    1       31.958 -18.790   9.882  0.00  0.00    -0.250 OA
BRANCH  18  20
ATOM     20  O   LIG    1       32.285 -17.545   8.053  0.00  0.00    -0.480 OA
ATOM     21  H   LIG    1       33.248 -17.700   8.167  0.00  0.00    +0.295 HD
ENDBRANCH  18  20
ENDBRANCH  17  18
ENDBRANCH  16  17
BRANCH  16  22
ATOM     22  C   LIG    1       29.873 -21.410   8.369  0.00  0.00    +0.206 C 
BRANCH  22  23
ATOM     23  C   LIG    1       30.981 -21.968   9.218  0.00  0.00    +0.319 C 
ATOM     24  O   LIG    1       30.950 -22.080  10.442  0.00  0.00    -0.250 OA
BRANCH  23  25
ATOM     25  O   LIG    1       32.155 -22.244   8.595  0.00  0.00    -0.480 OA
ATOM     26  H   LIG    1       32.483 -23.068   9.012  0.00  0.00    +0.295 HD
ENDBRANCH  23  25
ENDBRANCH  22  23
ENDBRANCH  16  22
ENDBRANCH  15  16
ENDBRANCH   3  15
TORSDOF 9
ENDMDL
MODEL 3
REMARK VINA RESULT:      -7.9      0.552      2.739
REMARK  Name = *****
REMARK                            x       y       z     vdW  Elec       q    Type
REMARK                         _______ _______ _______ _____ _____    ______ ____
ROOT
ATOM      1  N   LIG    1       27.306 -21.388   6.476  0.00  0.00    -0.284 N 
ATOM      2  H   LIG    1       27.902 -22.129   6.142  0.00  0.00    +0.155 HD
ATOM      3  C   LIG    1       27.654 -20.889   7.742  0.00  0.00    +0.231 C 
ATOM      4  O   LIG    1       26.898 -20.268   8.465  0.00  0.00    -0.274 OA
ENDROOT
BRANCH   1  11
ATOM      5  C   LIG    1       21.728 -21.235   5.004  0.00  0.00    +0.045 C 
ATOM      6  C   LIG    1       23.198 -21.245   5.328  0.00  0.00    -0.036 A 
ATOM      7  C   LIG    1       24.106 -20.289   4.858  0.00  0.00    +0.025 A 
ATOM      8 BR   LIG    1       23.442 -18.873   3.745  0.00  0.00    -0.050 Br
ATOM      9  C   LIG    1       25.488 -20.363   5.186  0.00  0.00    -0.015 A 
ATOM     10  C   LIG    1       26.426 -19.347   4.569  0.00  0.00    +0.046 C 
ATOM     11  C   LIG    1       25.965 -21.443   5.991  0.00  0.00    +0.040 A 
ATOM     12  C   LIG    1       25.056 -22.435   6.422  0.00  0.00    -0.029 A 
ATOM     13  C   LIG    1       25.381 -23.615   7.301  0.00  0.00    +0.045 C 
ATOM     14  C   LIG    1       23.690 -22.297   6.100  0.00  0.00    +0.009 A 
ENDBRANCH   1  11
BRANCH   3  15
ATOM     15  C   LIG    1       29.130 -21.262   8.150  0.00  0.00    +0.181 C 
BRANCH  15  16
ATOM     16  N   LIG    1       30.212 -20.297   7.691  0.00  0.00    -0.274 NA
BRANCH  16  17
ATOM     17  C   LIG    1       29.699 -18.894   7.780  0.00  0.00    +0.206 C 
BRANCH  17  18
ATOM     18  C   LIG    1       30.348 -17.987   8.827  0.00  0.00    +0.319 C 
ATOM     19  O   LIG    1       31.292 -17.250   8.554  0.00  0.00    -0.250 OA
BRANCH  18  20
ATOM     20  O   LIG    1       29.844 -18.025  10.071  0.00  0.00    -0.480 OA
ATOM     21  H   LIG    1       28.961 -18.457  10.076  0.00  0.00    +0.295 HD
ENDBRANCH  18  20
ENDBRANCH  17  18
ENDBRANCH  16  17
BRANCH  16  22
ATOM     22  C   LIG    1       31.453 -20.531   8.478  0.00  0.00    +0.206 C 
BRANCH  22  23
ATOM     23  C   LIG    1       31.459 -21.879   9.146  0.00  0.00    +0.319 C 
ATOM     24  O   LIG    1       30.977 -22.127  10.249  0.00  0.00    -0.250 OA
BRANCH  23  25
ATOM     25  O   LIG    1       32.171 -22.863   8.540  0.00  0.00    -0.480 OA
ATOM     26  H   LIG    1       32.999 -22.942   9.058  0.00  0.00    +0.295 HD
ENDBRANCH  23  25
ENDBRANCH  22  23
ENDBRANCH  16  22
ENDBRANCH  15  16
ENDBRANCH   3  15
TORSDOF 9
ENDMDL
MODEL 4
REMARK VINA RESULT:      -7.9      1.206      2.277
REMARK  Name = *****
REMARK                            x       y       z     vdW  Elec       q    Type
REMARK                         _______ _______ _______ _____ _____    ______ ____
ROOT
ATOM      1  N   LIG    1       27.130 -20.756   6.026  0.00  0.00    -0.284 N 
ATOM      2  H   LIG    1       27.667 -21.411   5.480  0.00  0.00    +0.155 HD
ATOM      3  C   LIG    1       27.700 -20.431   7.268  0.00  0.00    +0.231 C 
ATOM      4  O   LIG    1       27.081 -19.958   8.203  0.00  0.00    -0.274 OA
ENDROOT
BRANCH   1  11
ATOM      5  C   LIG    1       21.566 -21.376   4.623  0.00  0.00    +0.045 C 
ATOM      6  C   LIG    1       23.002 -21.238   5.052  0.00  0.00    -0.036 A 
ATOM      7  C   LIG    1       23.610 -22.052   6.015  0.00  0.00    +0.025 A 
ATOM      8 BR   LIG    1       22.560 -23.435   6.831  0.00  0.00    -0.050 Br
ATOM      9  C   LIG    1       24.969 -21.859   6.390  0.00  0.00    -0.015 A 
ATOM     10  C   LIG    1       25.534 -22.718   7.503  0.00  0.00    +0.046 C 
ATOM     11  C   LIG    1       25.723 -20.804   5.792  0.00  0.00    +0.040 A 
ATOM     12  C   LIG    1       25.093 -19.951   4.858  0.00  0.00    -0.029 A 
ATOM     13  C   LIG    1       25.746 -18.817   4.110  0.00  0.00    +0.045 C 
ATOM     14  C   LIG    1       23.755 -20.205   4.493  0.00  0.00    +0.009 A 
ENDBRANCH   1  11
BRANCH   3  15
ATOM     15  C   LIG    1       29.234 -20.787   7.337  0.00  0.00    +0.181 C 
BRANCH  15  16
ATOM     16  N   LIG    1       30.068 -19.956   8.298  0.00  0.00    -0.274 NA
BRANCH  16  17
ATOM     17  C   LIG    1       31.393 -20.618   8.511  0.00  0.00    +0.206 C 
BRANCH  17  18
ATOM     18  C   LIG    1       31.381 -21.986   9.193  0.00  0.00    +0.319 C 
ATOM     19  O   LIG    1       30.738 -22.196  10.218  0.00  0.00    -0.250 OA
BRANCH  18  20
ATOM     20  O   LIG    1       32.108 -22.963   8.626  0.00  0.00    -0.480 OA
ATOM     21  H   LIG    1       32.440 -23.589   9.306  0.00  0.00    +0.295 HD
ENDBRANCH  18  20
ENDBRANCH  17  18
ENDBRANCH  16  17
BRANCH  16  22
ATOM     22  C   LIG    1       30.172 -18.562   7.787  0.00  0.00    +0.206 C 
BRANCH  22  23
ATOM     23  C   LIG    1       30.837 -17.641   8.773  0.00  0.00    +0.319 C 
ATOM     24  O   LIG    1       31.946 -17.130   8.631  0.00  0.00    -0.250 OA
BRANCH  23  25
ATOM     25  O   LIG    1       30.218 -17.470   9.969  0.00  0.00    -0.480 OA
ATOM     26  H   LIG    1       30.873 -17.748  10.642  0.00  0.00    +0.295 HD
ENDBRANCH  23  25
ENDBRANCH  22  23
ENDBRANCH  16  22
ENDBRANCH  15  16
ENDBRANCH   3  15
TORSDOF 9
ENDMDL
MODEL 5
REMARK VINA RESULT:      -7.3      1.430      1.612
REMARK  Name = *****
REMARK                            x       y       z     vdW  Elec       q    Type
REMARK                         _______ _______ _______ _____ _____    ______ ____
ROOT
ATOM      1  N   LIG    1       26.355 -21.526   6.417  0.00  0.00    -0.284 N 
ATOM      2  H   LIG    1       26.912 -22.313   6.120  0.00  0.00    +0.155 HD
ATOM      3  C   LIG    1       26.651 -21.061   7.709  0.00  0.00    +0.231 C 
ATOM      4  O   LIG    1       25.898 -20.382   8.381  0.00  0.00    -0.274 OA
ENDROOT
BRANCH   1  11
ATOM      5  C   LIG    1       20.920 -20.940   4.568  0.00  0.00    +0.045 C 
ATOM      6  C   LIG    1       22.359 -21.062   4.992  0.00  0.00    -0.036 A 
ATOM      7  C   LIG    1       23.359 -20.153   4.628  0.00  0.00    +0.025 A 
ATOM      8 BR   LIG    1       22.871 -18.654   3.533  0.00  0.00    -0.050 Br
ATOM      9  C   LIG    1       24.706 -20.333   5.048  0.00  0.00    -0.015 A 
ATOM     10  C   LIG    1       25.750 -19.360   4.541  0.00  0.00    +0.046 C 
ATOM     11  C   LIG    1       25.052 -21.472   5.838  0.00  0.00    +0.040 A 
ATOM     12  C   LIG    1       24.052 -22.416   6.162  0.00  0.00    -0.029 A 
ATOM     13  C   LIG    1       24.235 -23.647   7.010  0.00  0.00    +0.045 C 
ATOM     14  C   LIG    1       22.725 -22.174   5.752  0.00  0.00    +0.009 A 
ENDBRANCH   1  11
BRANCH   3  15
ATOM     15  C   LIG    1       28.060 -21.552   8.217  0.00  0.00    +0.181 C 
BRANCH  15  16
ATOM     16  N   LIG    1       29.200 -20.555   8.086  0.00  0.00    -0.274 NA
BRANCH  16  17
ATOM     17  C   LIG    1       30.500 -21.291   7.994  0.00  0.00    +0.206 C 
BRANCH  17  18
ATOM     18  C   LIG    1       31.465 -21.138   9.169  0.00  0.00    +0.319 C 
ATOM     19  O   LIG    1       31.672 -22.051   9.965  0.00  0.00    -0.250 OA
BRANCH  18  20
ATOM     20  O   LIG    1       32.088 -19.956   9.304  0.00  0.00    -0.480 OA
ATOM     21  H   LIG    1       31.450 -19.214   9.208  0.00  0.00    +0.295 HD
ENDBRANCH  18  20
ENDBRANCH  17  18
ENDBRANCH  16  17
BRANCH  16  22
ATOM     22  C   LIG    1       28.941 -19.655   6.929  0.00  0.00    +0.206 C 
BRANCH  22  23
ATOM     23  C   LIG    1       30.022 -18.624   6.755  0.00  0.00    +0.319 C 
ATOM     24  O   LIG    1       30.611 -18.051   7.669  0.00  0.00    -0.250 OA
BRANCH  23  25
ATOM     25  O   LIG    1       30.269 -18.199   5.490  0.00  0.00    -0.480 OA
ATOM     26  H   LIG    1       29.642 -18.693   4.922  0.00  0.00    +0.295 HD
ENDBRANCH  23  25
ENDBRANCH  22  23
ENDBRANCH  16  22
ENDBRANCH  15  16
ENDBRANCH   3  15
TORSDOF 9
ENDMDL
MODEL 6
REMARK VINA RESULT:      -6.9      5.889      8.494
REMARK  Name = *****
REMARK                            x       y       z     vdW  Elec       q    Type
REMARK                         _______ _______ _______ _____ _____    ______ ____
ROOT
ATOM      1  N   LIG    1       25.975 -27.234   6.791  0.00  0.00    -0.284 N 
ATOM      2  H   LIG    1       26.917 -27.061   7.103  0.00  0.00    +0.155 HD
ATOM      3  C   LIG    1       25.213 -26.075   6.575  0.00  0.00    +0.231 C 
ATOM      4  O   LIG    1       23.997 -26.050   6.541  0.00  0.00    -0.274 OA
ENDROOT
BRANCH   1  11
ATOM      5  C   LIG    1       24.269 -32.509   8.396  0.00  0.00    +0.045 C 
ATOM      6  C   LIG    1       24.711 -31.114   8.043  0.00  0.00    -0.036 A 
ATOM      7  C   LIG    1       25.441 -30.287   8.904  0.00  0.00    +0.025 A 
ATOM      8 BR   LIG    1       25.920 -30.969  10.633  0.00  0.00    -0.050 Br
ATOM      9  C   LIG    1       25.814 -28.969   8.518  0.00  0.00    -0.015 A 
ATOM     10  C   LIG    1       26.525 -28.099   9.535  0.00  0.00    +0.046 C 
ATOM     11  C   LIG    1       25.420 -28.471   7.239  0.00  0.00    +0.040 A 
ATOM     12  C   LIG    1       24.640 -29.289   6.391  0.00  0.00    -0.029 A 
ATOM     13  C   LIG    1       24.171 -28.936   5.003  0.00  0.00    +0.045 C 
ATOM     14  C   LIG    1       24.325 -30.599   6.805  0.00  0.00    +0.009 A 
ENDBRANCH   1  11
BRANCH   3  15
ATOM     15  C   LIG    1       26.108 -24.786   6.423  0.00  0.00    +0.181 C 
BRANCH  15  16
ATOM     16  N   LIG    1       25.548 -23.510   7.030  0.00  0.00    -0.274 NA
BRANCH  16  17
ATOM     17  C   LIG    1       26.665 -22.550   7.293  0.00  0.00    +0.206 C 
BRANCH  17  18
ATOM     18  C   LIG    1       26.427 -21.491   8.370  0.00  0.00    +0.319 C 
ATOM     19  O   LIG    1       27.053 -20.434   8.394  0.00  0.00    -0.250 OA
BRANCH  18  20
ATOM     20  O   LIG    1       25.499 -21.760   9.303  0.00  0.00    -0.480 OA
ATOM     21  H   LIG    1       25.309 -22.723   9.336  0.00  0.00    +0.295 HD
ENDBRANCH  18  20
ENDBRANCH  17  18
ENDBRANCH  16  17
BRANCH  16  22
ATOM     22  C   LIG    1       24.486 -22.963   6.142  0.00  0.00    +0.206 C 
BRANCH  22  23
ATOM     23  C   LIG    1       23.185 -22.757   6.868  0.00  0.00    +0.319 C 
ATOM     24  O   LIG    1       22.968 -21.879   7.701  0.00  0.00    -0.250 OA
BRANCH  23  25
ATOM     25  O   LIG    1       22.223 -23.698   6.686  0.00  0.00    -0.480 OA
ATOM     26  H   LIG    1       22.438 -24.127   5.833  0.00  0.00    +0.295 HD
ENDBRANCH  23  25
ENDBRANCH  22  23
ENDBRANCH  16  22
ENDBRANCH  15  16
ENDBRANCH   3  15
TORSDOF 9
ENDMDL
MODEL 7
REMARK VINA RESULT:      -6.6      5.830      8.452
REMARK  Name = *****
REMARK                            x       y       z     vdW  Elec       q    Type
REMARK                         _______ _______ _______ _____ _____    ______ ____
ROOT
ATOM      1  N   LIG    1       26.167 -27.329   6.861  0.00  0.00    -0.284 N 
ATOM      2  H   LIG    1       27.100 -27.032   7.100  0.00  0.00    +0.155 HD
ATOM      3  C   LIG    1       25.270 -26.279   6.609  0.00  0.00    +0.231 C 
ATOM      4  O   LIG    1       24.059 -26.388   6.650  0.00  0.00    -0.274 OA
ENDROOT
BRANCH   1  11
ATOM      5  C   LIG    1       24.022 -32.124   9.253  0.00  0.00    +0.045 C 
ATOM      6  C   LIG    1       24.593 -30.909   8.572  0.00  0.00    -0.036 A 
ATOM      7  C   LIG    1       24.525 -30.685   7.192  0.00  0.00    +0.025 A 
ATOM      8 BR   LIG    1       23.641 -31.993   6.100  0.00  0.00    -0.050 Br
ATOM      9  C   LIG    1       25.100 -29.524   6.605  0.00  0.00    -0.015 A 
ATOM     10  C   LIG    1       25.067 -29.392   5.096  0.00  0.00    +0.046 C 
ATOM     11  C   LIG    1       25.779 -28.578   7.433  0.00  0.00    +0.040 A 
ATOM     12  C   LIG    1       25.892 -28.831   8.818  0.00  0.00    -0.029 A 
ATOM     13  C   LIG    1       26.540 -27.928   9.836  0.00  0.00    +0.045 C 
ATOM     14  C   LIG    1       25.274 -29.979   9.357  0.00  0.00    +0.009 A 
ENDBRANCH   1  11
BRANCH   3  15
ATOM     15  C   LIG    1       26.007 -24.918   6.307  0.00  0.00    +0.181 C 
BRANCH  15  16
ATOM     16  N   LIG    1       25.451 -23.690   7.010  0.00  0.00    -0.274 NA
BRANCH  16  17
ATOM     17  C   LIG    1       26.577 -22.780   7.390  0.00  0.00    +0.206 C 
BRANCH  17  18
ATOM     18  C   LIG    1       26.212 -21.520   8.175  0.00  0.00    +0.319 C 
ATOM     19  O   LIG    1       25.829 -21.567   9.341  0.00  0.00    -0.250 OA
BRANCH  18  20
ATOM     20  O   LIG    1       26.325 -20.343   7.537  0.00  0.00    -0.480 OA
ATOM     21  H   LIG    1       27.082 -19.827   7.891  0.00  0.00    +0.295 HD
ENDBRANCH  18  20
ENDBRANCH  17  18
ENDBRANCH  16  17
BRANCH  16  22
ATOM     22  C   LIG    1       24.428 -23.043   6.144  0.00  0.00    +0.206 C 
BRANCH  22  23
ATOM     23  C   LIG    1       23.110 -22.873   6.848  0.00  0.00    +0.319 C 
ATOM     24  O   LIG    1       22.833 -21.963   7.627  0.00  0.00    -0.250 OA
BRANCH  23  25
ATOM     25  O   LIG    1       22.206 -23.877   6.714  0.00  0.00    -0.480 OA
ATOM     26  H   LIG    1       22.509 -24.583   7.321  0.00  0.00    +0.295 HD
ENDBRANCH  23  25
ENDBRANCH  22  23
ENDBRANCH  16  22
ENDBRANCH  15  16
ENDBRANCH   3  15
TORSDOF 9
ENDMDL
MODEL 8
REMARK VINA RESULT:      -6.5      3.775      8.000
REMARK  Name = *****
REMARK                            x       y       z     vdW  Elec       q    Type
REMARK                         _______ _______ _______ _____ _____    ______ ____
ROOT
ATOM      1  N   LIG    1       27.476 -20.426   5.310  0.00  0.00    -0.284 N 
ATOM      2  H   LIG    1       27.508 -20.277   4.314  0.00  0.00    +0.155 HD
ATOM      3  C   LIG    1       26.184 -20.411   5.859  0.00  0.00    +0.231 C 
ATOM      4  O   LIG    1       25.941 -20.223   7.036  0.00  0.00    -0.274 OA
ENDROOT
BRANCH   1  11
ATOM      5  C   LIG    1       31.772 -18.418   8.601  0.00  0.00    +0.045 C 
ATOM      6  C   LIG    1       30.678 -19.005   7.749  0.00  0.00    -0.036 A 
ATOM      7  C   LIG    1       30.194 -20.311   7.892  0.00  0.00    +0.025 A 
ATOM      8 BR   LIG    1       30.958 -21.419   9.260  0.00  0.00    -0.050 Br
ATOM      9  C   LIG    1       29.170 -20.813   7.043  0.00  0.00    -0.015 A 
ATOM     10  C   LIG    1       28.759 -22.263   7.197  0.00  0.00    +0.046 C 
ATOM     11  C   LIG    1       28.637 -19.981   6.012  0.00  0.00    +0.040 A 
ATOM     12  C   LIG    1       29.161 -18.681   5.836  0.00  0.00    -0.029 A 
ATOM     13  C   LIG    1       28.694 -17.664   4.827  0.00  0.00    +0.045 C 
ATOM     14  C   LIG    1       30.152 -18.216   6.725  0.00  0.00    +0.009 A 
ENDBRANCH   1  11
BRANCH   3  15
ATOM     15  C   LIG    1       25.065 -20.624   4.769  0.00  0.00    +0.181 C 
BRANCH  15  16
ATOM     16  N   LIG    1       23.707 -20.017   5.081  0.00  0.00    -0.274 NA
BRANCH  16  17
ATOM     17  C   LIG    1       23.324 -19.064   3.991  0.00  0.00    +0.206 C 
BRANCH  17  18
ATOM     18  C   LIG    1       22.060 -18.233   4.213  0.00  0.00    +0.319 C 
ATOM     19  O   LIG    1       20.963 -18.591   3.791  0.00  0.00    -0.250 OA
BRANCH  18  20
ATOM     20  O   LIG    1       22.192 -17.082   4.892  0.00  0.00    -0.480 OA
ATOM     21  H   LIG    1       21.442 -16.958   5.515  0.00  0.00    +0.295 HD
ENDBRANCH  18  20
ENDBRANCH  17  18
ENDBRANCH  16  17
BRANCH  16  22
ATOM     22  C   LIG    1       22.715 -21.105   5.298  0.00  0.00    +0.206 C 
BRANCH  22  23
ATOM     23  C   LIG    1       22.956 -21.847   6.584  0.00  0.00    +0.319 C 
ATOM     24  O   LIG    1       22.793 -23.055   6.747  0.00  0.00    -0.250 OA
BRANCH  23  25
ATOM     25  O   LIG    1       23.246 -21.102   7.680  0.00  0.00    -0.480 OA
ATOM     26  H   LIG    1       23.578 -20.248   7.334  0.00  0.00    +0.295 HD
ENDBRANCH  23  25
ENDBRANCH  22  23
ENDBRANCH  16  22
ENDBRANCH  15  16
ENDBRANCH   3  15
TORSDOF 9
ENDMDL
MODEL 9
REMARK VINA RESULT:      -6.4      3.695      7.498
REMARK  Name = *****
REMARK                            x       y       z     vdW  Elec       q    Type
REMARK                         _______ _______ _______ _____ _____    ______ ____
ROOT
ATOM      1  N   LIG    1       27.628 -20.496   5.476  0.00  0.00    -0.284 N 
ATOM      2  H   LIG    1       27.646 -20.410   4.472  0.00  0.00    +0.155 HD
ATOM      3  C   LIG    1       26.342 -20.456   6.039  0.00  0.00    +0.231 C 
ATOM      4  O   LIG    1       26.111 -20.196   7.205  0.00  0.00    -0.274 OA
ENDROOT
BRANCH   1  11
ATOM      5  C   LIG    1       31.946 -18.270   8.593  0.00  0.00    +0.045 C 
ATOM      6  C   LIG    1       30.848 -18.913   7.788  0.00  0.00    -0.036 A 
ATOM      7  C   LIG    1       30.399 -20.223   7.989  0.00  0.00    +0.025 A 
ATOM      8 BR   LIG    1       31.220 -21.263   9.378  0.00  0.00    -0.050 Br
ATOM      9  C   LIG    1       29.368 -20.780   7.182  0.00  0.00    -0.015 A 
ATOM     10  C   LIG    1       28.997 -22.233   7.397  0.00  0.00    +0.046 C 
ATOM     11  C   LIG    1       28.792 -19.998   6.135  0.00  0.00    +0.040 A 
ATOM     12  C   LIG    1       29.282 -18.694   5.900  0.00  0.00    -0.029 A 
ATOM     13  C   LIG    1       28.767 -17.726   4.866  0.00  0.00    +0.045 C 
ATOM     14  C   LIG    1       30.280 -18.175   6.749  0.00  0.00    +0.009 A 
ENDBRANCH   1  11
BRANCH   3  15
ATOM     15  C   LIG    1       25.212 -20.746   4.978  0.00  0.00    +0.181 C 
BRANCH  15  16
ATOM     16  N   LIG    1       24.321 -21.944   5.264  0.00  0.00    -0.274 NA
BRANCH  16  17
ATOM     17  C   LIG    1       25.108 -22.990   5.989  0.00  0.00    +0.206 C 
BRANCH  17  18
ATOM     18  C   LIG    1       24.798 -24.448   5.648  0.00  0.00    +0.319 C 
ATOM     19  O   LIG    1       24.550 -25.281   6.516  0.00  0.00    -0.250 OA
BRANCH  18  20
ATOM     20  O   LIG    1       24.807 -24.792   4.350  0.00  0.00    -0.480 OA
ATOM     21  H   LIG    1       24.748 -25.767   4.248  0.00  0.00    +0.295 HD
ENDBRANCH  18  20
ENDBRANCH  17  18
ENDBRANCH  16  17
BRANCH  16  22
ATOM     22  C   LIG    1       23.107 -21.494   5.999  0.00  0.00    +0.206 C 
BRANCH  22  23
ATOM     23  C   LIG    1       22.123 -20.795   5.102  0.00  0.00    +0.319 C 
ATOM     24  O   LIG    1       22.074 -19.581   4.912  0.00  0.00    -0.250 OA
BRANCH  23  25
ATOM     25  O   LIG    1       21.132 -21.552   4.567  0.00  0.00    -0.480 OA
ATOM     26  H   LIG    1       20.791 -21.035   3.807  0.00  0.00    +0.295 HD
ENDBRANCH  23  25
ENDBRANCH  22  23
ENDBRANCH  16  22
ENDBRANCH  15  16
ENDBRANCH   3  15
TORSDOF 9
ENDMDL
