MODEL 1
REMARK VINA RESULT:      -9.6      0.000      0.000
REMARK  Name = *****
REMARK                            x       y       z     vdW  Elec       q    Type
REMARK                         _______ _______ _______ _____ _____    ______ ____
ROOT
ATOM      1  C   LIG    1       25.475 -19.899   5.225  0.00  0.00    +0.084 C 
ATOM      2  C   LIG    1       26.662 -20.405   6.046  0.00  0.00    -0.027 A 
ATOM      3  C   LIG    1       26.506 -21.299   7.125  0.00  0.00    -0.035 A 
ATOM      4  C   LIG    1       27.634 -21.725   7.853  0.00  0.00    +0.004 A 
ATOM      5  C   LIG    1       28.906 -21.256   7.535  0.00  0.00    +0.000 A 
ATOM      6  C   LIG    1       29.067 -20.350   6.496  0.00  0.00    +0.000 A 
ATOM      7  C   LIG    1       25.143 -21.843   7.517  0.00  0.00    +0.049 C 
ATOM      8  C   LIG    1       24.031 -20.868   7.101  0.00  0.00    +0.014 C 
ATOM      9  C   LIG    1       27.956 -19.919   5.766  0.00  0.00    +0.005 A 
ATOM     10  C   LIG    1       24.118 -20.517   5.622  0.00  0.00    +0.024 C 
ENDROOT
BRANCH   7  11
ATOM     11  C   LIG    1       24.890 -23.268   7.025  0.00  0.00    -0.038 A 
ATOM     12  C   LIG    1       25.978 -24.123   6.782  0.00  0.00    +0.025 A 
ATOM     13  C   LIG    1       25.774 -25.437   6.335  0.00  0.00    +0.059 A 
ATOM     14 CL   LIG    1       27.172 -26.415   6.056  0.00  0.00    -0.082 Cl
ATOM     15  C   LIG    1       24.476 -25.914   6.131  0.00  0.00    +0.059 A 
ATOM     16 CL   LIG    1       24.148 -27.520   5.587  0.00  0.00    -0.082 Cl
ATOM     17  C   LIG    1       23.388 -25.076   6.373  0.00  0.00    +0.022 A 
ATOM     18  C   LIG    1       23.594 -23.767   6.817  0.00  0.00    +0.006 A 
ENDBRANCH   7  11
BRANCH   1  20
ATOM     19  C   LIG    1       24.445 -20.412   3.069  0.00  0.00    +0.101 C 
ATOM     20  N   LIG    1       25.686 -20.133   3.781  0.00  0.00    -0.312 NA
ATOM     21  H   LIG    1       26.120 -19.316   3.360  0.00  0.00    +0.122 HD
ENDBRANCH   1  20
TORSDOF 2
ENDMDL
MODEL 2
REMARK VINA RESULT:      -8.9      3.397      5.722
REMARK  Name = *****
REMARK                            x       y       z     vdW  Elec       q    Type
REMARK                         _______ _______ _______ _____ _____    ______ ____
ROOT
ATOM      1  C   LIG    1       24.541 -23.595   6.276  0.00  0.00    +0.084 C 
ATOM      2  C   LIG    1       23.849 -22.246   6.076  0.00  0.00    -0.027 A 
ATOM      3  C   LIG    1       24.214 -21.095   6.803  0.00  0.00    -0.035 A 
ATOM      4  C   LIG    1       23.535 -19.882   6.584  0.00  0.00    +0.004 A 
ATOM      5  C   LIG    1       22.486 -19.805   5.671  0.00  0.00    +0.000 A 
ATOM      6  C   LIG    1       22.097 -20.941   4.973  0.00  0.00    +0.000 A 
ATOM      7  C   LIG    1       25.349 -21.119   7.812  0.00  0.00    +0.049 C 
ATOM      8  C   LIG    1       25.539 -22.534   8.379  0.00  0.00    +0.014 C 
ATOM      9  C   LIG    1       22.762 -22.151   5.181  0.00  0.00    +0.005 A 
ATOM     10  C   LIG    1       25.721 -23.562   7.270  0.00  0.00    +0.024 C 
ENDROOT
BRANCH   7  11
ATOM     11  C   LIG    1       26.649 -20.516   7.282  0.00  0.00    -0.038 A 
ATOM     12  C   LIG    1       27.688 -20.205   8.177  0.00  0.00    +0.025 A 
ATOM     13  C   LIG    1       28.892 -19.655   7.716  0.00  0.00    +0.059 A 
ATOM     14 CL   LIG    1       30.111 -19.298   8.889  0.00  0.00    -0.082 Cl
ATOM     15  C   LIG    1       29.076 -19.415   6.351  0.00  0.00    +0.059 A 
ATOM     16 CL   LIG    1       30.534 -18.745   5.711  0.00  0.00    -0.082 Cl
ATOM     17  C   LIG    1       28.055 -19.724   5.453  0.00  0.00    +0.022 A 
ATOM     18  C   LIG    1       26.855 -20.270   5.915  0.00  0.00    +0.006 A 
ENDBRANCH   7  11
BRANCH   1  20
ATOM     19  C   LIG    1       25.131 -25.593   4.998  0.00  0.00    +0.101 C 
ATOM     20  N   LIG    1       25.032 -24.139   4.993  0.00  0.00    -0.312 NA
ATOM     21  H   LIG    1       24.405 -23.864   4.241  0.00  0.00    +0.122 HD
ENDBRANCH   1  20
TORSDOF 2
ENDMDL
MODEL 3
REMARK VINA RESULT:      -8.2      1.364      1.662
REMARK  Name = *****
REMARK                            x       y       z     vdW  Elec       q    Type
REMARK                         _______ _______ _______ _____ _____    ______ ____
ROOT
ATOM      1  C   LIG    1       24.181 -20.902   5.471  0.00  0.00    +0.084 C 
ATOM      2  C   LIG    1       25.621 -21.009   5.977  0.00  0.00    -0.027 A 
ATOM      3  C   LIG    1       26.033 -22.018   6.872  0.00  0.00    -0.035 A 
ATOM      4  C   LIG    1       27.370 -22.062   7.312  0.00  0.00    +0.004 A 
ATOM      5  C   LIG    1       28.291 -21.106   6.893  0.00  0.00    +0.000 A 
ATOM      6  C   LIG    1       27.887 -20.088   6.039  0.00  0.00    +0.000 A 
ATOM      7  C   LIG    1       25.072 -23.088   7.362  0.00  0.00    +0.049 C 
ATOM      8  C   LIG    1       23.626 -22.571   7.329  0.00  0.00    +0.014 C 
ATOM      9  C   LIG    1       26.565 -20.033   5.595  0.00  0.00    +0.005 A 
ATOM     10  C   LIG    1       23.253 -22.038   5.952  0.00  0.00    +0.024 C 
ENDROOT
BRANCH   7  11
ATOM     11  C   LIG    1       25.236 -24.429   6.649  0.00  0.00    -0.038 A 
ATOM     12  C   LIG    1       25.538 -25.581   7.394  0.00  0.00    +0.025 A 
ATOM     13  C   LIG    1       25.689 -26.825   6.765  0.00  0.00    +0.059 A 
ATOM     14 CL   LIG    1       26.068 -28.186   7.761  0.00  0.00    -0.082 Cl
ATOM     15  C   LIG    1       25.535 -26.933   5.380  0.00  0.00    +0.059 A 
ATOM     16 CL   LIG    1       25.702 -28.431   4.538  0.00  0.00    -0.082 Cl
ATOM     17  C   LIG    1       25.231 -25.797   4.630  0.00  0.00    +0.022 A 
ATOM     18  C   LIG    1       25.082 -24.559   5.259  0.00  0.00    +0.006 A 
ENDBRANCH   7  11
BRANCH   1  20
ATOM     19  C   LIG    1       23.680 -19.576   3.480  0.00  0.00    +0.101 C 
ATOM     20  N   LIG    1       24.136 -20.861   3.995  0.00  0.00    -0.312 NA
ATOM     21  H   LIG    1       25.062 -21.046   3.618  0.00  0.00    +0.122 HD
ENDBRANCH   1  20
TORSDOF 2
ENDMDL
MODEL 4
REMARK VINA RESULT:      -7.0      3.691      5.791
REMARK  Name = *****
REMARK                            x       y       z     vdW  Elec       q    Type
REMARK                         _______ _______ _______ _____ _____    ______ ____
ROOT
ATOM      1  C   LIG    1       25.457 -22.628   8.466  0.00  0.00    +0.084 C 
ATOM      2  C   LIG    1       25.345 -23.482   7.202  0.00  0.00    -0.027 A 
ATOM      3  C   LIG    1       24.433 -23.184   6.168  0.00  0.00    -0.035 A 
ATOM      4  C   LIG    1       24.367 -24.011   5.031  0.00  0.00    +0.004 A 
ATOM      5  C   LIG    1       25.177 -25.138   4.920  0.00  0.00    +0.000 A 
ATOM      6  C   LIG    1       26.054 -25.459   5.947  0.00  0.00    +0.000 A 
ATOM      7  C   LIG    1       23.526 -21.967   6.235  0.00  0.00    +0.049 C 
ATOM      8  C   LIG    1       23.259 -21.571   7.695  0.00  0.00    +0.014 C 
ATOM      9  C   LIG    1       26.130 -24.648   7.081  0.00  0.00    +0.005 A 
ATOM     10  C   LIG    1       24.555 -21.375   8.468  0.00  0.00    +0.024 C 
ENDROOT
BRANCH   7  11
ATOM     11  C   LIG    1       24.013 -20.795   5.385  0.00  0.00    -0.038 A 
ATOM     12  C   LIG    1       23.140 -19.732   5.099  0.00  0.00    +0.025 A 
ATOM     13  C   LIG    1       23.564 -18.642   4.326  0.00  0.00    +0.059 A 
ATOM     14 CL   LIG    1       22.418 -17.384   4.019  0.00  0.00    -0.082 Cl
ATOM     15  C   LIG    1       24.871 -18.598   3.833  0.00  0.00    +0.059 A 
ATOM     16 CL   LIG    1       25.464 -17.287   2.878  0.00  0.00    -0.082 Cl
ATOM     17  C   LIG    1       25.749 -19.645   4.113  0.00  0.00    +0.022 A 
ATOM     18  C   LIG    1       25.323 -20.731   4.883  0.00  0.00    +0.006 A 
ENDBRANCH   7  11
BRANCH   1  20
ATOM     19  C   LIG    1       27.166 -20.933   8.040  0.00  0.00    +0.101 C 
ATOM     20  N   LIG    1       26.851 -22.196   8.697  0.00  0.00    -0.312 NA
ATOM     21  H   LIG    1       27.016 -22.088   9.695  0.00  0.00    +0.122 HD
ENDBRANCH   1  20
TORSDOF 2
ENDMDL
MODEL 5
REMARK VINA RESULT:      -7.0      3.956      6.945
REMARK  Name = *****
REMARK                            x       y       z     vdW  Elec       q    Type
REMARK                         _______ _______ _______ _____ _____    ______ ____
ROOT
ATOM      1  C   LIG    1       25.023 -29.203   5.732  0.00  0.00    +0.084 C 
ATOM      2  C   LIG    1       25.511 -28.940   7.158  0.00  0.00    -0.027 A 
ATOM      3  C   LIG    1       26.197 -27.761   7.516  0.00  0.00    -0.035 A 
ATOM      4  C   LIG    1       26.631 -27.577   8.843  0.00  0.00    +0.004 A 
ATOM      5  C   LIG    1       26.411 -28.557   9.807  0.00  0.00    +0.000 A 
ATOM      6  C   LIG    1       25.767 -29.736   9.458  0.00  0.00    +0.000 A 
ATOM      7  C   LIG    1       26.463 -26.658   6.506  0.00  0.00    +0.049 C 
ATOM      8  C   LIG    1       26.519 -27.232   5.082  0.00  0.00    +0.014 C 
ATOM      9  C   LIG    1       25.331 -29.931   8.146  0.00  0.00    +0.005 A 
ATOM     10  C   LIG    1       25.269 -28.036   4.752  0.00  0.00    +0.024 C 
ENDROOT
BRANCH   7  11
ATOM     11  C   LIG    1       25.506 -25.474   6.628  0.00  0.00    -0.038 A 
ATOM     12  C   LIG    1       26.003 -24.211   6.990  0.00  0.00    +0.025 A 
ATOM     13  C   LIG    1       25.147 -23.107   7.105  0.00  0.00    +0.059 A 
ATOM     14 CL   LIG    1       25.847 -21.594   7.563  0.00  0.00    -0.082 Cl
ATOM     15  C   LIG    1       23.780 -23.251   6.852  0.00  0.00    +0.059 A 
ATOM     16 CL   LIG    1       22.666 -21.936   6.970  0.00  0.00    -0.082 Cl
ATOM     17  C   LIG    1       23.274 -24.499   6.488  0.00  0.00    +0.022 A 
ATOM     18  C   LIG    1       24.130 -25.598   6.376  0.00  0.00    +0.006 A 
ENDBRANCH   7  11
BRANCH   1  20
ATOM     19  C   LIG    1       23.327 -30.958   5.842  0.00  0.00    +0.101 C 
ATOM     20  N   LIG    1       23.582 -29.529   5.712  0.00  0.00    -0.312 NA
ATOM     21  H   LIG    1       23.111 -29.049   6.474  0.00  0.00    +0.122 HD
ENDBRANCH   1  20
TORSDOF 2
ENDMDL
MODEL 6
REMARK VINA RESULT:      -6.9      3.432      5.505
REMARK  Name = *****
REMARK                            x       y       z     vdW  Elec       q    Type
REMARK                         _______ _______ _______ _____ _____    ______ ____
ROOT
ATOM      1  C   LIG    1       23.101 -19.989   4.685  0.00  0.00    +0.084 C 
ATOM      2  C   LIG    1       23.266 -21.323   5.415  0.00  0.00    -0.027 A 
ATOM      3  C   LIG    1       24.506 -21.989   5.498  0.00  0.00    -0.035 A 
ATOM      4  C   LIG    1       24.598 -23.220   6.174  0.00  0.00    +0.004 A 
ATOM      5  C   LIG    1       23.471 -23.806   6.747  0.00  0.00    +0.000 A 
ATOM      6  C   LIG    1       22.239 -23.175   6.641  0.00  0.00    +0.000 A 
ATOM      7  C   LIG    1       25.768 -21.398   4.893  0.00  0.00    +0.049 C 
ATOM      8  C   LIG    1       25.422 -20.467   3.722  0.00  0.00    +0.014 C 
ATOM      9  C   LIG    1       22.134 -21.953   5.973  0.00  0.00    +0.005 A 
ATOM     10  C   LIG    1       24.416 -19.401   4.133  0.00  0.00    +0.024 C 
ENDROOT
BRANCH   7  11
ATOM     11  C   LIG    1       26.686 -20.737   5.921  0.00  0.00    -0.038 A 
ATOM     12  C   LIG    1       27.838 -20.058   5.490  0.00  0.00    +0.025 A 
ATOM     13  C   LIG    1       28.694 -19.438   6.412  0.00  0.00    +0.059 A 
ATOM     14 CL   LIG    1       30.092 -18.632   5.791  0.00  0.00    -0.082 Cl
ATOM     15  C   LIG    1       28.404 -19.486   7.778  0.00  0.00    +0.059 A 
ATOM     16 CL   LIG    1       29.410 -18.743   8.970  0.00  0.00    -0.082 Cl
ATOM     17  C   LIG    1       27.261 -20.153   8.218  0.00  0.00    +0.022 A 
ATOM     18  C   LIG    1       26.411 -20.771   7.297  0.00  0.00    +0.006 A 
ENDBRANCH   7  11
BRANCH   1  20
ATOM     19  C   LIG    1       22.079 -17.774   4.837  0.00  0.00    +0.101 C 
ATOM     20  N   LIG    1       22.472 -18.977   5.560  0.00  0.00    -0.312 NA
ATOM     21  H   LIG    1       21.644 -19.371   6.000  0.00  0.00    +0.122 HD
ENDBRANCH   1  20
TORSDOF 2
ENDMDL
MODEL 7
REMARK VINA RESULT:      -6.6      3.198      5.291
REMARK  Name = *****
REMARK                            x       y       z     vdW  Elec       q    Type
REMARK                         _______ _______ _______ _____ _____    ______ ____
ROOT
ATOM      1  C   LIG    1       26.881 -22.374   7.652  0.00  0.00    +0.084 C 
ATOM      2  C   LIG    1       25.878 -23.407   7.136  0.00  0.00    -0.027 A 
ATOM      3  C   LIG    1       24.493 -23.148   7.074  0.00  0.00    -0.035 A 
ATOM      4  C   LIG    1       23.614 -24.141   6.598  0.00  0.00    +0.004 A 
ATOM      5  C   LIG    1       24.092 -25.389   6.208  0.00  0.00    +0.000 A 
ATOM      6  C   LIG    1       25.449 -25.666   6.297  0.00  0.00    +0.000 A 
ATOM      7  C   LIG    1       23.916 -21.805   7.486  0.00  0.00    +0.049 C 
ATOM      8  C   LIG    1       24.827 -21.118   8.514  0.00  0.00    +0.014 C 
ATOM      9  C   LIG    1       26.332 -24.691   6.766  0.00  0.00    +0.005 A 
ATOM     10  C   LIG    1       26.259 -21.008   8.009  0.00  0.00    +0.024 C 
ENDROOT
BRANCH   7  11
ATOM     11  C   LIG    1       23.573 -20.900   6.304  0.00  0.00    -0.038 A 
ATOM     12  C   LIG    1       24.605 -20.326   5.544  0.00  0.00    +0.025 A 
ATOM     13  C   LIG    1       24.318 -19.495   4.451  0.00  0.00    +0.059 A 
ATOM     14 CL   LIG    1       25.653 -18.828   3.579  0.00  0.00    -0.082 Cl
ATOM     15  C   LIG    1       22.991 -19.232   4.102  0.00  0.00    +0.059 A 
ATOM     16 CL   LIG    1       22.561 -18.223   2.768  0.00  0.00    -0.082 Cl
ATOM     17  C   LIG    1       21.956 -19.799   4.846  0.00  0.00    +0.022 A 
ATOM     18  C   LIG    1       22.246 -20.625   5.935  0.00  0.00    +0.006 A 
ENDBRANCH   7  11
BRANCH   1  20
ATOM     19  C   LIG    1       28.902 -21.116   7.099  0.00  0.00    +0.101 C 
ATOM     20  N   LIG    1       27.965 -22.148   6.673  0.00  0.00    -0.312 NA
ATOM     21  H   LIG    1       28.483 -23.011   6.527  0.00  0.00    +0.122 HD
ENDBRANCH   1  20
TORSDOF 2
ENDMDL
