MODEL 1
REMARK VINA RESULT:      -5.2      0.000      0.000
REMARK  Name = *****
REMARK                            x       y       z     vdW  Elec       q    Type
REMARK                         _______ _______ _______ _____ _____    ______ ____
ROOT
ATOM      1  O   LIG    1       29.474 -18.056   5.579  0.00  0.00    -0.265 OA
ATOM      2  C   LIG    1       28.390 -18.463   5.177  0.00  0.00    +0.289 C 
ATOM      3  C   LIG    1       27.779 -19.715   5.654  0.00  0.00    +0.204 C 
ATOM      4  F   LIG    1       28.441 -20.419   6.590  0.00  0.00    -0.198 F 
ATOM      5  C   LIG    1       26.606 -20.108   5.161  0.00  0.00    +0.137 C 
ATOM      6  N   LIG    1       25.929 -19.379   4.192  0.00  0.00    -0.271 N 
ATOM      7  C   LIG    1       26.430 -18.163   3.731  0.00  0.00    +0.332 C 
ATOM      8  O   LIG    1       25.885 -17.433   2.908  0.00  0.00    -0.246 OA
ATOM      9  N   LIG    1       27.648 -17.786   4.246  0.00  0.00    -0.273 N 
ATOM     10  H   LIG    1       28.023 -16.912   3.910  0.00  0.00    +0.173 HD
ENDROOT
BRANCH   6  11
ATOM     11  C   LIG    1       24.608 -19.850   3.775  0.00  0.00    +0.223 C 
ATOM     12  O   LIG    1       24.348 -21.107   4.411  0.00  0.00    -0.356 OA
ATOM     13  C   LIG    1       22.985 -21.107   4.847  0.00  0.00    +0.162 C 
ATOM     14  C   LIG    1       22.605 -19.663   5.076  0.00  0.00    +0.033 C 
ATOM     15  C   LIG    1       23.418 -18.929   4.035  0.00  0.00    +0.057 C 
ENDBRANCH   6  11
TORSDOF 1
ENDMDL
MODEL 2
REMARK VINA RESULT:      -4.4      2.380      5.159
REMARK  Name = *****
REMARK                            x       y       z     vdW  Elec       q    Type
REMARK                         _______ _______ _______ _____ _____    ______ ____
ROOT
ATOM      1  O   LIG    1       22.255 -20.382   5.200  0.00  0.00    -0.265 OA
ATOM      2  C   LIG    1       23.479 -20.311   5.180  0.00  0.00    +0.289 C 
ATOM      3  C   LIG    1       24.218 -19.526   4.177  0.00  0.00    +0.204 C 
ATOM      4  F   LIG    1       23.503 -18.842   3.265  0.00  0.00    -0.198 F 
ATOM      5  C   LIG    1       25.549 -19.508   4.203  0.00  0.00    +0.137 C 
ATOM      6  N   LIG    1       26.281 -20.219   5.144  0.00  0.00    -0.271 N 
ATOM      7  C   LIG    1       25.643 -20.945   6.148  0.00  0.00    +0.332 C 
ATOM      8  O   LIG    1       26.204 -21.572   7.042  0.00  0.00    -0.246 OA
ATOM      9  N   LIG    1       24.268 -20.959   6.091  0.00  0.00    -0.273 N 
ATOM     10  H   LIG    1       23.799 -21.491   6.808  0.00  0.00    +0.173 HD
ENDROOT
BRANCH   6  11
ATOM     11  C   LIG    1       27.737 -20.068   5.140  0.00  0.00    +0.223 C 
ATOM     12  O   LIG    1       28.054 -18.687   4.929  0.00  0.00    -0.356 OA
ATOM     13  C   LIG    1       29.132 -18.344   5.804  0.00  0.00    +0.162 C 
ATOM     14  C   LIG    1       29.043 -19.280   6.987  0.00  0.00    +0.033 C 
ATOM     15  C   LIG    1       28.496 -20.548   6.375  0.00  0.00    +0.057 C 
ENDBRANCH   6  11
TORSDOF 1
ENDMDL
MODEL 3
REMARK VINA RESULT:      -3.8      2.248      2.865
REMARK  Name = *****
REMARK                            x       y       z     vdW  Elec       q    Type
REMARK                         _______ _______ _______ _____ _____    ______ ____
ROOT
ATOM      1  O   LIG    1       29.106 -17.836   4.907  0.00  0.00    -0.265 OA
ATOM      2  C   LIG    1       28.209 -18.652   5.087  0.00  0.00    +0.289 C 
ATOM      3  C   LIG    1       26.909 -18.576   4.400  0.00  0.00    +0.204 C 
ATOM      4  F   LIG    1       26.722 -17.575   3.520  0.00  0.00    -0.198 F 
ATOM      5  C   LIG    1       25.972 -19.487   4.656  0.00  0.00    +0.137 C 
ATOM      6  N   LIG    1       26.169 -20.515   5.567  0.00  0.00    -0.271 N 
ATOM      7  C   LIG    1       27.392 -20.671   6.218  0.00  0.00    +0.332 C 
ATOM      8  O   LIG    1       27.670 -21.568   7.008  0.00  0.00    -0.246 OA
ATOM      9  N   LIG    1       28.338 -19.710   5.946  0.00  0.00    -0.273 N 
ATOM     10  H   LIG    1       29.223 -19.809   6.420  0.00  0.00    +0.173 HD
ENDROOT
BRANCH   6  11
ATOM     11  C   LIG    1       25.110 -21.513   5.718  0.00  0.00    +0.223 C 
ATOM     12  O   LIG    1       24.614 -21.455   7.062  0.00  0.00    -0.356 OA
ATOM     13  C   LIG    1       23.189 -21.572   7.011  0.00  0.00    +0.162 C 
ATOM     14  C   LIG    1       22.761 -21.046   5.661  0.00  0.00    +0.033 C 
ATOM     15  C   LIG    1       23.919 -21.424   4.767  0.00  0.00    +0.057 C 
ENDBRANCH   6  11
TORSDOF 1
ENDMDL
MODEL 4
REMARK VINA RESULT:      -3.6      2.757      5.016
REMARK  Name = *****
REMARK                            x       y       z     vdW  Elec       q    Type
REMARK                         _______ _______ _______ _____ _____    ______ ____
ROOT
ATOM      1  O   LIG    1       21.434 -18.070   4.178  0.00  0.00    -0.265 OA
ATOM      2  C   LIG    1       22.431 -18.712   4.487  0.00  0.00    +0.289 C 
ATOM      3  C   LIG    1       23.783 -18.364   4.020  0.00  0.00    +0.204 C 
ATOM      4  F   LIG    1       23.916 -17.275   3.241  0.00  0.00    -0.198 F 
ATOM      5  C   LIG    1       24.821 -19.117   4.380  0.00  0.00    +0.137 C 
ATOM      6  N   LIG    1       24.676 -20.241   5.181  0.00  0.00    -0.271 N 
ATOM      7  C   LIG    1       23.431 -20.601   5.693  0.00  0.00    +0.332 C 
ATOM      8  O   LIG    1       23.213 -21.553   6.436  0.00  0.00    -0.246 OA
ATOM      9  N   LIG    1       22.374 -19.815   5.296  0.00  0.00    -0.273 N 
ATOM     10  H   LIG    1       21.467 -20.074   5.654  0.00  0.00    +0.173 HD
ENDROOT
BRANCH   6  11
ATOM     11  C   LIG    1       25.887 -20.956   5.589  0.00  0.00    +0.223 C 
ATOM     12  O   LIG    1       26.987 -20.475   4.807  0.00  0.00    -0.356 OA
ATOM     13  C   LIG    1       28.115 -20.333   5.675  0.00  0.00    +0.162 C 
ATOM     14  C   LIG    1       27.566 -20.088   7.061  0.00  0.00    +0.033 C 
ATOM     15  C   LIG    1       26.282 -20.885   7.062  0.00  0.00    +0.057 C 
ENDBRANCH   6  11
TORSDOF 1
ENDMDL
MODEL 5
REMARK VINA RESULT:      -3.5      3.278      3.954
REMARK  Name = *****
REMARK                            x       y       z     vdW  Elec       q    Type
REMARK                         _______ _______ _______ _____ _____    ______ ____
ROOT
ATOM      1  O   LIG    1       26.124 -13.632   3.811  0.00  0.00    -0.265 OA
ATOM      2  C   LIG    1       25.559 -14.719   3.790  0.00  0.00    +0.289 C 
ATOM      3  C   LIG    1       24.158 -14.900   4.206  0.00  0.00    +0.204 C 
ATOM      4  F   LIG    1       23.475 -13.810   4.601  0.00  0.00    -0.198 F 
ATOM      5  C   LIG    1       23.612 -16.115   4.175  0.00  0.00    +0.137 C 
ATOM      6  N   LIG    1       24.323 -17.236   3.770  0.00  0.00    -0.271 N 
ATOM      7  C   LIG    1       25.637 -17.127   3.321  0.00  0.00    +0.332 C 
ATOM      8  O   LIG    1       26.330 -18.053   2.910  0.00  0.00    -0.246 OA
ATOM      9  N   LIG    1       26.183 -15.865   3.375  0.00  0.00    -0.273 N 
ATOM     10  H   LIG    1       27.137 -15.778   3.061  0.00  0.00    +0.173 HD
ENDROOT
BRANCH   6  11
ATOM     11  C   LIG    1       23.610 -18.511   3.692  0.00  0.00    +0.223 C 
ATOM     12  O   LIG    1       24.478 -19.550   4.161  0.00  0.00    -0.356 OA
ATOM     13  C   LIG    1       23.703 -20.436   4.975  0.00  0.00    +0.162 C 
ATOM     14  C   LIG    1       22.565 -19.620   5.541  0.00  0.00    +0.033 C 
ATOM     15  C   LIG    1       22.284 -18.623   4.441  0.00  0.00    +0.057 C 
ENDBRANCH   6  11
TORSDOF 1
ENDMDL
MODEL 6
REMARK VINA RESULT:      -3.5      2.823      4.866
REMARK  Name = *****
REMARK                            x       y       z     vdW  Elec       q    Type
REMARK                         _______ _______ _______ _____ _____    ______ ____
ROOT
ATOM      1  O   LIG    1       25.450 -20.790   4.547  0.00  0.00    -0.265 OA
ATOM      2  C   LIG    1       25.853 -19.658   4.309  0.00  0.00    +0.289 C 
ATOM      3  C   LIG    1       25.045 -18.656   3.594  0.00  0.00    +0.204 C 
ATOM      4  F   LIG    1       23.803 -19.007   3.214  0.00  0.00    -0.198 F 
ATOM      5  C   LIG    1       25.552 -17.448   3.353  0.00  0.00    +0.137 C 
ATOM      6  N   LIG    1       26.835 -17.093   3.744  0.00  0.00    -0.271 N 
ATOM      7  C   LIG    1       27.636 -17.978   4.463  0.00  0.00    +0.332 C 
ATOM      8  O   LIG    1       28.764 -17.740   4.882  0.00  0.00    -0.246 OA
ATOM      9  N   LIG    1       27.094 -19.223   4.688  0.00  0.00    -0.273 N 
ATOM     10  H   LIG    1       27.671 -19.873   5.200  0.00  0.00    +0.173 HD
ENDROOT
BRANCH   6  11
ATOM     11  C   LIG    1       27.270 -15.716   3.505  0.00  0.00    +0.223 C 
ATOM     12  O   LIG    1       26.459 -15.153   2.467  0.00  0.00    -0.356 OA
ATOM     13  C   LIG    1       26.136 -13.810   2.841  0.00  0.00    +0.162 C 
ATOM     14  C   LIG    1       26.174 -13.760   4.350  0.00  0.00    +0.033 C 
ATOM     15  C   LIG    1       27.255 -14.758   4.694  0.00  0.00    +0.057 C 
ENDBRANCH   6  11
TORSDOF 1
ENDMDL
MODEL 7
REMARK VINA RESULT:      -3.4      3.554      5.372
REMARK  Name = *****
REMARK                            x       y       z     vdW  Elec       q    Type
REMARK                         _______ _______ _______ _____ _____    ______ ____
ROOT
ATOM      1  O   LIG    1       23.882 -20.198   3.676  0.00  0.00    -0.265 OA
ATOM      2  C   LIG    1       24.210 -19.018   3.698  0.00  0.00    +0.289 C 
ATOM      3  C   LIG    1       23.264 -17.930   3.993  0.00  0.00    +0.204 C 
ATOM      4  F   LIG    1       21.991 -18.265   4.273  0.00  0.00    -0.198 F 
ATOM      5  C   LIG    1       23.685 -16.666   3.982  0.00  0.00    +0.137 C 
ATOM      6  N   LIG    1       24.998 -16.327   3.689  0.00  0.00    -0.271 N 
ATOM      7  C   LIG    1       25.955 -17.310   3.445  0.00  0.00    +0.332 C 
ATOM      8  O   LIG    1       27.143 -17.108   3.215  0.00  0.00    -0.246 OA
ATOM      9  N   LIG    1       25.492 -18.606   3.449  0.00  0.00    -0.273 N 
ATOM     10  H   LIG    1       26.176 -19.324   3.264  0.00  0.00    +0.173 HD
ENDROOT
BRANCH   6  11
ATOM     11  C   LIG    1       25.382 -14.918   3.784  0.00  0.00    +0.223 C 
ATOM     12  O   LIG    1       25.908 -14.500   2.518  0.00  0.00    -0.356 OA
ATOM     13  C   LIG    1       25.397 -13.194   2.239  0.00  0.00    +0.162 C 
ATOM     14  C   LIG    1       24.080 -13.079   2.971  0.00  0.00    +0.033 C 
ATOM     15  C   LIG    1       24.304 -13.922   4.204  0.00  0.00    +0.057 C 
ENDBRANCH   6  11
TORSDOF 1
ENDMDL
MODEL 8
REMARK VINA RESULT:      -3.2      4.675      6.219
REMARK  Name = *****
REMARK                            x       y       z     vdW  Elec       q    Type
REMARK                         _______ _______ _______ _____ _____    ______ ____
ROOT
ATOM      1  O   LIG    1       24.357 -18.650   3.766  0.00  0.00    -0.265 OA
ATOM      2  C   LIG    1       24.552 -17.440   3.754  0.00  0.00    +0.289 C 
ATOM      3  C   LIG    1       23.535 -16.462   4.173  0.00  0.00    +0.204 C 
ATOM      4  F   LIG    1       22.353 -16.935   4.609  0.00  0.00    -0.198 F 
ATOM      5  C   LIG    1       23.808 -15.160   4.118  0.00  0.00    +0.137 C 
ATOM      6  N   LIG    1       25.028 -14.679   3.664  0.00  0.00    -0.271 N 
ATOM      7  C   LIG    1       26.050 -15.551   3.295  0.00  0.00    +0.332 C 
ATOM      8  O   LIG    1       27.170 -15.220   2.918  0.00  0.00    -0.246 OA
ATOM      9  N   LIG    1       25.738 -16.890   3.349  0.00  0.00    -0.273 N 
ATOM     10  H   LIG    1       26.469 -17.529   3.074  0.00  0.00    +0.173 HD
ENDROOT
BRANCH   6  11
ATOM     11  C   LIG    1       25.262 -13.235   3.719  0.00  0.00    +0.223 C 
ATOM     12  O   LIG    1       25.378 -12.738   2.380  0.00  0.00    -0.356 OA
ATOM     13  C   LIG    1       24.667 -11.499   2.306  0.00  0.00    +0.162 C 
ATOM     14  C   LIG    1       23.590 -11.556   3.364  0.00  0.00    +0.033 C 
ATOM     15  C   LIG    1       24.230 -12.383   4.454  0.00  0.00    +0.057 C 
ENDBRANCH   6  11
TORSDOF 1
ENDMDL
MODEL 9
REMARK VINA RESULT:      -3.0      2.998      3.632
REMARK  Name = *****
REMARK                            x       y       z     vdW  Elec       q    Type
REMARK                         _______ _______ _______ _____ _____    ______ ____
ROOT
ATOM      1  O   LIG    1       27.687 -13.767   3.887  0.00  0.00    -0.265 OA
ATOM      2  C   LIG    1       27.260 -14.914   3.821  0.00  0.00    +0.289 C 
ATOM      3  C   LIG    1       25.923 -15.240   3.299  0.00  0.00    +0.204 C 
ATOM      4  F   LIG    1       25.158 -14.225   2.856  0.00  0.00    -0.198 F 
ATOM      5  C   LIG    1       25.515 -16.508   3.272  0.00  0.00    +0.137 C 
ATOM      6  N   LIG    1       26.307 -17.549   3.734  0.00  0.00    -0.271 N 
ATOM      7  C   LIG    1       27.600 -17.315   4.198  0.00  0.00    +0.332 C 
ATOM      8  O   LIG    1       28.384 -18.174   4.590  0.00  0.00    -0.246 OA
ATOM      9  N   LIG    1       27.992 -15.997   4.228  0.00  0.00    -0.273 N 
ATOM     10  H   LIG    1       28.923 -15.817   4.572  0.00  0.00    +0.173 HD
ENDROOT
BRANCH   6  11
ATOM     11  C   LIG    1       25.803 -18.915   3.585  0.00  0.00    +0.223 C 
ATOM     12  O   LIG    1       26.198 -19.676   4.733  0.00  0.00    -0.356 OA
ATOM     13  C   LIG    1       25.091 -20.494   5.122  0.00  0.00    +0.162 C 
ATOM     14  C   LIG    1       23.842 -19.782   4.656  0.00  0.00    +0.033 C 
ATOM     15  C   LIG    1       24.298 -19.092   3.392  0.00  0.00    +0.057 C 
ENDBRANCH   6  11
TORSDOF 1
ENDMDL
