MODEL 1
REMARK VINA RESULT:      -6.0      0.000      0.000
REMARK  Name = *****
REMARK                            x       y       z     vdW  Elec       q    Type
REMARK                         _______ _______ _______ _____ _____    ______ ____
ROOT
ATOM      1  C   LIG    1       24.061 -30.548  12.269  0.00  0.00    +0.129 C 
ATOM      2  C   LIG    1       25.268 -30.657  11.278  0.00  0.00    +0.007 C 
ATOM      3  C   LIG    1       26.586 -30.153  11.897  0.00  0.00    +0.014 C 
ATOM      4  C   LIG    1       24.802 -29.798  10.090  0.00  0.00    +0.005 C 
ATOM      5  C   LIG    1       25.649 -29.932   8.799  0.00  0.00    +0.021 C 
ATOM      6  C   LIG    1       26.209 -31.334   8.422  0.00  0.00    +0.007 C 
ATOM      7  C   LIG    1       26.449 -32.256   9.638  0.00  0.00    +0.005 C 
ATOM      8  C   LIG    1       25.561 -32.023   7.152  0.00  0.00    +0.001 C 
ATOM      9  C   LIG    1       24.138 -32.574   7.409  0.00  0.00    +0.017 C 
ATOM     10  C   LIG    1       25.436 -30.988   6.009  0.00  0.00    -0.020 C 
ATOM     11  C   LIG    1       25.778 -31.252   4.732  0.00  0.00    +0.052 C 
ATOM     12  C   LIG    1       26.358 -32.533   4.282  0.00  0.00    +0.160 C 
ATOM     13  O   LIG    1       26.553 -32.769   3.099  0.00  0.00    -0.292 OA
ATOM     14  C   LIG    1       26.746 -33.501   5.324  0.00  0.00    +0.064 C 
ATOM     15  C   LIG    1       27.846 -33.139   6.295  0.00  0.00    +0.016 C 
ATOM     16  C   LIG    1       24.920 -29.677   6.395  0.00  0.00    +0.041 C 
ATOM     17 CL   LIG    1       24.114 -28.682   5.219  0.00  0.00    -0.084 Cl
ATOM     18  C   LIG    1       26.417 -33.248   6.772  0.00  0.00    +0.011 C 
ATOM     19  C   LIG    1       25.010 -29.208   7.646  0.00  0.00    -0.003 C 
ATOM     20  C   LIG    1       23.296 -30.097   9.976  0.00  0.00    +0.008 C 
ATOM     21  C   LIG    1       25.464 -32.116  10.792  0.00  0.00    +0.010 C 
ATOM     22  C   LIG    1       22.830 -30.595  11.350  0.00  0.00    +0.043 C 
ENDROOT
BRANCH   1  24
ATOM     23  C   LIG    1       24.393 -29.314  14.550  0.00  0.00    +0.089 C 
ATOM     24  C   LIG    1       23.957 -29.240  13.105  0.00  0.00    +0.162 C 
ATOM     25  O   LIG    1       23.485 -28.192  12.660  0.00  0.00    -0.295 OA
ENDBRANCH   1  24
BRANCH   1  26
ATOM     26  O   LIG    1       24.034 -31.673  13.146  0.00  0.00    -0.381 OA
ATOM     27  H   LIG    1       24.913 -31.755  13.557  0.00  0.00    +0.211 HD
ENDBRANCH   1  26
TORSDOF 2
ENDMDL
MODEL 2
REMARK VINA RESULT:      -5.6      2.307      7.066
REMARK  Name = *****
REMARK                            x       y       z     vdW  Elec       q    Type
REMARK                         _______ _______ _______ _____ _____    ______ ____
ROOT
ATOM      1  C   LIG    1       24.960 -32.879   6.899  0.00  0.00    +0.129 C 
ATOM      2  C   LIG    1       24.642 -31.506   7.580  0.00  0.00    +0.007 C 
ATOM      3  C   LIG    1       24.175 -30.441   6.568  0.00  0.00    +0.014 C 
ATOM      4  C   LIG    1       25.981 -31.146   8.246  0.00  0.00    +0.005 C 
ATOM      5  C   LIG    1       25.927 -29.974   9.258  0.00  0.00    +0.021 C 
ATOM      6  C   LIG    1       24.676 -29.843  10.174  0.00  0.00    +0.007 C 
ATOM      7  C   LIG    1       23.387 -30.428   9.555  0.00  0.00    +0.005 C 
ATOM      8  C   LIG    1       24.904 -30.149  11.711  0.00  0.00    +0.001 C 
ATOM      9  C   LIG    1       25.069 -31.656  12.020  0.00  0.00    +0.017 C 
ATOM     10  C   LIG    1       26.201 -29.454  12.191  0.00  0.00    -0.020 C 
ATOM     11  C   LIG    1       26.285 -28.764  13.346  0.00  0.00    +0.052 C 
ATOM     12  C   LIG    1       25.147 -28.545  14.260  0.00  0.00    +0.160 C 
ATOM     13  O   LIG    1       25.291 -28.007  15.348  0.00  0.00    -0.292 OA
ATOM     14  C   LIG    1       23.812 -28.953  13.786  0.00  0.00    +0.064 C 
ATOM     15  C   LIG    1       23.211 -28.259  12.585  0.00  0.00    +0.016 C 
ATOM     16  C   LIG    1       27.354 -29.583  11.305  0.00  0.00    +0.041 C 
ATOM     17 CL   LIG    1       28.963 -29.471  11.953  0.00  0.00    -0.084 Cl
ATOM     18  C   LIG    1       23.651 -29.701  12.489  0.00  0.00    +0.011 C 
ATOM     19  C   LIG    1       27.231 -29.823   9.992  0.00  0.00    -0.003 C 
ATOM     20  C   LIG    1       26.520 -32.494   8.760  0.00  0.00    +0.008 C 
ATOM     21  C   LIG    1       23.563 -31.664   8.682  0.00  0.00    +0.010 C 
ATOM     22  C   LIG    1       25.856 -33.594   7.923  0.00  0.00    +0.043 C 
ENDROOT
BRANCH   1  24
ATOM     23  C   LIG    1       24.990 -33.200   4.305  0.00  0.00    +0.089 C 
ATOM     24  C   LIG    1       25.748 -32.831   5.558  0.00  0.00    +0.162 C 
ATOM     25  O   LIG    1       26.951 -32.571   5.493  0.00  0.00    -0.295 OA
ENDBRANCH   1  24
BRANCH   1  26
ATOM     26  O   LIG    1       23.764 -33.634   6.717  0.00  0.00    -0.381 OA
ATOM     27  H   LIG    1       23.595 -33.704   5.760  0.00  0.00    +0.211 HD
ENDBRANCH   1  26
TORSDOF 2
ENDMDL
MODEL 3
REMARK VINA RESULT:      -5.5      2.687      3.926
REMARK  Name = *****
REMARK                            x       y       z     vdW  Elec       q    Type
REMARK                         _______ _______ _______ _____ _____    ______ ____
ROOT
ATOM      1  C   LIG    1       27.478 -28.858  13.623  0.00  0.00    +0.129 C 
ATOM      2  C   LIG    1       26.721 -28.544  12.289  0.00  0.00    +0.007 C 
ATOM      3  C   LIG    1       26.450 -27.039  12.107  0.00  0.00    +0.014 C 
ATOM      4  C   LIG    1       25.431 -29.369  12.436  0.00  0.00    +0.005 C 
ATOM      5  C   LIG    1       24.582 -29.512  11.147  0.00  0.00    +0.021 C 
ATOM      6  C   LIG    1       25.322 -29.677   9.788  0.00  0.00    +0.007 C 
ATOM      7  C   LIG    1       26.723 -29.026   9.757  0.00  0.00    +0.005 C 
ATOM      8  C   LIG    1       25.208 -31.100   9.102  0.00  0.00    +0.001 C 
ATOM      9  C   LIG    1       26.069 -32.186   9.791  0.00  0.00    +0.017 C 
ATOM     10  C   LIG    1       23.742 -31.591   9.167  0.00  0.00    -0.020 C 
ATOM     11  C   LIG    1       23.102 -32.146   8.119  0.00  0.00    +0.052 C 
ATOM     12  C   LIG    1       23.700 -32.307   6.779  0.00  0.00    +0.160 C 
ATOM     13  O   LIG    1       23.125 -32.913   5.888  0.00  0.00    -0.292 OA
ATOM     14  C   LIG    1       25.001 -31.657   6.538  0.00  0.00    +0.064 C 
ATOM     15  C   LIG    1       25.095 -30.150   6.595  0.00  0.00    +0.016 C 
ATOM     16  C   LIG    1       23.070 -31.410  10.451  0.00  0.00    +0.041 C 
ATOM     17 CL   LIG    1       21.749 -32.451  10.892  0.00  0.00    -0.084 Cl
ATOM     18  C   LIG    1       25.751 -30.993   7.663  0.00  0.00    +0.011 C 
ATOM     19  C   LIG    1       23.451 -30.484  11.340  0.00  0.00    -0.003 C 
ATOM     20  C   LIG    1       25.889 -30.667  13.123  0.00  0.00    +0.008 C 
ATOM     21  C   LIG    1       27.511 -29.067  11.061  0.00  0.00    +0.010 C 
ATOM     22  C   LIG    1       27.199 -30.352  13.857  0.00  0.00    +0.043 C 
ENDROOT
BRANCH   1  24
ATOM     23  C   LIG    1       27.913 -27.024  15.434  0.00  0.00    +0.089 C 
ATOM     24  C   LIG    1       27.000 -28.100  14.896  0.00  0.00    +0.162 C 
ATOM     25  O   LIG    1       25.963 -28.383  15.497  0.00  0.00    -0.295 OA
ENDBRANCH   1  24
BRANCH   1  26
ATOM     26  O   LIG    1       28.881 -28.665  13.457  0.00  0.00    -0.381 OA
ATOM     27  H   LIG    1       29.012 -27.886  12.888  0.00  0.00    +0.211 HD
ENDBRANCH   1  26
TORSDOF 2
ENDMDL
MODEL 4
REMARK VINA RESULT:      -5.3      1.074      1.160
REMARK  Name = *****
REMARK                            x       y       z     vdW  Elec       q    Type
REMARK                         _______ _______ _______ _____ _____    ______ ____
ROOT
ATOM      1  C   LIG    1       22.676 -30.721  12.517  0.00  0.00    +0.129 C 
ATOM      2  C   LIG    1       24.059 -30.854  11.795  0.00  0.00    +0.007 C 
ATOM      3  C   LIG    1       25.227 -30.349  12.663  0.00  0.00    +0.014 C 
ATOM      4  C   LIG    1       23.854 -30.012  10.524  0.00  0.00    +0.005 C 
ATOM      5  C   LIG    1       24.945 -30.172   9.436  0.00  0.00    +0.021 C 
ATOM      6  C   LIG    1       25.556 -31.584   9.202  0.00  0.00    +0.007 C 
ATOM      7  C   LIG    1       25.534 -32.488  10.454  0.00  0.00    +0.005 C 
ATOM      8  C   LIG    1       25.174 -32.289   7.836  0.00  0.00    +0.001 C 
ATOM      9  C   LIG    1       23.724 -32.826   7.804  0.00  0.00    +0.017 C 
ATOM     10  C   LIG    1       25.295 -31.272   6.676  0.00  0.00    -0.020 C 
ATOM     11  C   LIG    1       25.889 -31.559   5.500  0.00  0.00    +0.052 C 
ATOM     12  C   LIG    1       26.535 -32.851   5.197  0.00  0.00    +0.160 C 
ATOM     13  O   LIG    1       26.965 -33.108   4.082  0.00  0.00    -0.292 OA
ATOM     14  C   LIG    1       26.693 -33.805   6.310  0.00  0.00    +0.064 C 
ATOM     15  C   LIG    1       27.575 -33.435   7.480  0.00  0.00    +0.016 C 
ATOM     16  C   LIG    1       24.725 -29.951   6.930  0.00  0.00    +0.041 C 
ATOM     17 CL   LIG    1       24.186 -28.970   5.600  0.00  0.00    -0.084 Cl
ATOM     18  C   LIG    1       26.078 -33.526   7.656  0.00  0.00    +0.011 C 
ATOM     19  C   LIG    1       24.562 -29.463   8.166  0.00  0.00    -0.003 C 
ATOM     20  C   LIG    1       22.400 -30.302  10.110  0.00  0.00    +0.008 C 
ATOM     21  C   LIG    1       24.335 -32.323  11.380  0.00  0.00    +0.010 C 
ATOM     22  C   LIG    1       21.658 -30.774  11.366  0.00  0.00    +0.043 C 
ENDROOT
BRANCH   1  24
ATOM     23  C   LIG    1       22.460 -29.472  14.803  0.00  0.00    +0.089 C 
ATOM     24  C   LIG    1       22.416 -29.398  13.295  0.00  0.00    +0.162 C 
ATOM     25  O   LIG    1       22.123 -28.338  12.741  0.00  0.00    -0.295 OA
ENDBRANCH   1  24
BRANCH   1  26
ATOM     26  O   LIG    1       22.459 -31.831  13.386  0.00  0.00    -0.381 OA
ATOM     27  H   LIG    1       23.103 -32.524  13.155  0.00  0.00    +0.211 HD
ENDBRANCH   1  26
TORSDOF 2
ENDMDL
MODEL 5
REMARK VINA RESULT:      -5.2      4.691      7.280
REMARK  Name = *****
REMARK                            x       y       z     vdW  Elec       q    Type
REMARK                         _______ _______ _______ _____ _____    ______ ____
ROOT
ATOM      1  C   LIG    1       21.439 -32.163  13.176  0.00  0.00    +0.129 C 
ATOM      2  C   LIG    1       21.648 -30.663  12.779  0.00  0.00    +0.007 C 
ATOM      3  C   LIG    1       20.488 -30.112  11.928  0.00  0.00    +0.014 C 
ATOM      4  C   LIG    1       22.982 -30.703  12.014  0.00  0.00    +0.005 C 
ATOM      5  C   LIG    1       23.628 -29.323  11.732  0.00  0.00    +0.021 C 
ATOM      6  C   LIG    1       23.525 -28.219  12.824  0.00  0.00    +0.007 C 
ATOM      7  C   LIG    1       22.279 -28.351  13.727  0.00  0.00    +0.005 C 
ATOM      8  C   LIG    1       24.875 -27.843  13.563  0.00  0.00    +0.001 C 
ATOM      9  C   LIG    1       25.340 -28.914  14.578  0.00  0.00    +0.017 C 
ATOM     10  C   LIG    1       26.011 -27.696  12.522  0.00  0.00    -0.020 C 
ATOM     11  C   LIG    1       26.894 -26.678  12.532  0.00  0.00    +0.052 C 
ATOM     12  C   LIG    1       26.855 -25.562  13.497  0.00  0.00    +0.160 C 
ATOM     13  O   LIG    1       27.738 -24.718  13.538  0.00  0.00    -0.292 OA
ATOM     14  C   LIG    1       25.676 -25.471  14.377  0.00  0.00    +0.064 C 
ATOM     15  C   LIG    1       24.316 -25.227  13.765  0.00  0.00    +0.016 C 
ATOM     16  C   LIG    1       26.074 -28.740  11.502  0.00  0.00    +0.041 C 
ATOM     17 CL   LIG    1       27.586 -29.099  10.722  0.00  0.00    -0.084 Cl
ATOM     18  C   LIG    1       24.639 -26.564  14.389  0.00  0.00    +0.011 C 
ATOM     19  C   LIG    1       25.009 -29.472  11.154  0.00  0.00    -0.003 C 
ATOM     20  C   LIG    1       23.828 -31.731  12.784  0.00  0.00    +0.008 C 
ATOM     21  C   LIG    1       21.821 -29.771  14.036  0.00  0.00    +0.010 C 
ATOM     22  C   LIG    1       22.854 -32.643  13.540  0.00  0.00    +0.043 C 
ENDROOT
BRANCH   1  24
ATOM     23  C   LIG    1       19.480 -33.590  12.197  0.00  0.00    +0.089 C 
ATOM     24  C   LIG    1       20.907 -33.114  12.064  0.00  0.00    +0.162 C 
ATOM     25  O   LIG    1       21.609 -33.530  11.141  0.00  0.00    -0.295 OA
ENDBRANCH   1  24
BRANCH   1  26
ATOM     26  O   LIG    1       20.601 -32.263  14.325  0.00  0.00    -0.381 OA
ATOM     27  H   LIG    1       21.172 -32.391  15.103  0.00  0.00    +0.211 HD
ENDBRANCH   1  26
TORSDOF 2
ENDMDL
MODEL 6
REMARK VINA RESULT:      -5.2      2.528      3.623
REMARK  Name = *****
REMARK                            x       y       z     vdW  Elec       q    Type
REMARK                         _______ _______ _______ _____ _____    ______ ____
ROOT
ATOM      1  C   LIG    1       26.506 -28.110  14.344  0.00  0.00    +0.129 C 
ATOM      2  C   LIG    1       26.859 -29.191  13.268  0.00  0.00    +0.007 C 
ATOM      3  C   LIG    1       28.222 -29.860  13.530  0.00  0.00    +0.014 C 
ATOM      4  C   LIG    1       26.834 -28.381  11.960  0.00  0.00    +0.005 C 
ATOM      5  C   LIG    1       26.857 -29.220  10.658  0.00  0.00    +0.021 C 
ATOM      6  C   LIG    1       26.059 -30.556  10.623  0.00  0.00    +0.007 C 
ATOM      7  C   LIG    1       25.908 -31.228  12.006  0.00  0.00    +0.005 C 
ATOM      8  C   LIG    1       24.770 -30.573   9.704  0.00  0.00    +0.001 C 
ATOM      9  C   LIG    1       23.578 -29.787  10.301  0.00  0.00    +0.017 C 
ATOM     10  C   LIG    1       25.096 -29.916   8.342  0.00  0.00    -0.020 C 
ATOM     11  C   LIG    1       24.719 -30.441   7.158  0.00  0.00    +0.052 C 
ATOM     12  C   LIG    1       24.000 -31.722   7.018  0.00  0.00    +0.160 C 
ATOM     13  O   LIG    1       23.582 -32.109   5.936  0.00  0.00    -0.292 OA
ATOM     14  C   LIG    1       23.852 -32.551   8.228  0.00  0.00    +0.064 C 
ATOM     15  C   LIG    1       25.087 -33.112   8.894  0.00  0.00    +0.016 C 
ATOM     16  C   LIG    1       25.856 -28.670   8.405  0.00  0.00    +0.041 C 
ATOM     17 CL   LIG    1       25.728 -27.510   7.117  0.00  0.00    -0.084 Cl
ATOM     18  C   LIG    1       24.282 -32.030   9.574  0.00  0.00    +0.011 C 
ATOM     19  C   LIG    1       26.639 -28.356   9.446  0.00  0.00    -0.003 C 
ATOM     20  C   LIG    1       25.662 -27.402  12.146  0.00  0.00    +0.008 C 
ATOM     21  C   LIG    1       25.764 -30.287  13.197  0.00  0.00    +0.010 C 
ATOM     22  C   LIG    1       25.437 -27.247  13.655  0.00  0.00    +0.043 C 
ENDROOT
BRANCH   1  24
ATOM     23  C   LIG    1       27.546 -25.711  14.341  0.00  0.00    +0.089 C 
ATOM     24  C   LIG    1       27.655 -27.153  14.778  0.00  0.00    +0.162 C 
ATOM     25  O   LIG    1       28.651 -27.534  15.394  0.00  0.00    -0.295 OA
ENDBRANCH   1  24
BRANCH   1  26
ATOM     26  O   LIG    1       25.939 -28.723  15.500  0.00  0.00    -0.381 OA
ATOM     27  H   LIG    1       25.304 -28.097  15.891  0.00  0.00    +0.211 HD
ENDBRANCH   1  26
TORSDOF 2
ENDMDL
MODEL 7
REMARK VINA RESULT:      -5.2      2.066      3.224
REMARK  Name = *****
REMARK                            x       y       z     vdW  Elec       q    Type
REMARK                         _______ _______ _______ _____ _____    ______ ____
ROOT
ATOM      1  C   LIG    1       25.951 -29.225  11.906  0.00  0.00    +0.129 C 
ATOM      2  C   LIG    1       25.327 -30.501  11.249  0.00  0.00    +0.007 C 
ATOM      3  C   LIG    1       24.787 -31.497  12.292  0.00  0.00    +0.014 C 
ATOM      4  C   LIG    1       26.504 -31.068  10.437  0.00  0.00    +0.005 C 
ATOM      5  C   LIG    1       26.138 -32.182   9.424  0.00  0.00    +0.021 C 
ATOM      6  C   LIG    1       24.794 -32.065   8.647  0.00  0.00    +0.007 C 
ATOM      7  C   LIG    1       23.701 -31.283   9.408  0.00  0.00    +0.005 C 
ATOM      8  C   LIG    1       24.911 -31.757   7.098  0.00  0.00    +0.001 C 
ATOM      9  C   LIG    1       25.306 -30.293   6.790  0.00  0.00    +0.017 C 
ATOM     10  C   LIG    1       26.007 -32.652   6.473  0.00  0.00    -0.020 C 
ATOM     11  C   LIG    1       25.846 -33.312   5.308  0.00  0.00    +0.052 C 
ATOM     12  C   LIG    1       24.598 -33.301   4.520  0.00  0.00    +0.160 C 
ATOM     13  O   LIG    1       24.531 -33.824   3.417  0.00  0.00    -0.292 OA
ATOM     14  C   LIG    1       23.413 -32.681   5.140  0.00  0.00    +0.064 C 
ATOM     15  C   LIG    1       22.829 -33.295   6.391  0.00  0.00    +0.016 C 
ATOM     16  C   LIG    1       27.251 -32.753   7.231  0.00  0.00    +0.041 C 
ATOM     17 CL   LIG    1       28.738 -33.125   6.410  0.00  0.00    -0.084 Cl
ATOM     18  C   LIG    1       23.524 -31.955   6.456  0.00  0.00    +0.011 C 
ATOM     19  C   LIG    1       27.311 -32.535   8.551  0.00  0.00    -0.003 C 
ATOM     20  C   LIG    1       27.216 -29.820   9.883  0.00  0.00    +0.008 C 
ATOM     21  C   LIG    1       24.183 -30.123  10.272  0.00  0.00    +0.010 C 
ATOM     22  C   LIG    1       26.848 -28.647  10.799  0.00  0.00    +0.043 C 
ENDROOT
BRANCH   1  24
ATOM     23  C   LIG    1       26.486 -28.698  14.410  0.00  0.00    +0.089 C 
ATOM     24  C   LIG    1       26.855 -29.450  13.154  0.00  0.00    +0.162 C 
ATOM     25  O   LIG    1       27.867 -30.151  13.133  0.00  0.00    -0.295 OA
ENDBRANCH   1  24
BRANCH   1  26
ATOM     26  O   LIG    1       24.933 -28.278  12.225  0.00  0.00    -0.381 OA
ATOM     27  H   LIG    1       25.279 -27.686  12.916  0.00  0.00    +0.211 HD
ENDBRANCH   1  26
TORSDOF 2
ENDMDL
MODEL 8
REMARK VINA RESULT:      -5.2      4.219      8.197
REMARK  Name = *****
REMARK                            x       y       z     vdW  Elec       q    Type
REMARK                         _______ _______ _______ _____ _____    ______ ____
ROOT
ATOM      1  C   LIG    1       25.137 -30.369  11.791  0.00  0.00    +0.129 C 
ATOM      2  C   LIG    1       23.643 -30.249  11.337  0.00  0.00    +0.007 C 
ATOM      3  C   LIG    1       23.502 -30.075   9.813  0.00  0.00    +0.014 C 
ATOM      4  C   LIG    1       23.153 -29.022  12.125  0.00  0.00    +0.005 C 
ATOM      5  C   LIG    1       21.620 -28.801  12.128  0.00  0.00    +0.021 C 
ATOM      6  C   LIG    1       20.692 -30.049  12.203  0.00  0.00    +0.007 C 
ATOM      7  C   LIG    1       21.317 -31.327  11.602  0.00  0.00    +0.005 C 
ATOM      8  C   LIG    1       19.895 -30.242  13.559  0.00  0.00    +0.001 C 
ATOM      9  C   LIG    1       20.781 -30.733  14.729  0.00  0.00    +0.017 C 
ATOM     10  C   LIG    1       19.288 -28.889  14.000  0.00  0.00    -0.020 C 
ATOM     11  C   LIG    1       18.022 -28.756  14.442  0.00  0.00    +0.052 C 
ATOM     12  C   LIG    1       17.052 -29.867  14.509  0.00  0.00    +0.160 C 
ATOM     13  O   LIG    1       15.949 -29.727  15.017  0.00  0.00    -0.292 OA
ATOM     14  C   LIG    1       17.445 -31.145  13.889  0.00  0.00    +0.064 C 
ATOM     15  C   LIG    1       17.675 -31.200  12.396  0.00  0.00    +0.016 C 
ATOM     16  C   LIG    1       20.178 -27.734  13.905  0.00  0.00    +0.041 C 
ATOM     17 CL   LIG    1       19.921 -26.355  14.932  0.00  0.00    -0.084 Cl
ATOM     18  C   LIG    1       18.837 -31.343  13.349  0.00  0.00    +0.011 C 
ATOM     19  C   LIG    1       21.226 -27.699  13.072  0.00  0.00    -0.003 C 
ATOM     20  C   LIG    1       23.848 -29.150  13.493  0.00  0.00    +0.008 C 
ATOM     21  C   LIG    1       22.822 -31.487  11.783  0.00  0.00    +0.010 C 
ATOM     22  C   LIG    1       25.092 -30.023  13.288  0.00  0.00    +0.043 C 
ENDROOT
BRANCH   1  24
ATOM     23  C   LIG    1       27.025 -29.956  10.031  0.00  0.00    +0.089 C 
ATOM     24  C   LIG    1       26.151 -29.393  11.127  0.00  0.00    +0.162 C 
ATOM     25  O   LIG    1       26.305 -28.229  11.497  0.00  0.00    -0.295 OA
ENDBRANCH   1  24
BRANCH   1  26
ATOM     26  O   LIG    1       25.599 -31.709  11.634  0.00  0.00    -0.381 OA
ATOM     27  H   LIG    1       25.336 -32.017  10.748  0.00  0.00    +0.211 HD
ENDBRANCH   1  26
TORSDOF 2
ENDMDL
MODEL 9
REMARK VINA RESULT:      -5.0      5.404      8.432
REMARK  Name = *****
REMARK                            x       y       z     vdW  Elec       q    Type
REMARK                         _______ _______ _______ _____ _____    ______ ____
ROOT
ATOM      1  C   LIG    1       27.239 -29.136  12.982  0.00  0.00    +0.129 C 
ATOM      2  C   LIG    1       26.165 -28.519  13.939  0.00  0.00    +0.007 C 
ATOM      3  C   LIG    1       26.793 -27.871  15.188  0.00  0.00    +0.014 C 
ATOM      4  C   LIG    1       25.283 -29.733  14.278  0.00  0.00    +0.005 C 
ATOM      5  C   LIG    1       23.942 -29.405  14.982  0.00  0.00    +0.021 C 
ATOM      6  C   LIG    1       23.169 -28.127  14.545  0.00  0.00    +0.007 C 
ATOM      7  C   LIG    1       24.078 -27.008  13.992  0.00  0.00    +0.005 C 
ATOM      8  C   LIG    1       21.815 -28.368  13.759  0.00  0.00    +0.001 C 
ATOM      9  C   LIG    1       22.026 -28.833  12.298  0.00  0.00    +0.017 C 
ATOM     10  C   LIG    1       20.997 -29.476  14.463  0.00  0.00    -0.020 C 
ATOM     11  C   LIG    1       19.673 -29.379  14.700  0.00  0.00    +0.052 C 
ATOM     12  C   LIG    1       18.861 -28.194  14.365  0.00  0.00    +0.160 C 
ATOM     13  O   LIG    1       17.645 -28.190  14.498  0.00  0.00    -0.292 OA
ATOM     14  C   LIG    1       19.579 -26.988  13.914  0.00  0.00    +0.064 C 
ATOM     15  C   LIG    1       20.524 -26.292  14.867  0.00  0.00    +0.016 C 
ATOM     16  C   LIG    1       21.751 -30.657  14.873  0.00  0.00    +0.041 C 
ATOM     17 CL   LIG    1       20.943 -32.187  15.042  0.00  0.00    -0.084 Cl
ATOM     18  C   LIG    1       21.063 -27.025  13.661  0.00  0.00    +0.011 C 
ATOM     19  C   LIG    1       23.072 -30.627  15.098  0.00  0.00    -0.003 C 
ATOM     20  C   LIG    1       25.210 -30.525  12.960  0.00  0.00    +0.008 C 
ATOM     21  C   LIG    1       25.300 -27.464  13.203  0.00  0.00    +0.010 C 
ATOM     22  C   LIG    1       26.436 -30.131  12.127  0.00  0.00    +0.043 C 
ENDROOT
BRANCH   1  24
ATOM     23  C   LIG    1       29.805 -29.503  13.325  0.00  0.00    +0.089 C 
ATOM     24  C   LIG    1       28.395 -29.938  13.649  0.00  0.00    +0.162 C 
ATOM     25  O   LIG    1       28.206 -30.925  14.361  0.00  0.00    -0.295 OA
ENDBRANCH   1  24
BRANCH   1  26
ATOM     26  O   LIG    1       27.789 -28.130  12.135  0.00  0.00    -0.381 OA
ATOM     27  H   LIG    1       27.124 -27.426  12.033  0.00  0.00    +0.211 HD
ENDBRANCH   1  26
TORSDOF 2
ENDMDL
