MODEL 1
REMARK VINA RESULT:      -7.9      0.000      0.000
REMARK  Name = *****
REMARK                            x       y       z     vdW  Elec       q    Type
REMARK                         _______ _______ _______ _____ _____    ______ ____
ROOT
ATOM      1  C   LIG    1       26.120 -21.110   6.160  0.00  0.00    +0.065 C 
ENDROOT
BRANCH   1   2
ATOM      2  C   LIG    1       25.325 -21.653   7.437  0.00  0.00    +0.074 C 
ATOM      3  C   LIG    1       23.783 -21.554   7.337  0.00  0.00    +0.035 C 
ATOM      4  C   LIG    1       23.157 -22.562   6.380  0.00  0.00    +0.003 C 
ATOM      5  C   LIG    1       23.533 -23.987   6.768  0.00  0.00    +0.000 C 
ATOM      6  C   LIG    1       25.046 -24.153   6.845  0.00  0.00    +0.003 C 
ATOM      7  C   LIG    1       25.666 -23.130   7.796  0.00  0.00    +0.035 C 
BRANCH   2   8
ATOM      8  O   LIG    1       25.651 -20.830   8.576  0.00  0.00    -0.388 OA
ATOM      9  H   LIG    1       25.615 -21.394   9.369  0.00  0.00    +0.210 HD
ENDBRANCH   2   8
ENDBRANCH   1   2
BRANCH   1  10
ATOM     10  C   LIG    1       27.538 -20.684   6.572  0.00  0.00    -0.040 A 
ATOM     11  C   LIG    1       28.142 -19.559   5.988  0.00  0.00    +0.007 A 
ATOM     12  C   LIG    1       29.457 -19.208   6.303  0.00  0.00    +0.045 A 
ATOM     13  C   LIG    1       30.177 -19.977   7.216  0.00  0.00    +0.117 A 
ATOM     14  C   LIG    1       29.594 -21.072   7.832  0.00  0.00    +0.045 A 
ATOM     15  C   LIG    1       28.282 -21.423   7.514  0.00  0.00    +0.007 A 
BRANCH  13  16
ATOM     16  O   LIG    1       31.467 -19.618   7.474  0.00  0.00    -0.507 OA
ATOM     17  H   LIG    1       31.823 -20.216   8.153  0.00  0.00    +0.292 HD
ENDBRANCH  13  16
ENDBRANCH   1  10
BRANCH   1  18
ATOM     18  C   LIG    1       25.347 -19.956   5.415  0.00  0.00    +0.094 C 
BRANCH  18  20
ATOM     19  C   LIG    1       24.144 -20.618   3.432  0.00  0.00    +0.104 C 
ATOM     20  N   LIG    1       25.331 -19.900   3.927  0.00  0.00    -0.308 NA
ATOM     21  C   LIG    1       25.310 -18.550   3.366  0.00  0.00    +0.104 C 
ENDBRANCH  18  20
ENDBRANCH   1  18
TORSDOF 6
ENDMDL
MODEL 2
REMARK VINA RESULT:      -7.6      3.059      5.548
REMARK  Name = *****
REMARK                            x       y       z     vdW  Elec       q    Type
REMARK                         _______ _______ _______ _____ _____    ______ ____
ROOT
ATOM      1  C   LIG    1       25.081 -23.107   6.103  0.00  0.00    +0.065 C 
ENDROOT
BRANCH   1   2
ATOM      2  C   LIG    1       23.525 -22.811   6.325  0.00  0.00    +0.074 C 
ATOM      3  C   LIG    1       23.201 -21.876   7.517  0.00  0.00    +0.035 C 
ATOM      4  C   LIG    1       23.559 -20.415   7.274  0.00  0.00    +0.003 C 
ATOM      5  C   LIG    1       22.858 -19.882   6.029  0.00  0.00    +0.000 C 
ATOM      6  C   LIG    1       23.172 -20.746   4.813  0.00  0.00    +0.003 C 
ATOM      7  C   LIG    1       22.824 -22.211   5.071  0.00  0.00    +0.035 C 
BRANCH   2   8
ATOM      8  O   LIG    1       22.857 -24.044   6.663  0.00  0.00    -0.388 OA
ATOM      9  H   LIG    1       23.541 -24.696   6.898  0.00  0.00    +0.210 HD
ENDBRANCH   2   8
ENDBRANCH   1   2
BRANCH   1  10
ATOM     10  C   LIG    1       25.303 -24.618   5.929  0.00  0.00    -0.040 A 
ATOM     11  C   LIG    1       25.737 -25.403   7.009  0.00  0.00    +0.007 A 
ATOM     12  C   LIG    1       26.012 -26.762   6.841  0.00  0.00    +0.045 A 
ATOM     13  C   LIG    1       25.845 -27.351   5.588  0.00  0.00    +0.117 A 
ATOM     14  C   LIG    1       25.385 -26.607   4.514  0.00  0.00    +0.045 A 
ATOM     15  C   LIG    1       25.115 -25.249   4.683  0.00  0.00    +0.007 A 
BRANCH  13  16
ATOM     16  O   LIG    1       26.151 -28.673   5.460  0.00  0.00    -0.507 OA
ATOM     17  H   LIG    1       25.397 -29.124   5.044  0.00  0.00    +0.292 HD
ENDBRANCH  13  16
ENDBRANCH   1  10
BRANCH   1  18
ATOM     18  C   LIG    1       25.979 -22.504   7.249  0.00  0.00    +0.094 C 
BRANCH  18  20
ATOM     19  C   LIG    1       26.858 -20.499   6.236  0.00  0.00    +0.104 C 
ATOM     20  N   LIG    1       27.222 -21.754   6.915  0.00  0.00    -0.308 NA
ATOM     21  C   LIG    1       28.061 -21.420   8.065  0.00  0.00    +0.104 C 
ENDBRANCH  18  20
ENDBRANCH   1  18
TORSDOF 6
ENDMDL
MODEL 3
REMARK VINA RESULT:      -7.5      1.934      3.912
REMARK  Name = *****
REMARK                            x       y       z     vdW  Elec       q    Type
REMARK                         _______ _______ _______ _____ _____    ______ ____
ROOT
ATOM      1  C   LIG    1       24.976 -20.798   6.326  0.00  0.00    +0.065 C 
ENDROOT
BRANCH   1   2
ATOM      2  C   LIG    1       24.498 -20.898   4.803  0.00  0.00    +0.074 C 
ATOM      3  C   LIG    1       22.967 -21.019   4.606  0.00  0.00    +0.035 C 
ATOM      4  C   LIG    1       22.202 -19.729   4.878  0.00  0.00    +0.003 C 
ATOM      5  C   LIG    1       22.721 -18.594   4.002  0.00  0.00    +0.000 C 
ATOM      6  C   LIG    1       24.223 -18.405   4.184  0.00  0.00    +0.003 C 
ATOM      7  C   LIG    1       24.979 -19.707   3.924  0.00  0.00    +0.035 C 
BRANCH   2   8
ATOM      8  O   LIG    1       25.018 -22.115   4.229  0.00  0.00    -0.388 OA
ATOM      9  H   LIG    1       24.435 -22.366   3.489  0.00  0.00    +0.210 HD
ENDBRANCH   2   8
ENDBRANCH   1   2
BRANCH   1  10
ATOM     10  C   LIG    1       26.502 -20.615   6.382  0.00  0.00    -0.040 A 
ATOM     11  C   LIG    1       27.262 -21.273   7.361  0.00  0.00    +0.007 A 
ATOM     12  C   LIG    1       28.638 -21.054   7.464  0.00  0.00    +0.045 A 
ATOM     13  C   LIG    1       29.267 -20.180   6.579  0.00  0.00    +0.117 A 
ATOM     14  C   LIG    1       28.546 -19.544   5.583  0.00  0.00    +0.045 A 
ATOM     15  C   LIG    1       27.171 -19.761   5.483  0.00  0.00    +0.007 A 
BRANCH  13  16
ATOM     16  O   LIG    1       30.606 -19.972   6.732  0.00  0.00    -0.507 OA
ATOM     17  H   LIG    1       30.789 -19.832   7.677  0.00  0.00    +0.292 HD
ENDBRANCH  13  16
ENDBRANCH   1  10
BRANCH   1  18
ATOM     18  C   LIG    1       24.495 -22.025   7.190  0.00  0.00    +0.094 C 
BRANCH  18  20
ATOM     19  C   LIG    1       25.480 -24.227   7.172  0.00  0.00    +0.104 C 
ATOM     20  N   LIG    1       24.421 -23.386   6.589  0.00  0.00    -0.308 NA
ATOM     21  C   LIG    1       23.143 -24.070   6.781  0.00  0.00    +0.104 C 
ENDBRANCH  18  20
ENDBRANCH   1  18
TORSDOF 6
ENDMDL
MODEL 4
REMARK VINA RESULT:      -7.3      2.120      5.494
REMARK  Name = *****
REMARK                            x       y       z     vdW  Elec       q    Type
REMARK                         _______ _______ _______ _____ _____    ______ ____
ROOT
ATOM      1  C   LIG    1       26.235 -22.123   6.692  0.00  0.00    +0.065 C 
ENDROOT
BRANCH   1   2
ATOM      2  C   LIG    1       26.975 -21.230   7.794  0.00  0.00    +0.074 C 
ATOM      3  C   LIG    1       28.346 -21.774   8.262  0.00  0.00    +0.035 C 
ATOM      4  C   LIG    1       29.459 -21.622   7.231  0.00  0.00    +0.003 C 
ATOM      5  C   LIG    1       29.624 -20.164   6.820  0.00  0.00    +0.000 C 
ATOM      6  C   LIG    1       28.308 -19.585   6.314  0.00  0.00    +0.003 C 
ATOM      7  C   LIG    1       27.196 -19.755   7.348  0.00  0.00    +0.035 C 
BRANCH   2   8
ATOM      8  O   LIG    1       26.179 -21.218   8.997  0.00  0.00    -0.388 OA
ATOM      9  H   LIG    1       26.619 -20.631   9.638  0.00  0.00    +0.210 HD
ENDBRANCH   2   8
ENDBRANCH   1   2
BRANCH   1  10
ATOM     10  C   LIG    1       25.086 -21.321   6.058  0.00  0.00    -0.040 A 
ATOM     11  C   LIG    1       25.218 -20.791   4.765  0.00  0.00    +0.007 A 
ATOM     12  C   LIG    1       24.208 -20.000   4.210  0.00  0.00    +0.045 A 
ATOM     13  C   LIG    1       23.051 -19.741   4.944  0.00  0.00    +0.117 A 
ATOM     14  C   LIG    1       22.882 -20.280   6.208  0.00  0.00    +0.045 A 
ATOM     15  C   LIG    1       23.892 -21.067   6.762  0.00  0.00    +0.007 A 
BRANCH  13  16
ATOM     16  O   LIG    1       22.104 -18.941   4.378  0.00  0.00    -0.507 OA
ATOM     17  H   LIG    1       21.855 -19.321   3.518  0.00  0.00    +0.292 HD
ENDBRANCH  13  16
ENDBRANCH   1  10
BRANCH   1  18
ATOM     18  C   LIG    1       25.746 -23.506   7.266  0.00  0.00    +0.094 C 
BRANCH  18  20
ATOM     19  C   LIG    1       25.931 -25.825   6.626  0.00  0.00    +0.104 C 
ATOM     20  N   LIG    1       25.228 -24.560   6.350  0.00  0.00    -0.308 NA
ATOM     21  C   LIG    1       23.791 -24.809   6.455  0.00  0.00    +0.104 C 
ENDBRANCH  18  20
ENDBRANCH   1  18
TORSDOF 6
ENDMDL
MODEL 5
REMARK VINA RESULT:      -7.1      2.546      5.108
REMARK  Name = *****
REMARK                            x       y       z     vdW  Elec       q    Type
REMARK                         _______ _______ _______ _____ _____    ______ ____
ROOT
ATOM      1  C   LIG    1       25.611 -22.424   6.450  0.00  0.00    +0.065 C 
ENDROOT
BRANCH   1   2
ATOM      2  C   LIG    1       24.317 -21.901   7.231  0.00  0.00    +0.074 C 
ATOM      3  C   LIG    1       23.962 -20.414   6.985  0.00  0.00    +0.035 C 
ATOM      4  C   LIG    1       23.379 -20.135   5.605  0.00  0.00    +0.003 C 
ATOM      5  C   LIG    1       22.136 -20.983   5.358  0.00  0.00    +0.000 C 
ATOM      6  C   LIG    1       22.437 -22.465   5.551  0.00  0.00    +0.003 C 
ATOM      7  C   LIG    1       23.035 -22.732   6.932  0.00  0.00    +0.035 C 
BRANCH   2   8
ATOM      8  O   LIG    1       24.569 -21.965   8.650  0.00  0.00    -0.388 OA
ATOM      9  H   LIG    1       23.753 -22.276   9.082  0.00  0.00    +0.210 HD
ENDBRANCH   2   8
ENDBRANCH   1   2
BRANCH   1  10
ATOM     10  C   LIG    1       25.483 -23.933   6.183  0.00  0.00    -0.040 A 
ATOM     11  C   LIG    1       25.818 -24.863   7.179  0.00  0.00    +0.007 A 
ATOM     12  C   LIG    1       25.774 -26.235   6.921  0.00  0.00    +0.045 A 
ATOM     13  C   LIG    1       25.384 -26.689   5.661  0.00  0.00    +0.117 A 
ATOM     14  C   LIG    1       25.016 -25.793   4.671  0.00  0.00    +0.045 A 
ATOM     15  C   LIG    1       25.063 -24.423   4.930  0.00  0.00    +0.007 A 
BRANCH  13  16
ATOM     16  O   LIG    1       25.383 -28.034   5.441  0.00  0.00    -0.507 OA
ATOM     17  H   LIG    1       24.461 -28.331   5.359  0.00  0.00    +0.292 HD
ENDBRANCH  13  16
ENDBRANCH   1  10
BRANCH   1  18
ATOM     18  C   LIG    1       26.951 -22.066   7.197  0.00  0.00    +0.094 C 
BRANCH  18  20
ATOM     19  C   LIG    1       29.066 -20.908   7.106  0.00  0.00    +0.104 C 
ATOM     20  N   LIG    1       27.608 -20.748   6.973  0.00  0.00    -0.308 NA
ATOM     21  C   LIG    1       27.336 -20.144   5.670  0.00  0.00    +0.104 C 
ENDBRANCH  18  20
ENDBRANCH   1  18
TORSDOF 6
ENDMDL
MODEL 6
REMARK VINA RESULT:      -6.6      1.729      2.920
REMARK  Name = *****
REMARK                            x       y       z     vdW  Elec       q    Type
REMARK                         _______ _______ _______ _____ _____    ______ ____
ROOT
ATOM      1  C   LIG    1       25.771 -22.186   6.976  0.00  0.00    +0.065 C 
ENDROOT
BRANCH   1   2
ATOM      2  C   LIG    1       24.495 -21.297   7.352  0.00  0.00    +0.074 C 
ATOM      3  C   LIG    1       24.088 -20.254   6.283  0.00  0.00    +0.035 C 
ATOM      4  C   LIG    1       23.441 -20.857   5.042  0.00  0.00    +0.003 C 
ATOM      5  C   LIG    1       22.214 -21.681   5.414  0.00  0.00    +0.000 C 
ATOM      6  C   LIG    1       22.566 -22.753   6.440  0.00  0.00    +0.003 C 
ATOM      7  C   LIG    1       23.227 -22.140   7.674  0.00  0.00    +0.035 C 
BRANCH   2   8
ATOM      8  O   LIG    1       24.807 -20.499   8.513  0.00  0.00    -0.388 OA
ATOM      9  H   LIG    1       25.127 -19.634   8.200  0.00  0.00    +0.210 HD
ENDBRANCH   2   8
ENDBRANCH   1   2
BRANCH   1  10
ATOM     10  C   LIG    1       27.012 -21.287   6.848  0.00  0.00    -0.040 A 
ATOM     11  C   LIG    1       27.109 -20.351   5.808  0.00  0.00    +0.007 A 
ATOM     12  C   LIG    1       28.264 -19.582   5.642  0.00  0.00    +0.045 A 
ATOM     13  C   LIG    1       29.331 -19.740   6.525  0.00  0.00    +0.117 A 
ATOM     14  C   LIG    1       29.248 -20.633   7.580  0.00  0.00    +0.045 A 
ATOM     15  C   LIG    1       28.096 -21.402   7.743  0.00  0.00    +0.007 A 
BRANCH  13  16
ATOM     16  O   LIG    1       30.450 -18.992   6.311  0.00  0.00    -0.507 OA
ATOM     17  H   LIG    1       30.176 -18.098   6.042  0.00  0.00    +0.292 HD
ENDBRANCH  13  16
ENDBRANCH   1  10
BRANCH   1  18
ATOM     18  C   LIG    1       25.537 -23.060   5.686  0.00  0.00    +0.094 C 
BRANCH  18  20
ATOM     19  C   LIG    1       25.691 -25.028   7.073  0.00  0.00    +0.104 C 
ATOM     20  N   LIG    1       25.843 -24.518   5.700  0.00  0.00    -0.308 NA
ATOM     21  C   LIG    1       24.999 -25.327   4.821  0.00  0.00    +0.104 C 
ENDBRANCH  18  20
ENDBRANCH   1  18
TORSDOF 6
ENDMDL
MODEL 7
REMARK VINA RESULT:      -6.6      3.080      5.746
REMARK  Name = *****
REMARK                            x       y       z     vdW  Elec       q    Type
REMARK                         _______ _______ _______ _____ _____    ______ ____
ROOT
ATOM      1  C   LIG    1       24.867 -21.592   5.174  0.00  0.00    +0.065 C 
ENDROOT
BRANCH   1   2
ATOM      2  C   LIG    1       23.965 -21.069   3.960  0.00  0.00    +0.074 C 
ATOM      3  C   LIG    1       22.519 -20.672   4.345  0.00  0.00    +0.035 C 
ATOM      4  C   LIG    1       22.420 -19.368   5.128  0.00  0.00    +0.003 C 
ATOM      5  C   LIG    1       23.054 -18.219   4.351  0.00  0.00    +0.000 C 
ATOM      6  C   LIG    1       24.496 -18.541   3.977  0.00  0.00    +0.003 C 
ATOM      7  C   LIG    1       24.586 -19.857   3.206  0.00  0.00    +0.035 C 
BRANCH   2   8
ATOM      8  O   LIG    1       23.788 -22.142   3.012  0.00  0.00    -0.388 OA
ATOM      9  H   LIG    1       22.837 -22.208   2.813  0.00  0.00    +0.210 HD
ENDBRANCH   2   8
ENDBRANCH   1   2
BRANCH   1  10
ATOM     10  C   LIG    1       24.571 -23.078   5.439  0.00  0.00    -0.040 A 
ATOM     11  C   LIG    1       23.651 -23.455   6.429  0.00  0.00    +0.007 A 
ATOM     12  C   LIG    1       23.432 -24.802   6.726  0.00  0.00    +0.045 A 
ATOM     13  C   LIG    1       24.127 -25.787   6.025  0.00  0.00    +0.117 A 
ATOM     14  C   LIG    1       25.015 -25.442   5.020  0.00  0.00    +0.045 A 
ATOM     15  C   LIG    1       25.236 -24.097   4.726  0.00  0.00    +0.007 A 
BRANCH  13  16
ATOM     16  O   LIG    1       23.905 -27.088   6.365  0.00  0.00    -0.507 OA
ATOM     17  H   LIG    1       24.078 -27.191   7.316  0.00  0.00    +0.292 HD
ENDBRANCH  13  16
ENDBRANCH   1  10
BRANCH   1  18
ATOM     18  C   LIG    1       24.699 -20.714   6.471  0.00  0.00    +0.094 C 
BRANCH  18  20
ATOM     19  C   LIG    1       25.923 -21.262   8.477  0.00  0.00    +0.104 C 
ATOM     20  N   LIG    1       25.885 -20.371   7.305  0.00  0.00    -0.308 NA
ATOM     21  C   LIG    1       27.169 -20.478   6.613  0.00  0.00    +0.104 C 
ENDBRANCH  18  20
ENDBRANCH   1  18
TORSDOF 6
ENDMDL
MODEL 8
REMARK VINA RESULT:      -6.5      2.536      4.197
REMARK  Name = *****
REMARK                            x       y       z     vdW  Elec       q    Type
REMARK                         _______ _______ _______ _____ _____    ______ ____
ROOT
ATOM      1  C   LIG    1       25.168 -23.689   7.301  0.00  0.00    +0.065 C 
ENDROOT
BRANCH   1   2
ATOM      2  C   LIG    1       23.907 -23.283   6.405  0.00  0.00    +0.074 C 
ATOM      3  C   LIG    1       22.962 -22.236   7.044  0.00  0.00    +0.035 C 
ATOM      4  C   LIG    1       23.533 -20.824   7.078  0.00  0.00    +0.003 C 
ATOM      5  C   LIG    1       23.909 -20.355   5.677  0.00  0.00    +0.000 C 
ATOM      6  C   LIG    1       24.871 -21.333   5.012  0.00  0.00    +0.003 C 
ATOM      7  C   LIG    1       24.296 -22.748   4.996  0.00  0.00    +0.035 C 
BRANCH   2   8
ATOM      8  O   LIG    1       23.067 -24.443   6.227  0.00  0.00    -0.388 OA
ATOM      9  H   LIG    1       22.183 -24.131   5.962  0.00  0.00    +0.210 HD
ENDBRANCH   2   8
ENDBRANCH   1   2
BRANCH   1  10
ATOM     10  C   LIG    1       26.047 -22.453   7.554  0.00  0.00    -0.040 A 
ATOM     11  C   LIG    1       27.202 -22.233   6.788  0.00  0.00    +0.007 A 
ATOM     12  C   LIG    1       28.045 -21.152   7.060  0.00  0.00    +0.045 A 
ATOM     13  C   LIG    1       27.732 -20.276   8.098  0.00  0.00    +0.117 A 
ATOM     14  C   LIG    1       26.581 -20.451   8.847  0.00  0.00    +0.045 A 
ATOM     15  C   LIG    1       25.741 -21.532   8.577  0.00  0.00    +0.007 A 
BRANCH  13  16
ATOM     16  O   LIG    1       28.595 -19.251   8.348  0.00  0.00    -0.507 OA
ATOM     17  H   LIG    1       28.524 -18.605   7.625  0.00  0.00    +0.292 HD
ENDBRANCH  13  16
ENDBRANCH   1  10
BRANCH   1  18
ATOM     18  C   LIG    1       25.988 -24.883   6.681  0.00  0.00    +0.094 C 
BRANCH  18  20
ATOM     19  C   LIG    1       25.582 -26.404   4.853  0.00  0.00    +0.104 C 
ATOM     20  N   LIG    1       25.298 -26.139   6.274  0.00  0.00    -0.308 NA
ATOM     21  C   LIG    1       25.682 -27.323   7.041  0.00  0.00    +0.104 C 
ENDBRANCH  18  20
ENDBRANCH   1  18
TORSDOF 6
ENDMDL
MODEL 9
REMARK VINA RESULT:      -6.5      1.261      1.599
REMARK  Name = *****
REMARK                            x       y       z     vdW  Elec       q    Type
REMARK                         _______ _______ _______ _____ _____    ______ ____
ROOT
ATOM      1  C   LIG    1       25.588 -21.660   5.605  0.00  0.00    +0.065 C 
ENDROOT
BRANCH   1   2
ATOM      2  C   LIG    1       24.873 -22.230   6.917  0.00  0.00    +0.074 C 
ATOM      3  C   LIG    1       23.486 -22.874   6.677  0.00  0.00    +0.035 C 
ATOM      4  C   LIG    1       23.543 -24.230   5.984  0.00  0.00    +0.003 C 
ATOM      5  C   LIG    1       24.408 -25.208   6.772  0.00  0.00    +0.000 C 
ATOM      6  C   LIG    1       25.802 -24.639   7.006  0.00  0.00    +0.003 C 
ATOM      7  C   LIG    1       25.734 -23.273   7.688  0.00  0.00    +0.035 C 
BRANCH   2   8
ATOM      8  O   LIG    1       24.594 -21.133   7.811  0.00  0.00    -0.388 OA
ATOM      9  H   LIG    1       25.434 -20.870   8.229  0.00  0.00    +0.210 HD
ENDBRANCH   2   8
ENDBRANCH   1   2
BRANCH   1  10
ATOM     10  C   LIG    1       26.751 -20.737   6.005  0.00  0.00    -0.040 A 
ATOM     11  C   LIG    1       27.288 -19.828   5.080  0.00  0.00    +0.007 A 
ATOM     12  C   LIG    1       28.392 -19.038   5.413  0.00  0.00    +0.045 A 
ATOM     13  C   LIG    1       28.962 -19.145   6.680  0.00  0.00    +0.117 A 
ATOM     14  C   LIG    1       28.430 -20.010   7.622  0.00  0.00    +0.045 A 
ATOM     15  C   LIG    1       27.330 -20.801   7.288  0.00  0.00    +0.007 A 
BRANCH  13  16
ATOM     16  O   LIG    1       30.054 -18.378   6.954  0.00  0.00    -0.507 OA
ATOM     17  H   LIG    1       30.702 -18.924   7.432  0.00  0.00    +0.292 HD
ENDBRANCH  13  16
ENDBRANCH   1  10
BRANCH   1  18
ATOM     18  C   LIG    1       24.577 -20.950   4.627  0.00  0.00    +0.094 C 
BRANCH  18  20
ATOM     19  C   LIG    1       24.080 -18.722   3.844  0.00  0.00    +0.104 C 
ATOM     20  N   LIG    1       23.973 -19.638   4.993  0.00  0.00    -0.308 NA
ATOM     21  C   LIG    1       22.568 -19.703   5.391  0.00  0.00    +0.104 C 
ENDBRANCH  18  20
ENDBRANCH   1  18
TORSDOF 6
ENDMDL
