MODEL 1
REMARK VINA RESULT:       3.3      0.000      0.000
REMARK  Name = *****
REMARK                            x       y       z     vdW  Elec       q    Type
REMARK                         _______ _______ _______ _____ _____    ______ ____
ROOT
ATOM      1  C   LIG    1       25.115 -13.100   3.855  0.00  0.00    +0.122 C 
ATOM      2  C   LIG    1       24.955 -14.188   4.958  0.00  0.00    +0.036 C 
ATOM      3  C   LIG    1       26.356 -14.568   5.534  0.00  0.00    +0.028 C 
ATOM      4  C   LIG    1       27.548 -14.469   4.548  0.00  0.00    +0.058 C 
ATOM      5  N   LIG    1       27.522 -13.109   3.963  0.00  0.00    -0.296 NA
ATOM      6  C   LIG    1       27.456 -15.373   3.319  0.00  0.00    +0.020 C 
ATOM      7  C   LIG    1       26.619 -14.575   2.324  0.00  0.00    +0.021 C 
ATOM      8  C   LIG    1       26.400 -13.219   2.999  0.00  0.00    +0.071 C 
ENDROOT
BRANCH   2   9
ATOM      9  C   LIG    1       24.027 -15.376   4.660  0.00  0.00    -0.043 A 
ATOM     10  C   LIG    1       22.709 -15.400   5.155  0.00  0.00    +0.005 A 
ATOM     11  C   LIG    1       21.851 -16.486   4.915  0.00  0.00    +0.014 A 
ATOM     12  C   LIG    1       22.302 -17.581   4.186  0.00  0.00    +0.013 A 
ATOM     13  I   LIG    1       21.054 -19.192   3.801  0.00  0.00    -0.044 I 
ATOM     14  C   LIG    1       23.606 -17.600   3.716  0.00  0.00    +0.014 A 
ATOM     15  C   LIG    1       24.450 -16.517   3.969  0.00  0.00    +0.005 A 
ENDBRANCH   2   9
BRANCH   1  16
ATOM     16  C   LIG    1       23.887 -12.855   2.987  0.00  0.00    +0.312 C 
ATOM     17  O   LIG    1       23.638 -13.393   1.936  0.00  0.00    -0.251 OA
BRANCH  16  19
ATOM     18  C   LIG    1       23.600 -11.447   4.863  0.00  0.00    +0.280 C 
ATOM     19  O   LIG    1       23.134 -11.874   3.582  0.00  0.00    -0.468 OA
ENDBRANCH  16  19
ENDBRANCH   1  16
BRANCH   5  20
ATOM     20  C   LIG    1       28.823 -12.754   3.363  0.00  0.00    +0.087 C 
BRANCH  20  21
ATOM     21  C   LIG    1       29.471 -11.523   4.002  0.00  0.00    +0.049 C 
BRANCH  21  22
ATOM     22  C   LIG    1       29.475 -11.647   5.516  0.00  0.00    +0.214 C 
ATOM     23  F   LIG    1       28.309 -12.209   5.929  0.00  0.00    -0.249 F 
ENDBRANCH  21  22
ENDBRANCH  20  21
ENDBRANCH   5  20
TORSDOF 6
ENDMDL
MODEL 2
REMARK VINA RESULT:       3.8      2.900      4.216
REMARK  Name = *****
REMARK                            x       y       z     vdW  Elec       q    Type
REMARK                         _______ _______ _______ _____ _____    ______ ____
ROOT
ATOM      1  C   LIG    1       27.585 -16.696   3.744  0.00  0.00    +0.122 C 
ATOM      2  C   LIG    1       26.360 -17.148   2.896  0.00  0.00    +0.036 C 
ATOM      3  C   LIG    1       25.721 -15.911   2.189  0.00  0.00    +0.028 C 
ATOM      4  C   LIG    1       25.830 -14.562   2.944  0.00  0.00    +0.058 C 
ATOM      5  N   LIG    1       27.260 -14.355   3.268  0.00  0.00    -0.296 NA
ATOM      6  C   LIG    1       25.158 -14.525   4.316  0.00  0.00    +0.020 C 
ATOM      7  C   LIG    1       26.205 -15.095   5.267  0.00  0.00    +0.021 C 
ATOM      8  C   LIG    1       27.449 -15.298   4.398  0.00  0.00    +0.071 C 
ENDROOT
BRANCH   2   9
ATOM      9  C   LIG    1       25.362 -18.119   3.544  0.00  0.00    -0.043 A 
ATOM     10  C   LIG    1       25.711 -19.465   3.770  0.00  0.00    +0.005 A 
ATOM     11  C   LIG    1       24.806 -20.375   4.340  0.00  0.00    +0.014 A 
ATOM     12  C   LIG    1       23.523 -19.960   4.682  0.00  0.00    +0.013 A 
ATOM     13  I   LIG    1       22.171 -21.277   5.540  0.00  0.00    -0.044 I 
ATOM     14  C   LIG    1       23.140 -18.650   4.440  0.00  0.00    +0.014 A 
ATOM     15  C   LIG    1       24.048 -17.758   3.865  0.00  0.00    +0.005 A 
ENDBRANCH   2   9
BRANCH   1  16
ATOM     16  C   LIG    1       28.120 -17.724   4.733  0.00  0.00    +0.312 C 
ATOM     17  O   LIG    1       27.861 -18.903   4.746  0.00  0.00    -0.251 OA
BRANCH  16  19
ATOM     18  C   LIG    1       29.474 -17.898   6.661  0.00  0.00    +0.280 C 
ATOM     19  O   LIG    1       28.910 -17.069   5.644  0.00  0.00    -0.468 OA
ENDBRANCH  16  19
ENDBRANCH   1  16
BRANCH   5  20
ATOM     20  C   LIG    1       27.543 -12.942   3.585  0.00  0.00    +0.087 C 
BRANCH  20  21
ATOM     21  C   LIG    1       29.029 -12.658   3.817  0.00  0.00    +0.049 C 
BRANCH  21  22
ATOM     22  C   LIG    1       29.235 -11.941   5.141  0.00  0.00    +0.214 C 
ATOM     23  F   LIG    1       28.506 -12.555   6.109  0.00  0.00    -0.249 F 
ENDBRANCH  21  22
ENDBRANCH  20  21
ENDBRANCH   5  20
TORSDOF 6
ENDMDL
MODEL 3
REMARK VINA RESULT:       3.9      4.401      6.939
REMARK  Name = *****
REMARK                            x       y       z     vdW  Elec       q    Type
REMARK                         _______ _______ _______ _____ _____    ______ ____
ROOT
ATOM      1  C   LIG    1       23.888 -17.940   3.720  0.00  0.00    +0.122 C 
ATOM      2  C   LIG    1       25.120 -17.584   2.837  0.00  0.00    +0.036 C 
ATOM      3  C   LIG    1       25.934 -18.878   2.518  0.00  0.00    +0.028 C 
ATOM      4  C   LIG    1       25.909 -19.984   3.603  0.00  0.00    +0.058 C 
ATOM      5  N   LIG    1       24.487 -20.267   3.907  0.00  0.00    -0.296 NA
ATOM      6  C   LIG    1       26.477 -19.580   4.962  0.00  0.00    +0.020 C 
ATOM      7  C   LIG    1       25.309 -18.909   5.677  0.00  0.00    +0.021 C 
ATOM      8  C   LIG    1       24.118 -19.091   4.732  0.00  0.00    +0.071 C 
ENDROOT
BRANCH   2   9
ATOM      9  C   LIG    1       25.962 -16.365   3.244  0.00  0.00    -0.043 A 
ATOM     10  C   LIG    1       25.570 -15.064   2.874  0.00  0.00    +0.005 A 
ATOM     11  C   LIG    1       26.337 -13.938   3.215  0.00  0.00    +0.014 A 
ATOM     12  C   LIG    1       27.524 -14.093   3.922  0.00  0.00    +0.013 A 
ATOM     13  I   LIG    1       28.670 -12.448   4.453  0.00  0.00    -0.044 I 
ATOM     14  C   LIG    1       27.954 -15.365   4.269  0.00  0.00    +0.014 A 
ATOM     15  C   LIG    1       27.185 -16.476   3.916  0.00  0.00    +0.005 A 
ENDBRANCH   2   9
BRANCH   1  16
ATOM     16  C   LIG    1       23.179 -16.759   4.371  0.00  0.00    +0.312 C 
ATOM     17  O   LIG    1       23.587 -15.625   4.428  0.00  0.00    -0.251 OA
BRANCH  16  19
ATOM     18  C   LIG    1       21.250 -18.098   4.101  0.00  0.00    +0.280 C 
ATOM     19  O   LIG    1       22.013 -17.219   4.931  0.00  0.00    -0.468 OA
ENDBRANCH  16  19
ENDBRANCH   1  16
BRANCH   5  20
ATOM     20  C   LIG    1       24.327 -21.571   4.580  0.00  0.00    +0.087 C 
BRANCH  20  21
ATOM     21  C   LIG    1       23.802 -21.455   6.012  0.00  0.00    +0.049 C 
BRANCH  21  22
ATOM     22  C   LIG    1       22.287 -21.570   6.036  0.00  0.00    +0.214 C 
ATOM     23  F   LIG    1       21.798 -21.392   4.782  0.00  0.00    -0.249 F 
ENDBRANCH  21  22
ENDBRANCH  20  21
ENDBRANCH   5  20
TORSDOF 6
ENDMDL
MODEL 4
REMARK VINA RESULT:       4.0      3.167      4.857
REMARK  Name = *****
REMARK                            x       y       z     vdW  Elec       q    Type
REMARK                         _______ _______ _______ _____ _____    ______ ____
ROOT
ATOM      1  C   LIG    1       26.882 -13.436   3.295  0.00  0.00    +0.122 C 
ATOM      2  C   LIG    1       26.401 -14.837   2.812  0.00  0.00    +0.036 C 
ATOM      3  C   LIG    1       24.849 -14.832   2.638  0.00  0.00    +0.028 C 
ATOM      4  C   LIG    1       24.058 -13.900   3.591  0.00  0.00    +0.058 C 
ATOM      5  N   LIG    1       24.649 -12.547   3.472  0.00  0.00    -0.296 NA
ATOM      6  C   LIG    1       24.209 -14.210   5.080  0.00  0.00    +0.020 C 
ATOM      7  C   LIG    1       25.484 -13.482   5.492  0.00  0.00    +0.021 C 
ATOM      8  C   LIG    1       25.905 -12.700   4.245  0.00  0.00    +0.071 C 
ENDROOT
BRANCH   2   9
ATOM      9  C   LIG    1       26.975 -16.073   3.521  0.00  0.00    -0.043 A 
ATOM     10  C   LIG    1       26.264 -17.288   3.537  0.00  0.00    +0.005 A 
ATOM     11  C   LIG    1       26.760 -18.423   4.199  0.00  0.00    +0.014 A 
ATOM     12  C   LIG    1       27.974 -18.360   4.874  0.00  0.00    +0.013 A 
ATOM     13  I   LIG    1       28.739 -20.024   5.847  0.00  0.00    -0.044 I 
ATOM     14  C   LIG    1       28.679 -17.167   4.905  0.00  0.00    +0.014 A 
ATOM     15  C   LIG    1       28.171 -16.044   4.249  0.00  0.00    +0.005 A 
ENDBRANCH   2   9
BRANCH   1  16
ATOM     16  C   LIG    1       28.315 -13.371   3.808  0.00  0.00    +0.312 C 
ATOM     17  O   LIG    1       29.305 -13.698   3.201  0.00  0.00    -0.251 OA
BRANCH  16  19
ATOM     18  C   LIG    1       29.152 -11.825   5.387  0.00  0.00    +0.280 C 
ATOM     19  O   LIG    1       28.282 -12.924   5.105  0.00  0.00    -0.468 OA
ENDBRANCH  16  19
ENDBRANCH   1  16
BRANCH   5  20
ATOM     20  C   LIG    1       23.730 -11.510   3.979  0.00  0.00    +0.087 C 
BRANCH  20  21
ATOM     21  C   LIG    1       23.670 -11.447   5.507  0.00  0.00    +0.049 C 
BRANCH  21  22
ATOM     22  C   LIG    1       22.227 -11.447   5.986  0.00  0.00    +0.214 C 
ATOM     23  F   LIG    1       21.971 -12.599   6.657  0.00  0.00    -0.249 F 
ENDBRANCH  21  22
ENDBRANCH  20  21
ENDBRANCH   5  20
TORSDOF 6
ENDMDL
MODEL 5
REMARK VINA RESULT:       6.0      3.210      4.594
REMARK  Name = *****
REMARK                            x       y       z     vdW  Elec       q    Type
REMARK                         _______ _______ _______ _____ _____    ______ ____
ROOT
ATOM      1  C   LIG    1       27.620 -16.930   3.878  0.00  0.00    +0.122 C 
ATOM      2  C   LIG    1       26.375 -17.357   3.046  0.00  0.00    +0.036 C 
ATOM      3  C   LIG    1       25.722 -16.099   2.389  0.00  0.00    +0.028 C 
ATOM      4  C   LIG    1       25.851 -14.772   3.178  0.00  0.00    +0.058 C 
ATOM      5  N   LIG    1       27.289 -14.577   3.476  0.00  0.00    -0.296 NA
ATOM      6  C   LIG    1       25.211 -14.773   4.566  0.00  0.00    +0.020 C 
ATOM      7  C   LIG    1       26.279 -15.371   5.476  0.00  0.00    +0.021 C 
ATOM      8  C   LIG    1       27.502 -15.551   4.574  0.00  0.00    +0.071 C 
ENDROOT
BRANCH   2   9
ATOM      9  C   LIG    1       25.390 -18.344   3.690  0.00  0.00    -0.043 A 
ATOM     10  C   LIG    1       25.774 -19.673   3.955  0.00  0.00    +0.005 A 
ATOM     11  C   LIG    1       24.882 -20.598   4.522  0.00  0.00    +0.014 A 
ATOM     12  C   LIG    1       23.579 -20.216   4.820  0.00  0.00    +0.013 A 
ATOM     13  I   LIG    1       22.244 -21.555   5.672  0.00  0.00    -0.044 I 
ATOM     14  C   LIG    1       23.162 -18.924   4.538  0.00  0.00    +0.014 A 
ATOM     15  C   LIG    1       24.057 -18.017   3.967  0.00  0.00    +0.005 A 
ENDBRANCH   2   9
BRANCH   1  16
ATOM     16  C   LIG    1       28.175 -17.987   4.825  0.00  0.00    +0.312 C 
ATOM     17  O   LIG    1       27.941 -19.170   4.789  0.00  0.00    -0.251 OA
BRANCH  16  19
ATOM     18  C   LIG    1       29.475 -18.200   6.787  0.00  0.00    +0.280 C 
ATOM     19  O   LIG    1       28.951 -17.353   5.763  0.00  0.00    -0.468 OA
ENDBRANCH  16  19
ENDBRANCH   1  16
BRANCH   5  20
ATOM     20  C   LIG    1       27.583 -13.174   3.825  0.00  0.00    +0.087 C 
BRANCH  20  21
ATOM     21  C   LIG    1       27.338 -12.196   2.673  0.00  0.00    +0.049 C 
BRANCH  21  22
ATOM     22  C   LIG    1       25.879 -12.225   2.249  0.00  0.00    +0.214 C 
ATOM     23  F   LIG    1       25.094 -11.871   3.299  0.00  0.00    -0.249 F 
ENDBRANCH  21  22
ENDBRANCH  20  21
ENDBRANCH   5  20
TORSDOF 6
ENDMDL
