MODEL 1
REMARK VINA RESULT:      -1.0      0.000      0.000
REMARK  Name = *****
REMARK                            x       y       z     vdW  Elec       q    Type
REMARK                         _______ _______ _______ _____ _____    ______ ____
ROOT
ATOM      1  C   LIG    1       27.306 -20.014   6.124  0.00  0.00    +0.162 A 
ATOM      2  C   LIG    1       27.356 -19.677   4.744  0.00  0.00    +0.162 A 
ATOM      3  C   LIG    1       26.294 -20.008   3.903  0.00  0.00    +0.061 A 
ATOM      4  C   LIG    1       25.175 -20.561   4.483  0.00  0.00    +0.025 A 
ATOM      5  C   LIG    1       23.867 -20.762   3.867  0.00  0.00    +0.167 C 
ATOM      6  C   LIG    1       22.836 -20.791   4.983  0.00  0.00    +0.065 C 
ATOM      7  C   LIG    1       23.688 -21.348   6.163  0.00  0.00    +0.047 C 
ATOM      8  O   LIG    1       23.673 -20.831   2.680  0.00  0.00    -0.292 OA
ATOM      9  C   LIG    1       25.064 -20.842   5.838  0.00  0.00    -0.033 A 
ATOM     10  C   LIG    1       26.147 -20.609   6.668  0.00  0.00    +0.053 A 
ENDROOT
BRANCH   1  12
ATOM     11  C   LIG    1       29.447 -20.514   7.053  0.00  0.00    +0.277 C 
ATOM     12  O   LIG    1       28.267 -19.715   7.062  0.00  0.00    -0.491 OA
ENDBRANCH   1  12
BRANCH   2  13
ATOM     13  O   LIG    1       28.452 -19.013   4.268  0.00  0.00    -0.491 OA
ATOM     14  C   LIG    1       28.721 -17.730   4.821  0.00  0.00    +0.277 C 
ENDBRANCH   2  13
BRANCH   6  15
ATOM     15  C   LIG    1       22.307 -19.372   5.316  0.00  0.00    +0.015 C 
BRANCH  15  16
ATOM     16  C   LIG    1       22.140 -18.401   4.121  0.00  0.00    -0.008 C 
ATOM     17  C   LIG    1       21.256 -17.183   4.418  0.00  0.00    +0.019 C 
ATOM     18  C   LIG    1       21.952 -16.110   5.265  0.00  0.00    +0.085 C 
ATOM     19  N   LIG    1       23.281 -15.685   4.800  0.00  0.00    -0.298 NA
ATOM     20  C   LIG    1       24.134 -16.861   4.548  0.00  0.00    +0.085 C 
ATOM     21  C   LIG    1       23.500 -17.895   3.605  0.00  0.00    +0.019 C 
BRANCH  19  22
ATOM     22  C   LIG    1       23.277 -14.784   3.632  0.00  0.00    +0.119 C 
BRANCH  22  23
ATOM     23  C   LIG    1       24.589 -14.105   3.282  0.00  0.00    -0.033 A 
ATOM     24  C   LIG    1       25.773 -14.521   3.913  0.00  0.00    +0.005 A 
ATOM     25  C   LIG    1       26.981 -13.859   3.681  0.00  0.00    +0.000 A 
ATOM     26  C   LIG    1       27.019 -12.764   2.822  0.00  0.00    +0.000 A 
ATOM     27  C   LIG    1       25.853 -12.337   2.190  0.00  0.00    +0.000 A 
ATOM     28  C   LIG    1       24.643 -13.005   2.415  0.00  0.00    +0.005 A 
ENDBRANCH  22  23
ENDBRANCH  19  22
ENDBRANCH  15  16
ENDBRANCH   6  15
TORSDOF 6
ENDMDL
