MODEL 1
REMARK VINA RESULT:      -6.6      0.000      0.000
REMARK  Name = *****
REMARK                            x       y       z     vdW  Elec       q    Type
REMARK                         _______ _______ _______ _____ _____    ______ ____
ROOT
ATOM      1  N   LIG    1       25.993 -18.590   3.489  0.00  0.00    -0.299 N 
ATOM      2  H   LIG    1       26.357 -18.969   2.615  0.00  0.00    +0.154 HD
ENDROOT
BRANCH   1   4
ATOM      3  C   LIG    1       25.481 -20.194   5.278  0.00  0.00    +0.099 A 
ATOM      4  C   LIG    1       25.099 -19.478   4.130  0.00  0.00    +0.137 A 
ATOM      5  N   LIG    1       23.833 -19.588   3.647  0.00  0.00    -0.239 NA
ATOM      6  C   LIG    1       22.948 -20.389   4.277  0.00  0.00    +0.113 A 
ATOM      7  C   LIG    1       23.248 -21.111   5.411  0.00  0.00    +0.021 A 
ATOM      8  C   LIG    1       24.537 -21.013   5.917  0.00  0.00    +0.020 A 
BRANCH   3  10
ATOM      9  O   LIG    1       27.206 -19.974   6.946  0.00  0.00    -0.245 OA
ATOM     10  C   LIG    1       26.872 -20.129   5.788  0.00  0.00    +0.340 C 
BRANCH  10  11
ATOM     11  O   LIG    1       27.789 -20.227   4.803  0.00  0.00    -0.477 OA
ATOM     12  H   LIG    1       27.386 -20.823   4.138  0.00  0.00    +0.295 HD
ENDBRANCH  10  11
ENDBRANCH   3  10
ENDBRANCH   1   4
BRANCH   1  13
ATOM     13  C   LIG    1       26.112 -17.193   3.611  0.00  0.00    +0.033 A 
ATOM     14  C   LIG    1       25.004 -16.337   3.624  0.00  0.00    +0.035 A 
ATOM     15  C   LIG    1       25.142 -14.943   3.755  0.00  0.00    +0.057 A 
ATOM     16  C   LIG    1       26.426 -14.396   3.855  0.00  0.00    +0.012 A 
ATOM     17  C   LIG    1       27.543 -15.231   3.840  0.00  0.00    +0.002 A 
ATOM     18  C   LIG    1       27.384 -16.615   3.727  0.00  0.00    +0.023 A 
BRANCH  15  19
ATOM     19  C   LIG    1       23.909 -14.079   3.810  0.00  0.00    +0.417 C 
ATOM     20  F   LIG    1       22.787 -14.790   4.116  0.00  0.00    -0.166 F 
ATOM     21  F   LIG    1       23.643 -13.454   2.629  0.00  0.00    -0.166 F 
ATOM     22  F   LIG    1       23.981 -13.088   4.744  0.00  0.00    -0.166 F 
ENDBRANCH  15  19
ENDBRANCH   1  13
TORSDOF 5
ENDMDL
MODEL 2
REMARK VINA RESULT:      -6.2      3.503      6.051
REMARK  Name = *****
REMARK                            x       y       z     vdW  Elec       q    Type
REMARK                         _______ _______ _______ _____ _____    ______ ____
ROOT
ATOM      1  N   LIG    1       25.544 -16.533   2.992  0.00  0.00    -0.299 N 
ATOM      2  H   LIG    1       25.604 -16.529   1.975  0.00  0.00    +0.154 HD
ENDROOT
BRANCH   1   4
ATOM      3  C   LIG    1       25.302 -14.344   4.081  0.00  0.00    +0.099 A 
ATOM      4  C   LIG    1       26.110 -15.375   3.571  0.00  0.00    +0.137 A 
ATOM      5  N   LIG    1       27.464 -15.295   3.677  0.00  0.00    -0.239 NA
ATOM      6  C   LIG    1       28.022 -14.222   4.275  0.00  0.00    +0.113 A 
ATOM      7  C   LIG    1       27.293 -13.182   4.807  0.00  0.00    +0.021 A 
ATOM      8  C   LIG    1       25.910 -13.244   4.704  0.00  0.00    +0.020 A 
BRANCH   3  10
ATOM      9  O   LIG    1       23.062 -15.110   4.531  0.00  0.00    -0.245 OA
ATOM     10  C   LIG    1       23.827 -14.386   3.926  0.00  0.00    +0.340 C 
BRANCH  10  11
ATOM     11  O   LIG    1       23.382 -13.532   2.981  0.00  0.00    -0.477 OA
ATOM     12  H   LIG    1       22.637 -13.053   3.401  0.00  0.00    +0.295 HD
ENDBRANCH  10  11
ENDBRANCH   3  10
ENDBRANCH   1   4
BRANCH   1  13
ATOM     13  C   LIG    1       25.329 -17.805   3.556  0.00  0.00    +0.033 A 
ATOM     14  C   LIG    1       24.064 -18.248   3.963  0.00  0.00    +0.035 A 
ATOM     15  C   LIG    1       23.866 -19.526   4.517  0.00  0.00    +0.057 A 
ATOM     16  C   LIG    1       24.970 -20.370   4.684  0.00  0.00    +0.012 A 
ATOM     17  C   LIG    1       26.238 -19.946   4.289  0.00  0.00    +0.002 A 
ATOM     18  C   LIG    1       26.412 -18.679   3.723  0.00  0.00    +0.023 A 
BRANCH  15  19
ATOM     19  C   LIG    1       22.474 -19.963   4.892  0.00  0.00    +0.417 C 
ATOM     20  F   LIG    1       22.277 -19.974   6.241  0.00  0.00    -0.166 F 
ATOM     21  F   LIG    1       22.177 -21.221   4.461  0.00  0.00    -0.166 F 
ATOM     22  F   LIG    1       21.496 -19.159   4.385  0.00  0.00    -0.166 F 
ENDBRANCH  15  19
ENDBRANCH   1  13
TORSDOF 5
ENDMDL
MODEL 3
REMARK VINA RESULT:      -6.1      0.982      1.243
REMARK  Name = *****
REMARK                            x       y       z     vdW  Elec       q    Type
REMARK                         _______ _______ _______ _____ _____    ______ ____
ROOT
ATOM      1  N   LIG    1       25.390 -18.030   3.301  0.00  0.00    -0.299 N 
ATOM      2  H   LIG    1       25.677 -18.447   2.417  0.00  0.00    +0.154 HD
ENDROOT
BRANCH   1   4
ATOM      3  C   LIG    1       24.557 -19.717   4.881  0.00  0.00    +0.099 A 
ATOM      4  C   LIG    1       24.323 -18.731   3.907  0.00  0.00    +0.137 A 
ATOM      5  N   LIG    1       23.049 -18.395   3.570  0.00  0.00    -0.239 NA
ATOM      6  C   LIG    1       22.015 -19.014   4.176  0.00  0.00    +0.113 A 
ATOM      7  C   LIG    1       22.169 -19.981   5.146  0.00  0.00    +0.021 A 
ATOM      8  C   LIG    1       23.462 -20.339   5.500  0.00  0.00    +0.020 A 
BRANCH   3  10
ATOM      9  O   LIG    1       26.376 -20.322   6.340  0.00  0.00    -0.245 OA
ATOM     10  C   LIG    1       25.938 -20.136   5.223  0.00  0.00    +0.340 C 
BRANCH  10  11
ATOM     11  O   LIG    1       26.723 -20.268   4.133  0.00  0.00    -0.477 OA
ATOM     12  H   LIG    1       27.628 -20.056   4.444  0.00  0.00    +0.295 HD
ENDBRANCH  10  11
ENDBRANCH   3  10
ENDBRANCH   1   4
BRANCH   1  13
ATOM     13  C   LIG    1       25.799 -16.694   3.473  0.00  0.00    +0.033 A 
ATOM     14  C   LIG    1       24.904 -15.617   3.426  0.00  0.00    +0.035 A 
ATOM     15  C   LIG    1       25.330 -14.288   3.608  0.00  0.00    +0.057 A 
ATOM     16  C   LIG    1       26.689 -14.036   3.824  0.00  0.00    +0.012 A 
ATOM     17  C   LIG    1       27.596 -15.094   3.870  0.00  0.00    +0.002 A 
ATOM     18  C   LIG    1       27.152 -16.409   3.705  0.00  0.00    +0.023 A 
BRANCH  15  19
ATOM     19  C   LIG    1       24.313 -13.177   3.593  0.00  0.00    +0.417 C 
ATOM     20  F   LIG    1       24.031 -12.711   4.843  0.00  0.00    -0.166 F 
ATOM     21  F   LIG    1       23.119 -13.554   3.057  0.00  0.00    -0.166 F 
ATOM     22  F   LIG    1       24.710 -12.086   2.877  0.00  0.00    -0.166 F 
ENDBRANCH  15  19
ENDBRANCH   1  13
TORSDOF 5
ENDMDL
MODEL 4
REMARK VINA RESULT:      -6.1      1.731      2.519
REMARK  Name = *****
REMARK                            x       y       z     vdW  Elec       q    Type
REMARK                         _______ _______ _______ _____ _____    ______ ____
ROOT
ATOM      1  N   LIG    1       26.104 -18.595   3.576  0.00  0.00    -0.299 N 
ATOM      2  H   LIG    1       25.623 -18.963   2.756  0.00  0.00    +0.154 HD
ENDROOT
BRANCH   1   4
ATOM      3  C   LIG    1       25.160 -20.463   4.863  0.00  0.00    +0.099 A 
ATOM      4  C   LIG    1       26.196 -19.545   4.619  0.00  0.00    +0.137 A 
ATOM      5  N   LIG    1       27.339 -19.595   5.355  0.00  0.00    -0.239 NA
ATOM      6  C   LIG    1       27.469 -20.530   6.319  0.00  0.00    +0.113 A 
ATOM      7  C   LIG    1       26.501 -21.466   6.607  0.00  0.00    +0.021 A 
ATOM      8  C   LIG    1       25.327 -21.429   5.867  0.00  0.00    +0.020 A 
BRANCH   3  10
ATOM      9  O   LIG    1       23.172 -19.413   3.997  0.00  0.00    -0.245 OA
ATOM     10  C   LIG    1       23.886 -20.390   4.109  0.00  0.00    +0.340 C 
BRANCH  10  11
ATOM     11  O   LIG    1       23.545 -21.571   3.553  0.00  0.00    -0.477 OA
ATOM     12  H   LIG    1       22.581 -21.658   3.708  0.00  0.00    +0.295 HD
ENDBRANCH  10  11
ENDBRANCH   3  10
ENDBRANCH   1   4
BRANCH   1  13
ATOM     13  C   LIG    1       26.161 -17.189   3.635  0.00  0.00    +0.033 A 
ATOM     14  C   LIG    1       25.013 -16.387   3.675  0.00  0.00    +0.035 A 
ATOM     15  C   LIG    1       25.088 -14.985   3.741  0.00  0.00    +0.057 A 
ATOM     16  C   LIG    1       26.347 -14.374   3.749  0.00  0.00    +0.012 A 
ATOM     17  C   LIG    1       27.502 -15.154   3.705  0.00  0.00    +0.002 A 
ATOM     18  C   LIG    1       27.407 -16.548   3.658  0.00  0.00    +0.023 A 
BRANCH  15  19
ATOM     19  C   LIG    1       23.819 -14.178   3.830  0.00  0.00    +0.417 C 
ATOM     20  F   LIG    1       23.478 -13.611   2.638  0.00  0.00    -0.166 F 
ATOM     21  F   LIG    1       23.901 -13.151   4.721  0.00  0.00    -0.166 F 
ATOM     22  F   LIG    1       22.734 -14.911   4.211  0.00  0.00    -0.166 F 
ENDBRANCH  15  19
ENDBRANCH   1  13
TORSDOF 5
ENDMDL
MODEL 5
REMARK VINA RESULT:      -6.1      2.055      2.676
REMARK  Name = *****
REMARK                            x       y       z     vdW  Elec       q    Type
REMARK                         _______ _______ _______ _____ _____    ______ ____
ROOT
ATOM      1  N   LIG    1       26.217 -17.831   3.293  0.00  0.00    -0.299 N 
ATOM      2  H   LIG    1       26.639 -18.044   2.390  0.00  0.00    +0.154 HD
ENDROOT
BRANCH   1   4
ATOM      3  C   LIG    1       26.233 -19.751   4.826  0.00  0.00    +0.099 A 
ATOM      4  C   LIG    1       25.580 -18.954   3.869  0.00  0.00    +0.137 A 
ATOM      5  N   LIG    1       24.294 -19.222   3.521  0.00  0.00    -0.239 NA
ATOM      6  C   LIG    1       23.650 -20.258   4.100  0.00  0.00    +0.113 A 
ATOM      7  C   LIG    1       24.222 -21.073   5.052  0.00  0.00    +0.021 A 
ATOM      8  C   LIG    1       25.535 -20.816   5.417  0.00  0.00    +0.020 A 
BRANCH   3  10
ATOM      9  O   LIG    1       28.280 -18.490   4.968  0.00  0.00    -0.245 OA
ATOM     10  C   LIG    1       27.652 -19.508   5.179  0.00  0.00    +0.340 C 
BRANCH  10  11
ATOM     11  O   LIG    1       28.233 -20.581   5.754  0.00  0.00    -0.477 OA
ATOM     12  H   LIG    1       27.832 -20.641   6.646  0.00  0.00    +0.295 HD
ENDBRANCH  10  11
ENDBRANCH   3  10
ENDBRANCH   1   4
BRANCH   1  13
ATOM     13  C   LIG    1       26.000 -16.459   3.524  0.00  0.00    +0.033 A 
ATOM     14  C   LIG    1       27.046 -15.533   3.618  0.00  0.00    +0.035 A 
ATOM     15  C   LIG    1       26.811 -14.165   3.841  0.00  0.00    +0.057 A 
ATOM     16  C   LIG    1       25.492 -13.721   3.991  0.00  0.00    +0.012 A 
ATOM     17  C   LIG    1       24.436 -14.627   3.905  0.00  0.00    +0.002 A 
ATOM     18  C   LIG    1       24.690 -15.981   3.664  0.00  0.00    +0.023 A 
BRANCH  15  19
ATOM     19  C   LIG    1       27.975 -13.210   3.886  0.00  0.00    +0.417 C 
ATOM     20  F   LIG    1       27.838 -12.178   3.007  0.00  0.00    -0.166 F 
ATOM     21  F   LIG    1       29.163 -13.804   3.581  0.00  0.00    -0.166 F 
ATOM     22  F   LIG    1       28.156 -12.630   5.107  0.00  0.00    -0.166 F 
ENDBRANCH  15  19
ENDBRANCH   1  13
TORSDOF 5
ENDMDL
MODEL 6
REMARK VINA RESULT:      -5.9      2.343      2.853
REMARK  Name = *****
REMARK                            x       y       z     vdW  Elec       q    Type
REMARK                         _______ _______ _______ _____ _____    ______ ____
ROOT
ATOM      1  N   LIG    1       24.810 -18.236   3.216  0.00  0.00    -0.299 N 
ATOM      2  H   LIG    1       24.233 -18.247   2.376  0.00  0.00    +0.154 HD
ENDROOT
BRANCH   1   4
ATOM      3  C   LIG    1       23.145 -19.269   4.698  0.00  0.00    +0.099 A 
ATOM      4  C   LIG    1       24.435 -19.237   4.141  0.00  0.00    +0.137 A 
ATOM      5  N   LIG    1       25.334 -20.211   4.446  0.00  0.00    -0.239 NA
ATOM      6  C   LIG    1       24.978 -21.206   5.285  0.00  0.00    +0.113 A 
ATOM      7  C   LIG    1       23.729 -21.308   5.859  0.00  0.00    +0.021 A 
ATOM      8  C   LIG    1       22.800 -20.320   5.561  0.00  0.00    +0.020 A 
BRANCH   3  10
ATOM      9  O   LIG    1       22.241 -17.039   4.812  0.00  0.00    -0.245 OA
ATOM     10  C   LIG    1       22.170 -18.187   4.421  0.00  0.00    +0.340 C 
BRANCH  10  11
ATOM     11  O   LIG    1       21.120 -18.612   3.687  0.00  0.00    -0.477 OA
ATOM     12  H   LIG    1       21.051 -19.572   3.872  0.00  0.00    +0.295 HD
ENDBRANCH  10  11
ENDBRANCH   3  10
ENDBRANCH   1   4
BRANCH   1  13
ATOM     13  C   LIG    1       25.501 -17.028   3.431  0.00  0.00    +0.033 A 
ATOM     14  C   LIG    1       24.867 -15.780   3.404  0.00  0.00    +0.035 A 
ATOM     15  C   LIG    1       25.572 -14.583   3.628  0.00  0.00    +0.057 A 
ATOM     16  C   LIG    1       26.950 -14.644   3.867  0.00  0.00    +0.012 A 
ATOM     17  C   LIG    1       27.600 -15.876   3.895  0.00  0.00    +0.002 A 
ATOM     18  C   LIG    1       26.879 -17.056   3.687  0.00  0.00    +0.023 A 
BRANCH  15  19
ATOM     19  C   LIG    1       24.826 -13.274   3.633  0.00  0.00    +0.417 C 
ATOM     20  F   LIG    1       25.268 -12.420   2.667  0.00  0.00    -0.166 F 
ATOM     21  F   LIG    1       24.943 -12.598   4.810  0.00  0.00    -0.166 F 
ATOM     22  F   LIG    1       23.487 -13.410   3.417  0.00  0.00    -0.166 F 
ENDBRANCH  15  19
ENDBRANCH   1  13
TORSDOF 5
ENDMDL
MODEL 7
REMARK VINA RESULT:      -5.6      2.548      3.395
REMARK  Name = *****
REMARK                            x       y       z     vdW  Elec       q    Type
REMARK                         _______ _______ _______ _____ _____    ______ ____
ROOT
ATOM      1  N   LIG    1       24.522 -18.554   3.586  0.00  0.00    -0.299 N 
ATOM      2  H   LIG    1       23.871 -18.899   2.882  0.00  0.00    +0.154 HD
ENDROOT
BRANCH   1   4
ATOM      3  C   LIG    1       23.929 -20.415   5.076  0.00  0.00    +0.099 A 
ATOM      4  C   LIG    1       24.888 -19.552   4.518  0.00  0.00    +0.137 A 
ATOM      5  N   LIG    1       26.203 -19.702   4.828  0.00  0.00    -0.239 NA
ATOM      6  C   LIG    1       26.579 -20.684   5.674  0.00  0.00    +0.113 A 
ATOM      7  C   LIG    1       25.697 -21.571   6.250  0.00  0.00    +0.021 A 
ATOM      8  C   LIG    1       24.350 -21.431   5.947  0.00  0.00    +0.020 A 
BRANCH   3  10
ATOM      9  O   LIG    1       21.921 -19.176   4.590  0.00  0.00    -0.245 OA
ATOM     10  C   LIG    1       22.485 -20.232   4.793  0.00  0.00    +0.340 C 
BRANCH  10  11
ATOM     11  O   LIG    1       21.802 -21.396   4.815  0.00  0.00    -0.477 OA
ATOM     12  H   LIG    1       22.308 -21.999   4.231  0.00  0.00    +0.295 HD
ENDBRANCH  10  11
ENDBRANCH   3  10
ENDBRANCH   1   4
BRANCH   1  13
ATOM     13  C   LIG    1       24.550 -17.152   3.714  0.00  0.00    +0.033 A 
ATOM     14  C   LIG    1       25.692 -16.390   3.439  0.00  0.00    +0.035 A 
ATOM     15  C   LIG    1       25.700 -14.989   3.565  0.00  0.00    +0.057 A 
ATOM     16  C   LIG    1       24.535 -14.342   3.995  0.00  0.00    +0.012 A 
ATOM     17  C   LIG    1       23.389 -15.083   4.277  0.00  0.00    +0.002 A 
ATOM     18  C   LIG    1       23.396 -16.473   4.128  0.00  0.00    +0.023 A 
BRANCH  15  19
ATOM     19  C   LIG    1       26.945 -14.220   3.210  0.00  0.00    +0.417 C 
ATOM     20  F   LIG    1       26.898 -12.925   3.634  0.00  0.00    -0.166 F 
ATOM     21  F   LIG    1       27.173 -14.164   1.868  0.00  0.00    -0.166 F 
ATOM     22  F   LIG    1       28.081 -14.742   3.755  0.00  0.00    -0.166 F 
ENDBRANCH  15  19
ENDBRANCH   1  13
TORSDOF 5
ENDMDL
MODEL 8
REMARK VINA RESULT:      -5.4      2.231      3.225
REMARK  Name = *****
REMARK                            x       y       z     vdW  Elec       q    Type
REMARK                         _______ _______ _______ _____ _____    ______ ____
ROOT
ATOM      1  N   LIG    1       25.602 -18.756   3.613  0.00  0.00    -0.299 N 
ATOM      2  H   LIG    1       25.307 -19.240   2.766  0.00  0.00    +0.154 HD
ENDROOT
BRANCH   1   4
ATOM      3  C   LIG    1       25.057 -20.666   5.058  0.00  0.00    +0.099 A 
ATOM      4  C   LIG    1       25.939 -19.649   4.655  0.00  0.00    +0.137 A 
ATOM      5  N   LIG    1       27.167 -19.544   5.230  0.00  0.00    -0.239 NA
ATOM      6  C   LIG    1       27.529 -20.421   6.190  0.00  0.00    +0.113 A 
ATOM      7  C   LIG    1       26.722 -21.448   6.627  0.00  0.00    +0.021 A 
ATOM      8  C   LIG    1       25.464 -21.569   6.053  0.00  0.00    +0.020 A 
BRANCH   3  10
ATOM      9  O   LIG    1       22.676 -20.310   4.964  0.00  0.00    -0.245 OA
ATOM     10  C   LIG    1       23.694 -20.764   4.481  0.00  0.00    +0.340 C 
BRANCH  10  11
ATOM     11  O   LIG    1       23.669 -21.468   3.330  0.00  0.00    -0.477 OA
ATOM     12  H   LIG    1       23.523 -22.398   3.603  0.00  0.00    +0.295 HD
ENDBRANCH  10  11
ENDBRANCH   3  10
ENDBRANCH   1   4
BRANCH   1  13
ATOM     13  C   LIG    1       25.203 -17.408   3.680  0.00  0.00    +0.033 A 
ATOM     14  C   LIG    1       26.069 -16.347   3.387  0.00  0.00    +0.035 A 
ATOM     15  C   LIG    1       25.650 -15.006   3.451  0.00  0.00    +0.057 A 
ATOM     16  C   LIG    1       24.335 -14.725   3.838  0.00  0.00    +0.012 A 
ATOM     17  C   LIG    1       23.458 -15.766   4.138  0.00  0.00    +0.002 A 
ATOM     18  C   LIG    1       23.888 -17.094   4.050  0.00  0.00    +0.023 A 
BRANCH  15  19
ATOM     19  C   LIG    1       26.615 -13.910   3.079  0.00  0.00    +0.417 C 
ATOM     20  F   LIG    1       27.475 -14.286   2.090  0.00  0.00    -0.166 F 
ATOM     21  F   LIG    1       27.397 -13.512   4.121  0.00  0.00    -0.166 F 
ATOM     22  F   LIG    1       26.004 -12.779   2.623  0.00  0.00    -0.166 F 
ENDBRANCH  15  19
ENDBRANCH   1  13
TORSDOF 5
ENDMDL
MODEL 9
REMARK VINA RESULT:      -5.4      4.092      6.481
REMARK  Name = *****
REMARK                            x       y       z     vdW  Elec       q    Type
REMARK                         _______ _______ _______ _____ _____    ______ ____
ROOT
ATOM      1  N   LIG    1       25.712 -16.655   3.025  0.00  0.00    -0.299 N 
ATOM      2  H   LIG    1       25.773 -16.649   2.008  0.00  0.00    +0.154 HD
ENDROOT
BRANCH   1   4
ATOM      3  C   LIG    1       25.331 -14.474   4.089  0.00  0.00    +0.099 A 
ATOM      4  C   LIG    1       26.204 -15.462   3.602  0.00  0.00    +0.137 A 
ATOM      5  N   LIG    1       27.549 -15.308   3.731  0.00  0.00    -0.239 NA
ATOM      6  C   LIG    1       28.038 -14.201   4.328  0.00  0.00    +0.113 A 
ATOM      7  C   LIG    1       27.243 -13.197   4.837  0.00  0.00    +0.021 A 
ATOM      8  C   LIG    1       25.868 -13.337   4.712  0.00  0.00    +0.020 A 
BRANCH   3  10
ATOM      9  O   LIG    1       23.137 -15.392   4.472  0.00  0.00    -0.245 OA
ATOM     10  C   LIG    1       23.865 -14.598   3.910  0.00  0.00    +0.340 C 
BRANCH  10  11
ATOM     11  O   LIG    1       23.380 -13.732   2.996  0.00  0.00    -0.477 OA
ATOM     12  H   LIG    1       23.689 -14.074   2.131  0.00  0.00    +0.295 HD
ENDBRANCH  10  11
ENDBRANCH   3  10
ENDBRANCH   1   4
BRANCH   1  13
ATOM     13  C   LIG    1       25.576 -17.937   3.591  0.00  0.00    +0.033 A 
ATOM     14  C   LIG    1       26.545 -18.499   4.431  0.00  0.00    +0.035 A 
ATOM     15  C   LIG    1       26.389 -19.779   4.994  0.00  0.00    +0.057 A 
ATOM     16  C   LIG    1       25.239 -20.516   4.690  0.00  0.00    +0.012 A 
ATOM     17  C   LIG    1       24.264 -19.976   3.853  0.00  0.00    +0.002 A 
ATOM     18  C   LIG    1       24.429 -18.695   3.317  0.00  0.00    +0.023 A 
BRANCH  15  19
ATOM     19  C   LIG    1       27.444 -20.311   5.928  0.00  0.00    +0.417 C 
ATOM     20  F   LIG    1       27.166 -21.572   6.365  0.00  0.00    -0.166 F 
ATOM     21  F   LIG    1       27.596 -19.552   7.049  0.00  0.00    -0.166 F 
ATOM     22  F   LIG    1       28.684 -20.385   5.363  0.00  0.00    -0.166 F 
ENDBRANCH  15  19
ENDBRANCH   1  13
TORSDOF 5
ENDMDL
