MODEL 1
REMARK VINA RESULT:      -0.7      0.000      0.000
REMARK  Name = *****
REMARK                            x       y       z     vdW  Elec       q    Type
REMARK                         _______ _______ _______ _____ _____    ______ ____
ROOT
ATOM      1  C   LIG    1       24.861 -18.647   3.677  0.00  0.00    +0.162 A 
ATOM      2  C   LIG    1       25.488 -17.420   3.543  0.00  0.00    +0.167 A 
ATOM      3  O   LIG    1       26.830 -17.171   3.415  0.00  0.00    -0.481 OA
ATOM      4  C   LIG    1       26.990 -15.711   3.413  0.00  0.00    +0.217 C 
ATOM      5  C   LIG    1       25.598 -15.052   3.491  0.00  0.00    +0.048 C 
ATOM      6  C   LIG    1       25.293 -14.242   4.760  0.00  0.00    +0.043 C 
ATOM      7  C   LIG    1       23.845 -13.689   4.583  0.00  0.00    +0.069 C 
ATOM      8  N   LIG    1       23.650 -12.826   3.398  0.00  0.00    -0.301 NA
ATOM      9  C   LIG    1       23.333 -11.447   3.760  0.00  0.00    +0.105 C 
ATOM     10  C   LIG    1       24.743 -12.874   2.430  0.00  0.00    +0.085 C 
ATOM     11  C   LIG    1       22.819 -14.894   4.470  0.00  0.00    +0.055 C 
ATOM     12  C   LIG    1       23.423 -16.222   4.055  0.00  0.00    -0.038 A 
ATOM     13  C   LIG    1       22.771 -17.444   4.184  0.00  0.00    +0.008 A 
ATOM     14  C   LIG    1       26.443 -13.325   5.070  0.00  0.00    -0.023 C 
ATOM     15  C   LIG    1       27.690 -13.824   4.985  0.00  0.00    +0.004 C 
ATOM     16  C   LIG    1       25.244 -14.297   2.182  0.00  0.00    +0.031 C 
ATOM     17  C   LIG    1       27.940 -15.250   4.547  0.00  0.00    +0.178 C 
ATOM     18  C   LIG    1       24.750 -16.260   3.650  0.00  0.00    +0.012 A 
ATOM     19  C   LIG    1       23.485 -18.643   3.977  0.00  0.00    +0.050 A 
ENDROOT
BRANCH   1  21
ATOM     20  C   LIG    1       24.981 -20.857   4.536  0.00  0.00    +0.277 C 
ATOM     21  O   LIG    1       25.416 -19.891   3.589  0.00  0.00    -0.491 OA
ENDBRANCH   1  21
BRANCH  17  22
ATOM     22  O   LIG    1       29.289 -15.321   4.083  0.00  0.00    -0.384 OA
ATOM     23  H   LIG    1       29.821 -14.768   4.680  0.00  0.00    +0.210 HD
ENDBRANCH  17  22
TORSDOF 2
ENDMDL
MODEL 2
REMARK VINA RESULT:      -0.1      2.514      4.016
REMARK  Name = *****
REMARK                            x       y       z     vdW  Elec       q    Type
REMARK                         _______ _______ _______ _____ _____    ______ ____
ROOT
ATOM      1  C   LIG    1       23.345 -16.931   4.108  0.00  0.00    +0.162 A 
ATOM      2  C   LIG    1       23.775 -15.620   4.220  0.00  0.00    +0.167 A 
ATOM      3  O   LIG    1       23.013 -14.499   4.428  0.00  0.00    -0.481 OA
ATOM      4  C   LIG    1       23.926 -13.351   4.365  0.00  0.00    +0.217 C 
ATOM      5  C   LIG    1       25.365 -13.862   4.156  0.00  0.00    +0.048 C 
ATOM      6  C   LIG    1       26.040 -13.488   2.827  0.00  0.00    +0.043 C 
ATOM      7  C   LIG    1       27.467 -14.116   2.873  0.00  0.00    +0.069 C 
ATOM      8  N   LIG    1       28.314 -13.655   3.995  0.00  0.00    -0.301 NA
ATOM      9  C   LIG    1       29.475 -12.896   3.540  0.00  0.00    +0.105 C 
ATOM     10  C   LIG    1       27.591 -12.931   5.038  0.00  0.00    +0.085 C 
ATOM     11  C   LIG    1       27.355 -15.696   2.979  0.00  0.00    +0.055 C 
ATOM     12  C   LIG    1       26.032 -16.218   3.504  0.00  0.00    -0.038 A 
ATOM     13  C   LIG    1       25.622 -17.543   3.394  0.00  0.00    +0.008 A 
ATOM     14  C   LIG    1       25.845 -12.023   2.551  0.00  0.00    -0.023 C 
ATOM     15  C   LIG    1       24.621 -11.500   2.748  0.00  0.00    +0.004 C 
ATOM     16  C   LIG    1       26.259 -13.591   5.395  0.00  0.00    +0.031 C 
ATOM     17  C   LIG    1       23.481 -12.341   3.277  0.00  0.00    +0.178 C 
ATOM     18  C   LIG    1       25.102 -15.315   4.001  0.00  0.00    +0.012 A 
ATOM     19  C   LIG    1       24.294 -17.894   3.713  0.00  0.00    +0.050 A 
ENDROOT
BRANCH   1  21
ATOM     20  C   LIG    1       21.968 -18.829   4.484  0.00  0.00    +0.277 C 
ATOM     21  O   LIG    1       22.086 -17.424   4.300  0.00  0.00    -0.491 OA
ENDBRANCH   1  21
BRANCH  17  22
ATOM     22  O   LIG    1       22.517 -11.447   3.837  0.00  0.00    -0.384 OA
ATOM     23  H   LIG    1       23.016 -10.739   4.280  0.00  0.00    +0.210 HD
ENDBRANCH  17  22
TORSDOF 2
ENDMDL
MODEL 3
REMARK VINA RESULT:       0.3      3.407      5.796
REMARK  Name = *****
REMARK                            x       y       z     vdW  Elec       q    Type
REMARK                         _______ _______ _______ _____ _____    ______ ____
ROOT
ATOM      1  C   LIG    1       27.795 -19.958   5.592  0.00  0.00    +0.162 A 
ATOM      2  C   LIG    1       26.723 -19.532   4.826  0.00  0.00    +0.167 A 
ATOM      3  O   LIG    1       26.667 -18.452   3.982  0.00  0.00    -0.481 OA
ATOM      4  C   LIG    1       25.286 -18.370   3.493  0.00  0.00    +0.217 C 
ATOM      5  C   LIG    1       24.477 -19.551   4.066  0.00  0.00    +0.048 C 
ATOM      6  C   LIG    1       23.337 -19.196   5.034  0.00  0.00    +0.043 C 
ATOM      7  C   LIG    1       22.689 -20.550   5.455  0.00  0.00    +0.069 C 
ATOM      8  N   LIG    1       22.145 -21.354   4.339  0.00  0.00    -0.301 NA
ATOM      9  C   LIG    1       20.693 -21.493   4.409  0.00  0.00    +0.105 C 
ATOM     10  C   LIG    1       22.565 -20.906   3.013  0.00  0.00    +0.085 C 
ATOM     11  C   LIG    1       23.760 -21.447   6.211  0.00  0.00    +0.055 C 
ATOM     12  C   LIG    1       25.208 -21.091   5.940  0.00  0.00    -0.038 A 
ATOM     13  C   LIG    1       26.275 -21.540   6.713  0.00  0.00    +0.008 A 
ATOM     14  C   LIG    1       22.506 -18.083   4.458  0.00  0.00    -0.023 C 
ATOM     15  C   LIG    1       23.147 -17.036   3.907  0.00  0.00    +0.004 C 
ATOM     16  C   LIG    1       24.051 -20.550   2.957  0.00  0.00    +0.031 C 
ATOM     17  C   LIG    1       24.656 -16.992   3.821  0.00  0.00    +0.178 C 
ATOM     18  C   LIG    1       25.499 -20.154   4.957  0.00  0.00    +0.012 A 
ATOM     19  C   LIG    1       27.558 -20.988   6.522  0.00  0.00    +0.050 A 
ENDROOT
BRANCH   1  21
ATOM     20  C   LIG    1       29.386 -18.478   6.549  0.00  0.00    +0.277 C 
ATOM     21  O   LIG    1       29.073 -19.480   5.590  0.00  0.00    -0.491 OA
ENDBRANCH   1  21
BRANCH  17  22
ATOM     22  O   LIG    1       24.997 -16.066   2.788  0.00  0.00    -0.384 OA
ATOM     23  H   LIG    1       24.324 -15.364   2.808  0.00  0.00    +0.210 HD
ENDBRANCH  17  22
TORSDOF 2
ENDMDL
