MODEL 1
REMARK VINA RESULT:      -2.5      0.000      0.000
REMARK  Name = *****
REMARK                            x       y       z     vdW  Elec       q    Type
REMARK                         _______ _______ _______ _____ _____    ______ ____
ROOT
ATOM      1  C   LIG    1       21.977 -17.989   5.184  0.00  0.00    +0.138 C 
ATOM      2  N   LIG    1       23.147 -18.498   4.481  0.00  0.00    -0.270 N 
ATOM      3  C   LIG    1       23.113 -19.843   4.086  0.00  0.00    +0.271 C 
ATOM      4  O   LIG    1       22.201 -20.605   4.429  0.00  0.00    -0.270 OA
ATOM      5  C   LIG    1       24.247 -20.333   3.141  0.00  0.00    +0.320 C 
ATOM      6  N   LIG    1       25.452 -20.440   3.950  0.00  0.00    -0.243 NA
ATOM      7  C   LIG    1       26.017 -19.347   4.341  0.00  0.00    +0.078 C 
ATOM      8  C   LIG    1       25.539 -17.980   3.975  0.00  0.00    +0.023 A 
ATOM      9  C   LIG    1       26.509 -17.061   3.534  0.00  0.00    +0.032 A 
ATOM     10  C   LIG    1       26.157 -15.740   3.283  0.00  0.00    +0.042 A 
ATOM     11 CL   LIG    1       27.350 -14.618   2.762  0.00  0.00    -0.084 Cl
ATOM     12  C   LIG    1       24.846 -15.322   3.465  0.00  0.00    +0.022 A 
ATOM     13  C   LIG    1       23.873 -16.239   3.879  0.00  0.00    +0.025 A 
ATOM     14  C   LIG    1       24.190 -17.590   4.113  0.00  0.00    +0.045 A 
ENDROOT
BRANCH   7  15
ATOM     15  C   LIG    1       27.228 -19.477   5.214  0.00  0.00    +0.001 A 
ATOM     16  C   LIG    1       28.328 -18.620   5.070  0.00  0.00    +0.010 A 
ATOM     17  C   LIG    1       29.440 -18.765   5.902  0.00  0.00    +0.001 A 
ATOM     18  C   LIG    1       29.452 -19.754   6.885  0.00  0.00    +0.000 A 
ATOM     19  C   LIG    1       28.353 -20.597   7.046  0.00  0.00    +0.001 A 
ATOM     20  C   LIG    1       27.241 -20.456   6.215  0.00  0.00    +0.010 A 
ENDBRANCH   7  15
BRANCH   5  21
ATOM     21  O   LIG    1       23.893 -21.572   2.546  0.00  0.00    -0.364 OA
ATOM     22  H   LIG    1       24.489 -22.210   2.977  0.00  0.00    +0.212 HD
ENDBRANCH   5  21
TORSDOF 2
ENDMDL
MODEL 2
REMARK VINA RESULT:      -1.1      3.122      5.160
REMARK  Name = *****
REMARK                            x       y       z     vdW  Elec       q    Type
REMARK                         _______ _______ _______ _____ _____    ______ ____
ROOT
ATOM      1  C   LIG    1       23.497 -20.968   6.949  0.00  0.00    +0.138 C 
ATOM      2  N   LIG    1       23.819 -20.326   5.682  0.00  0.00    -0.270 N 
ATOM      3  C   LIG    1       25.143 -20.438   5.235  0.00  0.00    +0.271 C 
ATOM      4  O   LIG    1       26.034 -20.936   5.935  0.00  0.00    -0.270 OA
ATOM      5  C   LIG    1       25.445 -19.961   3.785  0.00  0.00    +0.320 C 
ATOM      6  N   LIG    1       25.410 -18.507   3.805  0.00  0.00    -0.243 NA
ATOM      7  C   LIG    1       24.263 -17.930   3.938  0.00  0.00    +0.078 C 
ATOM      8  C   LIG    1       22.963 -18.663   4.025  0.00  0.00    +0.023 A 
ATOM      9  C   LIG    1       21.907 -18.185   3.226  0.00  0.00    +0.032 A 
ATOM     10  C   LIG    1       20.640 -18.745   3.338  0.00  0.00    +0.042 A 
ATOM     11 CL   LIG    1       19.350 -18.146   2.372  0.00  0.00    -0.084 Cl
ATOM     12  C   LIG    1       20.411 -19.779   4.236  0.00  0.00    +0.022 A 
ATOM     13  C   LIG    1       21.464 -20.273   5.013  0.00  0.00    +0.025 A 
ATOM     14  C   LIG    1       22.766 -19.748   4.904  0.00  0.00    +0.045 A 
ENDROOT
BRANCH   7  15
ATOM     15  C   LIG    1       24.252 -16.434   4.007  0.00  0.00    +0.001 A 
ATOM     16  C   LIG    1       23.137 -15.732   4.487  0.00  0.00    +0.010 A 
ATOM     17  C   LIG    1       23.161 -14.337   4.541  0.00  0.00    +0.001 A 
ATOM     18  C   LIG    1       24.297 -13.640   4.129  0.00  0.00    +0.000 A 
ATOM     19  C   LIG    1       25.415 -14.334   3.669  0.00  0.00    +0.001 A 
ATOM     20  C   LIG    1       25.396 -15.728   3.612  0.00  0.00    +0.010 A 
ENDBRANCH   7  15
BRANCH   5  21
ATOM     21  O   LIG    1       26.702 -20.458   3.353  0.00  0.00    -0.364 OA
ATOM     22  H   LIG    1       27.212 -19.651   3.161  0.00  0.00    +0.212 HD
ENDBRANCH   5  21
TORSDOF 2
ENDMDL
