MODEL 1
REMARK VINA RESULT:      -5.5      0.000      0.000
REMARK  Name = *****
REMARK                            x       y       z     vdW  Elec       q    Type
REMARK                         _______ _______ _______ _____ _____    ______ ____
ROOT
ATOM      1  C   LIG    1       25.264 -19.692   4.392  0.00  0.00    +0.095 C 
ENDROOT
BRANCH   1   2
ATOM      2  C   LIG    1       23.957 -19.337   5.213  0.00  0.00    +0.025 C 
ATOM      3  C   LIG    1       22.681 -19.006   4.402  0.00  0.00    +0.006 C 
ATOM      4  C   LIG    1       21.917 -20.209   3.866  0.00  0.00    +0.000 C 
ATOM      5  C   LIG    1       21.565 -21.209   4.957  0.00  0.00    +0.000 C 
ATOM      6  C   LIG    1       22.750 -21.570   5.845  0.00  0.00    +0.000 C 
ATOM      7  C   LIG    1       23.567 -20.363   6.311  0.00  0.00    +0.006 C 
ENDBRANCH   1   2
BRANCH   1   8
ATOM      8  C   LIG    1       26.489 -20.100   5.270  0.00  0.00    -0.016 A 
ATOM      9  C   LIG    1       27.698 -19.379   5.225  0.00  0.00    +0.006 A 
ATOM     10  C   LIG    1       28.759 -19.677   6.096  0.00  0.00    +0.000 A 
ATOM     11  C   LIG    1       28.651 -20.710   7.016  0.00  0.00    +0.000 A 
ATOM     12  C   LIG    1       27.483 -21.463   7.059  0.00  0.00    +0.000 A 
ATOM     13  C   LIG    1       26.413 -21.146   6.202  0.00  0.00    +0.006 A 
ENDBRANCH   1   8
BRANCH   1  14
ATOM     14  O   LIG    1       24.940 -20.810   3.547  0.00  0.00    -0.384 OA
ATOM     15  H   LIG    1       24.003 -20.719   3.299  0.00  0.00    +0.211 HD
ENDBRANCH   1  14
BRANCH   1  16
ATOM     16  C   LIG    1       25.698 -18.542   3.418  0.00  0.00    +0.055 C 
BRANCH  16  17
ATOM     17  C   LIG    1       25.112 -17.152   3.732  0.00  0.00    +0.087 C 
BRANCH  17  18
ATOM     18  N   LIG    1       25.879 -16.020   3.184  0.00  0.00    -0.302 NA
ATOM     19  C   LIG    1       25.171 -14.749   3.392  0.00  0.00    +0.084 C 
ATOM     20  C   LIG    1       26.228 -13.714   3.051  0.00  0.00    +0.017 C 
ATOM     21  C   LIG    1       27.543 -14.367   3.457  0.00  0.00    +0.017 C 
ATOM     22  C   LIG    1       27.187 -15.810   3.812  0.00  0.00    +0.084 C 
ENDBRANCH  17  18
ENDBRANCH  16  17
ENDBRANCH   1  16
TORSDOF 6
ENDMDL
MODEL 2
REMARK VINA RESULT:      -4.6      2.495      7.560
REMARK  Name = *****
REMARK                            x       y       z     vdW  Elec       q    Type
REMARK                         _______ _______ _______ _____ _____    ______ ____
ROOT
ATOM      1  C   LIG    1       26.217 -14.824   3.180  0.00  0.00    +0.095 C 
ENDROOT
BRANCH   1   2
ATOM      2  C   LIG    1       27.517 -14.833   4.088  0.00  0.00    +0.025 C 
ATOM      3  C   LIG    1       28.749 -14.057   3.564  0.00  0.00    +0.006 C 
ATOM      4  C   LIG    1       28.713 -12.550   3.776  0.00  0.00    +0.000 C 
ATOM      5  C   LIG    1       28.471 -12.173   5.231  0.00  0.00    +0.000 C 
ATOM      6  C   LIG    1       27.298 -12.918   5.856  0.00  0.00    +0.000 C 
ATOM      7  C   LIG    1       27.292 -14.421   5.568  0.00  0.00    +0.006 C 
ENDBRANCH   1   2
BRANCH   1   8
ATOM      8  C   LIG    1       25.287 -13.589   3.395  0.00  0.00    -0.016 A 
ATOM      9  C   LIG    1       25.143 -12.597   2.405  0.00  0.00    +0.006 A 
ATOM     10  C   LIG    1       24.222 -11.547   2.551  0.00  0.00    +0.000 A 
ATOM     11  C   LIG    1       23.438 -11.447   3.693  0.00  0.00    +0.000 A 
ATOM     12  C   LIG    1       23.583 -12.391   4.701  0.00  0.00    +0.000 A 
ATOM     13  C   LIG    1       24.489 -13.455   4.542  0.00  0.00    +0.006 A 
ENDBRANCH   1   8
BRANCH   1  14
ATOM     14  O   LIG    1       26.661 -14.805   1.812  0.00  0.00    -0.384 OA
ATOM     15  H   LIG    1       25.924 -15.135   1.268  0.00  0.00    +0.211 HD
ENDBRANCH   1  14
BRANCH   1  16
ATOM     16  C   LIG    1       25.367 -16.133   3.328  0.00  0.00    +0.055 C 
BRANCH  16  17
ATOM     17  C   LIG    1       26.172 -17.447   3.342  0.00  0.00    +0.087 C 
BRANCH  17  18
ATOM     18  N   LIG    1       25.354 -18.672   3.383  0.00  0.00    -0.302 NA
ATOM     19  C   LIG    1       25.857 -19.612   4.395  0.00  0.00    +0.084 C 
ATOM     20  C   LIG    1       24.737 -20.632   4.495  0.00  0.00    +0.017 C 
ATOM     21  C   LIG    1       23.471 -19.835   4.208  0.00  0.00    +0.017 C 
ATOM     22  C   LIG    1       23.953 -18.456   3.759  0.00  0.00    +0.084 C 
ENDBRANCH  17  18
ENDBRANCH  16  17
ENDBRANCH   1  16
TORSDOF 6
ENDMDL
MODEL 3
REMARK VINA RESULT:      -4.6      1.125      1.956
REMARK  Name = *****
REMARK                            x       y       z     vdW  Elec       q    Type
REMARK                         _______ _______ _______ _____ _____    ______ ____
ROOT
ATOM      1  C   LIG    1       25.862 -19.699   4.153  0.00  0.00    +0.095 C 
ENDROOT
BRANCH   1   2
ATOM      2  C   LIG    1       24.914 -20.914   4.520  0.00  0.00    +0.025 C 
ATOM      3  C   LIG    1       25.076 -21.536   5.928  0.00  0.00    +0.006 C 
ATOM      4  C   LIG    1       24.400 -20.775   7.060  0.00  0.00    +0.000 C 
ATOM      5  C   LIG    1       22.922 -20.527   6.794  0.00  0.00    +0.000 C 
ATOM      6  C   LIG    1       22.650 -19.951   5.409  0.00  0.00    +0.000 C 
ATOM      7  C   LIG    1       23.400 -20.666   4.282  0.00  0.00    +0.006 C 
ENDBRANCH   1   2
BRANCH   1   8
ATOM      8  C   LIG    1       27.149 -19.595   5.030  0.00  0.00    -0.016 A 
ATOM      9  C   LIG    1       28.124 -18.606   4.791  0.00  0.00    +0.006 A 
ATOM     10  C   LIG    1       29.224 -18.441   5.649  0.00  0.00    +0.000 A 
ATOM     11  C   LIG    1       29.391 -19.268   6.751  0.00  0.00    +0.000 A 
ATOM     12  C   LIG    1       28.466 -20.275   6.992  0.00  0.00    +0.000 A 
ATOM     13  C   LIG    1       27.352 -20.422   6.145  0.00  0.00    +0.006 A 
ENDBRANCH   1   8
BRANCH   1  14
ATOM     14  O   LIG    1       26.278 -19.887   2.788  0.00  0.00    -0.384 OA
ATOM     15  H   LIG    1       26.878 -20.653   2.775  0.00  0.00    +0.211 HD
ENDBRANCH   1  14
BRANCH   1  16
ATOM     16  C   LIG    1       25.117 -18.319   4.178  0.00  0.00    +0.055 C 
BRANCH  16  17
ATOM     17  C   LIG    1       25.684 -17.243   3.231  0.00  0.00    +0.087 C 
BRANCH  17  18
ATOM     18  N   LIG    1       25.875 -15.918   3.846  0.00  0.00    -0.302 NA
ATOM     19  C   LIG    1       26.983 -15.193   3.210  0.00  0.00    +0.084 C 
ATOM     20  C   LIG    1       26.822 -13.785   3.753  0.00  0.00    +0.017 C 
ATOM     21  C   LIG    1       25.320 -13.625   3.954  0.00  0.00    +0.017 C 
ATOM     22  C   LIG    1       24.729 -15.013   3.711  0.00  0.00    +0.084 C 
ENDBRANCH  17  18
ENDBRANCH  16  17
ENDBRANCH   1  16
TORSDOF 6
ENDMDL
MODEL 4
REMARK VINA RESULT:      -3.0      2.463      6.768
REMARK  Name = *****
REMARK                            x       y       z     vdW  Elec       q    Type
REMARK                         _______ _______ _______ _____ _____    ______ ____
ROOT
ATOM      1  C   LIG    1       25.833 -15.055   3.873  0.00  0.00    +0.095 C 
ENDROOT
BRANCH   1   2
ATOM      2  C   LIG    1       24.738 -14.464   2.892  0.00  0.00    +0.025 C 
ATOM      3  C   LIG    1       23.489 -13.815   3.536  0.00  0.00    +0.006 C 
ATOM      4  C   LIG    1       23.679 -12.393   4.045  0.00  0.00    +0.000 C 
ATOM      5  C   LIG    1       24.227 -11.461   2.974  0.00  0.00    +0.000 C 
ATOM      6  C   LIG    1       25.439 -12.028   2.246  0.00  0.00    +0.000 C 
ATOM      7  C   LIG    1       25.275 -13.487   1.812  0.00  0.00    +0.006 C 
ENDBRANCH   1   2
BRANCH   1   8
ATOM      8  C   LIG    1       27.016 -14.084   4.182  0.00  0.00    -0.016 A 
ATOM      9  C   LIG    1       28.059 -13.880   3.257  0.00  0.00    +0.006 A 
ATOM     10  C   LIG    1       29.062 -12.923   3.486  0.00  0.00    +0.000 A 
ATOM     11  C   LIG    1       29.062 -12.163   4.648  0.00  0.00    +0.000 A 
ATOM     12  C   LIG    1       28.066 -12.367   5.595  0.00  0.00    +0.000 A 
ATOM     13  C   LIG    1       27.049 -13.309   5.351  0.00  0.00    +0.006 A 
ENDBRANCH   1   8
BRANCH   1  14
ATOM     14  O   LIG    1       25.170 -15.346   5.117  0.00  0.00    -0.384 OA
ATOM     15  H   LIG    1       24.370 -14.793   5.150  0.00  0.00    +0.211 HD
ENDBRANCH   1  14
BRANCH   1  16
ATOM     16  C   LIG    1       26.415 -16.424   3.377  0.00  0.00    +0.055 C 
BRANCH  16  17
ATOM     17  C   LIG    1       25.369 -17.466   2.935  0.00  0.00    +0.087 C 
BRANCH  17  18
ATOM     18  N   LIG    1       24.866 -18.333   4.015  0.00  0.00    -0.302 NA
ATOM     19  C   LIG    1       23.429 -18.599   3.855  0.00  0.00    +0.084 C 
ATOM     20  C   LIG    1       23.181 -19.719   4.849  0.00  0.00    +0.017 C 
ATOM     21  C   LIG    1       24.490 -20.499   4.877  0.00  0.00    +0.017 C 
ATOM     22  C   LIG    1       25.475 -19.665   4.059  0.00  0.00    +0.084 C 
ENDBRANCH  17  18
ENDBRANCH  16  17
ENDBRANCH   1  16
TORSDOF 6
ENDMDL
