MODEL 1
REMARK VINA RESULT:      -4.9      0.000      0.000
REMARK  Name = *****
REMARK                            x       y       z     vdW  Elec       q    Type
REMARK                         _______ _______ _______ _____ _____    ______ ____
ROOT
ATOM      1  S   LIG    1       23.857 -14.575   4.102  0.00  0.00    +0.102 S 
ATOM      2  O   LIG    1       23.177 -14.082   2.920  0.00  0.00    -0.146 OA
ATOM      3  O   LIG    1       23.375 -14.208   5.423  0.00  0.00    -0.146 OA
ENDROOT
BRANCH   1   7
ATOM      4  C   LIG    1       28.201 -13.162   3.854  0.00  0.00    +0.025 A 
ATOM      5  C   LIG    1       27.564 -13.710   2.736  0.00  0.00    +0.024 A 
ATOM      6  C   LIG    1       26.245 -14.163   2.816  0.00  0.00    +0.031 A 
ATOM      7  C   LIG    1       25.546 -14.025   4.019  0.00  0.00    +0.113 A 
ATOM      8  C   LIG    1       26.147 -13.431   5.127  0.00  0.00    +0.031 A 
ATOM      9  C   LIG    1       27.466 -12.981   5.030  0.00  0.00    +0.024 A 
BRANCH   4  10
ATOM     10  N   LIG    1       29.473 -12.592   3.728  0.00  0.00    -0.358 N 
ATOM     11  H   LIG    1       30.213 -13.269   3.569  0.00  0.00    +0.142 HD
ATOM     12  H   LIG    1       29.705 -11.941   4.473  0.00  0.00    +0.142 HD
ENDBRANCH   4  10
ENDBRANCH   1   7
BRANCH   1  13
ATOM     13  N   LIG    1       23.990 -16.177   3.987  0.00  0.00    -0.091 NA
ATOM     14  C   LIG    1       23.075 -16.978   4.408  0.00  0.00    +0.239 C 
BRANCH  14  15
ATOM     15  C   LIG    1       23.183 -18.455   4.312  0.00  0.00    +0.038 A 
ATOM     16  C   LIG    1       22.306 -19.288   5.019  0.00  0.00    +0.013 A 
ATOM     17  C   LIG    1       22.426 -20.675   4.931  0.00  0.00    +0.001 A 
ATOM     18  C   LIG    1       23.424 -21.238   4.139  0.00  0.00    +0.000 A 
ATOM     19  C   LIG    1       24.302 -20.418   3.432  0.00  0.00    +0.001 A 
ATOM     20  C   LIG    1       24.185 -19.028   3.516  0.00  0.00    +0.013 A 
ENDBRANCH  14  15
BRANCH  14  21
ATOM     21  O   LIG    1       21.922 -16.621   5.006  0.00  0.00    -0.491 OA
ATOM     22  H   LIG    1       21.865 -15.658   5.177  0.00  0.00    +0.294 HD
ENDBRANCH  14  21
ENDBRANCH   1  13
TORSDOF 5
ENDMDL
MODEL 2
REMARK VINA RESULT:      -4.6      3.588      6.382
REMARK  Name = *****
REMARK                            x       y       z     vdW  Elec       q    Type
REMARK                         _______ _______ _______ _____ _____    ______ ____
ROOT
ATOM      1  S   LIG    1       24.158 -19.660   4.091  0.00  0.00    +0.102 S 
ATOM      2  O   LIG    1       23.011 -20.141   4.836  0.00  0.00    -0.146 OA
ATOM      3  O   LIG    1       24.378 -20.109   2.726  0.00  0.00    -0.146 OA
ENDROOT
BRANCH   1   7
ATOM      4  C   LIG    1       27.897 -20.837   6.450  0.00  0.00    +0.025 A 
ATOM      5  C   LIG    1       26.672 -21.469   6.691  0.00  0.00    +0.024 A 
ATOM      6  C   LIG    1       25.525 -21.094   5.988  0.00  0.00    +0.031 A 
ATOM      7  C   LIG    1       25.618 -20.107   5.003  0.00  0.00    +0.113 A 
ATOM      8  C   LIG    1       26.840 -19.505   4.710  0.00  0.00    +0.031 A 
ATOM      9  C   LIG    1       27.979 -19.892   5.421  0.00  0.00    +0.024 A 
BRANCH   4  10
ATOM     10  N   LIG    1       29.063 -21.309   7.062  0.00  0.00    -0.358 N 
ATOM     11  H   LIG    1       29.918 -20.999   6.611  0.00  0.00    +0.142 HD
ATOM     12  H   LIG    1       29.062 -22.311   7.229  0.00  0.00    +0.142 HD
ENDBRANCH   4  10
ENDBRANCH   1   7
BRANCH   1  13
ATOM     13  N   LIG    1       24.171 -18.049   4.150  0.00  0.00    -0.091 NA
ATOM     14  C   LIG    1       25.068 -17.343   3.556  0.00  0.00    +0.239 C 
BRANCH  14  15
ATOM     15  C   LIG    1       25.095 -15.860   3.603  0.00  0.00    +0.038 A 
ATOM     16  C   LIG    1       23.984 -15.135   4.057  0.00  0.00    +0.013 A 
ATOM     17  C   LIG    1       24.016 -13.741   4.085  0.00  0.00    +0.001 A 
ATOM     18  C   LIG    1       25.155 -13.063   3.658  0.00  0.00    +0.000 A 
ATOM     19  C   LIG    1       26.265 -13.775   3.204  0.00  0.00    +0.001 A 
ATOM     20  C   LIG    1       26.238 -15.171   3.176  0.00  0.00    +0.013 A 
ENDBRANCH  14  15
BRANCH  14  21
ATOM     21  O   LIG    1       26.107 -17.818   2.842  0.00  0.00    -0.491 OA
ATOM     22  H   LIG    1       25.827 -18.384   2.094  0.00  0.00    +0.294 HD
ENDBRANCH  14  21
ENDBRANCH   1  13
TORSDOF 5
ENDMDL
MODEL 3
REMARK VINA RESULT:      -4.5      3.131      7.000
REMARK  Name = *****
REMARK                            x       y       z     vdW  Elec       q    Type
REMARK                         _______ _______ _______ _____ _____    ______ ____
ROOT
ATOM      1  S   LIG    1       26.108 -18.261   3.365  0.00  0.00    +0.102 S 
ATOM      2  O   LIG    1       26.050 -18.818   2.028  0.00  0.00    -0.146 OA
ATOM      3  O   LIG    1       27.387 -18.134   4.043  0.00  0.00    -0.146 OA
ENDROOT
BRANCH   1   7
ATOM      4  C   LIG    1       23.511 -20.871   6.080  0.00  0.00    +0.025 A 
ATOM      5  C   LIG    1       24.907 -20.957   6.129  0.00  0.00    +0.024 A 
ATOM      6  C   LIG    1       25.700 -20.178   5.284  0.00  0.00    +0.031 A 
ATOM      7  C   LIG    1       25.088 -19.272   4.414  0.00  0.00    +0.113 A 
ATOM      8  C   LIG    1       23.702 -19.132   4.390  0.00  0.00    +0.031 A 
ATOM      9  C   LIG    1       22.922 -19.918   5.242  0.00  0.00    +0.024 A 
BRANCH   4  10
ATOM     10  N   LIG    1       22.732 -21.555   7.019  0.00  0.00    -0.358 N 
ATOM     11  H   LIG    1       22.035 -20.975   7.476  0.00  0.00    +0.142 HD
ATOM     12  H   LIG    1       23.275 -22.097   7.686  0.00  0.00    +0.142 HD
ENDBRANCH   4  10
ENDBRANCH   1   7
BRANCH   1  13
ATOM     13  N   LIG    1       25.340 -16.844   3.366  0.00  0.00    -0.091 NA
ATOM     14  C   LIG    1       25.964 -15.720   3.308  0.00  0.00    +0.239 C 
BRANCH  14  15
ATOM     15  C   LIG    1       25.271 -14.408   3.311  0.00  0.00    +0.038 A 
ATOM     16  C   LIG    1       25.307 -13.574   2.185  0.00  0.00    +0.013 A 
ATOM     17  C   LIG    1       24.663 -12.337   2.203  0.00  0.00    +0.001 A 
ATOM     18  C   LIG    1       23.982 -11.924   3.346  0.00  0.00    +0.000 A 
ATOM     19  C   LIG    1       23.941 -12.746   4.472  0.00  0.00    +0.001 A 
ATOM     20  C   LIG    1       24.584 -13.987   4.457  0.00  0.00    +0.013 A 
ENDBRANCH  14  15
BRANCH  14  21
ATOM     21  O   LIG    1       27.301 -15.556   3.265  0.00  0.00    -0.491 OA
ATOM     22  H   LIG    1       27.571 -14.790   2.717  0.00  0.00    +0.294 HD
ENDBRANCH  14  21
ENDBRANCH   1  13
TORSDOF 5
ENDMDL
MODEL 4
REMARK VINA RESULT:      -3.4      2.930      3.609
REMARK  Name = *****
REMARK                            x       y       z     vdW  Elec       q    Type
REMARK                         _______ _______ _______ _____ _____    ______ ____
ROOT
ATOM      1  S   LIG    1       26.777 -15.233   3.217  0.00  0.00    +0.102 S 
ATOM      2  O   LIG    1       27.966 -15.308   4.043  0.00  0.00    -0.146 OA
ATOM      3  O   LIG    1       26.885 -14.843   1.822  0.00  0.00    -0.146 OA
ENDROOT
BRANCH   1   7
ATOM      4  C   LIG    1       23.903 -12.244   5.150  0.00  0.00    +0.025 A 
ATOM      5  C   LIG    1       23.476 -13.073   4.108  0.00  0.00    +0.024 A 
ATOM      6  C   LIG    1       24.358 -13.970   3.501  0.00  0.00    +0.031 A 
ATOM      7  C   LIG    1       25.670 -14.065   3.975  0.00  0.00    +0.113 A 
ATOM      8  C   LIG    1       26.098 -13.287   5.048  0.00  0.00    +0.031 A 
ATOM      9  C   LIG    1       25.203 -12.395   5.646  0.00  0.00    +0.024 A 
BRANCH   4  10
ATOM     10  N   LIG    1       22.981 -11.447   5.837  0.00  0.00    -0.358 N 
ATOM     11  H   LIG    1       22.272 -11.031   5.240  0.00  0.00    +0.142 HD
ATOM     12  H   LIG    1       23.409 -10.763   6.454  0.00  0.00    +0.142 HD
ENDBRANCH   4  10
ENDBRANCH   1   7
BRANCH   1  13
ATOM     13  N   LIG    1       25.976 -16.627   3.341  0.00  0.00    -0.091 NA
ATOM     14  C   LIG    1       26.519 -17.695   3.810  0.00  0.00    +0.239 C 
BRANCH  14  15
ATOM     15  C   LIG    1       25.796 -18.986   3.927  0.00  0.00    +0.038 A 
ATOM     16  C   LIG    1       24.724 -19.291   3.077  0.00  0.00    +0.013 A 
ATOM     17  C   LIG    1       24.045 -20.502   3.205  0.00  0.00    +0.001 A 
ATOM     18  C   LIG    1       24.429 -21.414   4.184  0.00  0.00    +0.000 A 
ATOM     19  C   LIG    1       25.493 -21.121   5.036  0.00  0.00    +0.001 A 
ATOM     20  C   LIG    1       26.178 -19.909   4.910  0.00  0.00    +0.013 A 
ENDBRANCH  14  15
BRANCH  14  21
ATOM     21  O   LIG    1       27.792 -17.819   4.231  0.00  0.00    -0.491 OA
ATOM     22  H   LIG    1       28.442 -17.490   3.576  0.00  0.00    +0.294 HD
ENDBRANCH  14  21
ENDBRANCH   1  13
TORSDOF 5
ENDMDL
MODEL 5
REMARK VINA RESULT:      -2.9      1.644      6.678
REMARK  Name = *****
REMARK                            x       y       z     vdW  Elec       q    Type
REMARK                         _______ _______ _______ _____ _____    ______ ____
ROOT
ATOM      1  S   LIG    1       22.979 -15.657   4.440  0.00  0.00    +0.102 S 
ATOM      2  O   LIG    1       22.329 -15.382   5.707  0.00  0.00    -0.146 OA
ATOM      3  O   LIG    1       22.371 -15.208   3.199  0.00  0.00    -0.146 OA
ENDROOT
BRANCH   1   7
ATOM      4  C   LIG    1       23.464 -20.191   4.068  0.00  0.00    +0.025 A 
ATOM      5  C   LIG    1       24.470 -19.326   3.623  0.00  0.00    +0.024 A 
ATOM      6  C   LIG    1       24.313 -17.941   3.715  0.00  0.00    +0.031 A 
ATOM      7  C   LIG    1       23.155 -17.421   4.299  0.00  0.00    +0.113 A 
ATOM      8  C   LIG    1       22.167 -18.267   4.798  0.00  0.00    +0.031 A 
ATOM      9  C   LIG    1       22.339 -19.650   4.700  0.00  0.00    +0.024 A 
BRANCH   4  10
ATOM     10  N   LIG    1       23.686 -21.572   4.094  0.00  0.00    -0.358 N 
ATOM     11  H   LIG    1       24.392 -21.887   3.436  0.00  0.00    +0.142 HD
ATOM     12  H   LIG    1       22.835 -22.125   4.034  0.00  0.00    +0.142 HD
ENDBRANCH   4  10
ENDBRANCH   1   7
BRANCH   1  13
ATOM     13  N   LIG    1       24.505 -15.144   4.523  0.00  0.00    -0.091 NA
ATOM     14  C   LIG    1       24.879 -14.009   4.046  0.00  0.00    +0.239 C 
BRANCH  14  15
ATOM     15  C   LIG    1       26.281 -13.525   4.113  0.00  0.00    +0.038 A 
ATOM     16  C   LIG    1       27.048 -13.380   2.949  0.00  0.00    +0.013 A 
ATOM     17  C   LIG    1       28.368 -12.935   3.025  0.00  0.00    +0.001 A 
ATOM     18  C   LIG    1       28.930 -12.636   4.264  0.00  0.00    +0.000 A 
ATOM     19  C   LIG    1       28.176 -12.777   5.428  0.00  0.00    +0.001 A 
ATOM     20  C   LIG    1       26.853 -13.220   5.356  0.00  0.00    +0.013 A 
ENDBRANCH  14  15
BRANCH  14  21
ATOM     21  O   LIG    1       24.095 -13.119   3.408  0.00  0.00    -0.491 OA
ATOM     22  H   LIG    1       23.187 -13.454   3.257  0.00  0.00    +0.294 HD
ENDBRANCH  14  21
ENDBRANCH   1  13
TORSDOF 5
ENDMDL
MODEL 6
REMARK VINA RESULT:      -2.4      2.998      3.445
REMARK  Name = *****
REMARK                            x       y       z     vdW  Elec       q    Type
REMARK                         _______ _______ _______ _____ _____    ______ ____
ROOT
ATOM      1  S   LIG    1       26.340 -16.983   3.438  0.00  0.00    +0.102 S 
ATOM      2  O   LIG    1       27.473 -16.930   4.341  0.00  0.00    -0.146 OA
ATOM      3  O   LIG    1       26.533 -17.379   2.054  0.00  0.00    -0.146 OA
ENDROOT
BRANCH   1   7
ATOM      4  C   LIG    1       24.490 -12.802   3.299  0.00  0.00    +0.025 A 
ATOM      5  C   LIG    1       25.665 -13.085   2.597  0.00  0.00    +0.024 A 
ATOM      6  C   LIG    1       26.244 -14.355   2.657  0.00  0.00    +0.031 A 
ATOM      7  C   LIG    1       25.612 -15.361   3.394  0.00  0.00    +0.113 A 
ATOM      8  C   LIG    1       24.411 -15.112   4.056  0.00  0.00    +0.031 A 
ATOM      9  C   LIG    1       23.844 -13.837   3.985  0.00  0.00    +0.024 A 
BRANCH   4  10
ATOM     10  N   LIG    1       23.848 -11.570   3.127  0.00  0.00    -0.358 N 
ATOM     11  H   LIG    1       24.182 -10.842   3.751  0.00  0.00    +0.142 HD
ATOM     12  H   LIG    1       22.834 -11.633   3.123  0.00  0.00    +0.142 HD
ENDBRANCH   4  10
ENDBRANCH   1   7
BRANCH   1  13
ATOM     13  N   LIG    1       25.185 -17.882   4.114  0.00  0.00    -0.091 NA
ATOM     14  C   LIG    1       25.282 -19.160   4.225  0.00  0.00    +0.239 C 
BRANCH  14  15
ATOM     15  C   LIG    1       24.226 -20.002   4.842  0.00  0.00    +0.038 A 
ATOM     16  C   LIG    1       22.961 -20.117   4.251  0.00  0.00    +0.013 A 
ATOM     17  C   LIG    1       21.973 -20.901   4.847  0.00  0.00    +0.001 A 
ATOM     18  C   LIG    1       22.242 -21.572   6.037  0.00  0.00    +0.000 A 
ATOM     19  C   LIG    1       23.497 -21.463   6.635  0.00  0.00    +0.001 A 
ATOM     20  C   LIG    1       24.490 -20.680   6.040  0.00  0.00    +0.013 A 
ENDBRANCH  14  15
BRANCH  14  21
ATOM     21  O   LIG    1       26.307 -19.919   3.793  0.00  0.00    -0.491 OA
ATOM     22  H   LIG    1       26.303 -20.045   2.821  0.00  0.00    +0.294 HD
ENDBRANCH  14  21
ENDBRANCH   1  13
TORSDOF 5
ENDMDL
MODEL 7
REMARK VINA RESULT:      -2.2      3.148      4.087
REMARK  Name = *****
REMARK                            x       y       z     vdW  Elec       q    Type
REMARK                         _______ _______ _______ _____ _____    ______ ____
ROOT
ATOM      1  S   LIG    1       27.507 -14.350   3.236  0.00  0.00    +0.102 S 
ATOM      2  O   LIG    1       28.696 -13.658   3.695  0.00  0.00    -0.146 OA
ATOM      3  O   LIG    1       27.238 -14.463   1.812  0.00  0.00    -0.146 OA
ENDROOT
BRANCH   1   7
ATOM      4  C   LIG    1       23.902 -12.229   5.088  0.00  0.00    +0.025 A 
ATOM      5  C   LIG    1       24.950 -12.690   5.892  0.00  0.00    +0.024 A 
ATOM      6  C   LIG    1       26.040 -13.359   5.330  0.00  0.00    +0.031 A 
ATOM      7  C   LIG    1       26.100 -13.526   3.944  0.00  0.00    +0.113 A 
ATOM      8  C   LIG    1       25.092 -13.024   3.122  0.00  0.00    +0.031 A 
ATOM      9  C   LIG    1       24.009 -12.357   3.699  0.00  0.00    +0.024 A 
BRANCH   4  10
ATOM     10  N   LIG    1       22.883 -11.447   5.643  0.00  0.00    -0.358 N 
ATOM     11  H   LIG    1       22.865 -11.455   6.658  0.00  0.00    +0.142 HD
ATOM     12  H   LIG    1       21.966 -11.626   5.244  0.00  0.00    +0.142 HD
ENDBRANCH   4  10
ENDBRANCH   1   7
BRANCH   1  13
ATOM     13  N   LIG    1       27.462 -15.806   3.924  0.00  0.00    -0.091 NA
ATOM     14  C   LIG    1       26.633 -16.719   3.555  0.00  0.00    +0.239 C 
BRANCH  14  15
ATOM     15  C   LIG    1       26.578 -18.064   4.180  0.00  0.00    +0.038 A 
ATOM     16  C   LIG    1       27.656 -18.554   4.929  0.00  0.00    +0.013 A 
ATOM     17  C   LIG    1       27.597 -19.825   5.502  0.00  0.00    +0.001 A 
ATOM     18  C   LIG    1       26.463 -20.614   5.327  0.00  0.00    +0.000 A 
ATOM     19  C   LIG    1       25.385 -20.136   4.583  0.00  0.00    +0.001 A 
ATOM     20  C   LIG    1       25.439 -18.863   4.009  0.00  0.00    +0.013 A 
ENDBRANCH  14  15
BRANCH  14  21
ATOM     21  O   LIG    1       25.698 -16.600   2.593  0.00  0.00    -0.491 OA
ATOM     22  H   LIG    1       25.020 -15.924   2.804  0.00  0.00    +0.294 HD
ENDBRANCH  14  21
ENDBRANCH   1  13
TORSDOF 5
ENDMDL
MODEL 8
REMARK VINA RESULT:      -1.9      3.279      4.012
REMARK  Name = *****
REMARK                            x       y       z     vdW  Elec       q    Type
REMARK                         _______ _______ _______ _____ _____    ______ ____
ROOT
ATOM      1  S   LIG    1       27.597 -14.268   3.211  0.00  0.00    +0.102 S 
ATOM      2  O   LIG    1       28.810 -13.560   3.570  0.00  0.00    -0.146 OA
ATOM      3  O   LIG    1       27.245 -14.441   1.812  0.00  0.00    -0.146 OA
ENDROOT
BRANCH   1   7
ATOM      4  C   LIG    1       24.067 -12.077   5.125  0.00  0.00    +0.025 A 
ATOM      5  C   LIG    1       24.034 -12.442   3.775  0.00  0.00    +0.024 A 
ATOM      6  C   LIG    1       25.120 -13.091   3.184  0.00  0.00    +0.031 A 
ATOM      7  C   LIG    1       26.233 -13.414   3.966  0.00  0.00    +0.113 A 
ATOM      8  C   LIG    1       26.261 -13.108   5.325  0.00  0.00    +0.031 A 
ATOM      9  C   LIG    1       25.166 -12.460   5.902  0.00  0.00    +0.024 A 
BRANCH   4  10
ATOM     10  N   LIG    1       22.926 -11.550   5.739  0.00  0.00    -0.358 N 
ATOM     11  H   LIG    1       22.058 -11.797   5.273  0.00  0.00    +0.142 HD
ATOM     12  H   LIG    1       22.987 -10.553   5.929  0.00  0.00    +0.142 HD
ENDBRANCH   4  10
ENDBRANCH   1   7
BRANCH   1  13
ATOM     13  N   LIG    1       27.595 -15.695   3.962  0.00  0.00    -0.091 NA
ATOM     14  C   LIG    1       26.854 -16.675   3.579  0.00  0.00    +0.239 C 
BRANCH  14  15
ATOM     15  C   LIG    1       26.838 -17.993   4.261  0.00  0.00    +0.038 A 
ATOM     16  C   LIG    1       25.702 -18.813   4.216  0.00  0.00    +0.013 A 
ATOM     17  C   LIG    1       25.694 -20.044   4.871  0.00  0.00    +0.001 A 
ATOM     18  C   LIG    1       26.820 -20.463   5.577  0.00  0.00    +0.000 A 
ATOM     19  C   LIG    1       27.954 -19.654   5.630  0.00  0.00    +0.001 A 
ATOM     20  C   LIG    1       27.967 -18.421   4.973  0.00  0.00    +0.013 A 
ENDBRANCH  14  15
BRANCH  14  21
ATOM     21  O   LIG    1       25.983 -16.658   2.551  0.00  0.00    -0.491 OA
ATOM     22  H   LIG    1       25.640 -17.548   2.329  0.00  0.00    +0.294 HD
ENDBRANCH  14  21
ENDBRANCH   1  13
TORSDOF 5
ENDMDL
