MODEL 1
REMARK VINA RESULT:      -6.0      0.000      0.000
REMARK  Name = *****
REMARK                            x       y       z     vdW  Elec       q    Type
REMARK                         _______ _______ _______ _____ _____    ______ ____
ROOT
ATOM      1  C   LIG    1       27.541 -28.424  15.500  0.00  0.00    +0.042 C 
ATOM      2  C   LIG    1       27.577 -28.319  13.963  0.00  0.00    +0.069 C 
ATOM      3  C   LIG    1       26.664 -28.825  12.742  0.00  0.00    +0.002 C 
ATOM      4  C   LIG    1       25.737 -27.634  12.454  0.00  0.00    +0.004 C 
ATOM      5  C   LIG    1       24.498 -27.675  13.410  0.00  0.00    +0.034 C 
ATOM      6  C   LIG    1       23.555 -28.812  12.896  0.00  0.00    +0.149 C 
ATOM      7  C   LIG    1       24.312 -30.163  12.901  0.00  0.00    +0.153 C 
ATOM      8  F   LIG    1       23.424 -28.527  11.518  0.00  0.00    -0.238 F 
ATOM      9  C   LIG    1       22.015 -28.800  13.371  0.00  0.00    +0.026 C 
ATOM     10  C   LIG    1       21.615 -27.324  13.197  0.00  0.00    -0.057 C 
ATOM     11  C   LIG    1       20.343 -27.032  12.874  0.00  0.00    +0.046 C 
ATOM     12  C   LIG    1       19.661 -27.140  14.203  0.00  0.00    +0.156 C 
ATOM     13  C   LIG    1       19.964 -28.437  14.987  0.00  0.00    +0.080 C 
ATOM     14  O   LIG    1       18.848 -26.285  14.569  0.00  0.00    -0.293 OA
ATOM     15  C   LIG    1       22.437 -26.372  14.045  0.00  0.00    +0.032 C 
ATOM     16  C   LIG    1       21.244 -29.875  12.540  0.00  0.00    +0.019 C 
ATOM     17  C   LIG    1       21.442 -29.034  14.824  0.00  0.00    +0.022 C 
ATOM     18  C   LIG    1       23.833 -26.291  13.443  0.00  0.00    +0.011 C 
ATOM     19  C   LIG    1       26.691 -26.449  12.549  0.00  0.00    +0.007 C 
ATOM     20  C   LIG    1       27.672 -28.957  11.505  0.00  0.00    +0.014 C 
ATOM     21  C   LIG    1       25.864 -30.148  12.717  0.00  0.00    +0.044 C 
ATOM     22  C   LIG    1       27.548 -26.762  13.762  0.00  0.00    +0.035 C 
ENDROOT
BRANCH   2  23
ATOM     23  O   LIG    1       28.854 -28.949  13.729  0.00  0.00    -0.388 OA
ATOM     24  H   LIG    1       29.165 -29.282  14.606  0.00  0.00    +0.210 HD
ENDBRANCH   2  23
BRANCH   7  25
ATOM     25  O   LIG    1       23.807 -30.948  11.783  0.00  0.00    -0.389 OA
ATOM     26  H   LIG    1       23.877 -30.362  10.992  0.00  0.00    +0.210 HD
ENDBRANCH   7  25
TORSDOF 2
ENDMDL
MODEL 2
REMARK VINA RESULT:      -5.8      9.338     12.270
REMARK  Name = *****
REMARK                            x       y       z     vdW  Elec       q    Type
REMARK                         _______ _______ _______ _____ _____    ______ ____
ROOT
ATOM      1  C   LIG    1       23.325 -20.940   7.869  0.00  0.00    +0.042 C 
ATOM      2  C   LIG    1       23.811 -21.628   6.578  0.00  0.00    +0.069 C 
ATOM      3  C   LIG    1       24.891 -21.317   5.431  0.00  0.00    +0.002 C 
ATOM      4  C   LIG    1       26.149 -22.070   5.891  0.00  0.00    +0.004 C 
ATOM      5  C   LIG    1       26.957 -21.193   6.904  0.00  0.00    +0.034 C 
ATOM      6  C   LIG    1       27.669 -20.071   6.080  0.00  0.00    +0.149 C 
ATOM      7  C   LIG    1       26.612 -19.225   5.327  0.00  0.00    +0.153 C 
ATOM      8  F   LIG    1       28.304 -20.785   5.040  0.00  0.00    -0.238 F 
ATOM      9  C   LIG    1       28.918 -19.306   6.750  0.00  0.00    +0.026 C 
ATOM     10  C   LIG    1       29.739 -20.458   7.357  0.00  0.00    -0.057 C 
ATOM     11  C   LIG    1       31.077 -20.336   7.422  0.00  0.00    +0.046 C 
ATOM     12  C   LIG    1       31.243 -19.476   8.637  0.00  0.00    +0.156 C 
ATOM     13  C   LIG    1       30.365 -18.204   8.659  0.00  0.00    +0.080 C 
ATOM     14  O   LIG    1       32.097 -19.741   9.488  0.00  0.00    -0.293 OA
ATOM     15  C   LIG    1       28.982 -21.251   8.405  0.00  0.00    +0.032 C 
ATOM     16  C   LIG    1       29.591 -18.422   5.651  0.00  0.00    +0.019 C 
ATOM     17  C   LIG    1       28.913 -18.334   7.995  0.00  0.00    +0.022 C 
ATOM     18  C   LIG    1       27.928 -22.087   7.692  0.00  0.00    +0.011 C 
ATOM     19  C   LIG    1       25.574 -23.397   6.374  0.00  0.00    +0.007 C 
ATOM     20  C   LIG    1       24.334 -22.066   4.130  0.00  0.00    +0.014 C 
ATOM     21  C   LIG    1       25.265 -19.906   4.919  0.00  0.00    +0.044 C 
ATOM     22  C   LIG    1       24.325 -23.002   7.139  0.00  0.00    +0.035 C 
ENDROOT
BRANCH   2  23
ATOM     23  O   LIG    1       22.554 -21.680   5.871  0.00  0.00    -0.388 OA
ATOM     24  H   LIG    1       21.851 -21.486   6.537  0.00  0.00    +0.210 HD
ENDBRANCH   2  23
BRANCH   7  25
ATOM     25  O   LIG    1       27.214 -18.797   4.071  0.00  0.00    -0.389 OA
ATOM     26  H   LIG    1       27.880 -19.489   3.845  0.00  0.00    +0.210 HD
ENDBRANCH   7  25
TORSDOF 2
ENDMDL
MODEL 3
REMARK VINA RESULT:      -5.8      2.922      4.882
REMARK  Name = *****
REMARK                            x       y       z     vdW  Elec       q    Type
REMARK                         _______ _______ _______ _____ _____    ______ ____
ROOT
ATOM      1  C   LIG    1       25.142 -28.919   7.259  0.00  0.00    +0.042 C 
ATOM      2  C   LIG    1       25.433 -30.293   7.894  0.00  0.00    +0.069 C 
ATOM      3  C   LIG    1       26.117 -30.827   9.245  0.00  0.00    +0.002 C 
ATOM      4  C   LIG    1       24.936 -31.020  10.208  0.00  0.00    +0.004 C 
ATOM      5  C   LIG    1       24.588 -29.665  10.909  0.00  0.00    +0.034 C 
ATOM      6  C   LIG    1       25.697 -29.399  11.979  0.00  0.00    +0.149 C 
ATOM      7  C   LIG    1       27.083 -29.334  11.291  0.00  0.00    +0.153 C 
ATOM      8  F   LIG    1       25.755 -30.615  12.696  0.00  0.00    -0.238 F 
ATOM      9  C   LIG    1       25.383 -28.348  13.160  0.00  0.00    +0.026 C 
ATOM     10  C   LIG    1       23.962 -28.743  13.600  0.00  0.00    -0.057 C 
ATOM     11  C   LIG    1       23.612 -28.572  14.887  0.00  0.00    +0.046 C 
ATOM     12  C   LIG    1       23.299 -27.108  14.924  0.00  0.00    +0.156 C 
ATOM     13  C   LIG    1       24.384 -26.195  14.307  0.00  0.00    +0.080 C 
ATOM     14  O   LIG    1       22.290 -26.689  15.499  0.00  0.00    -0.293 OA
ATOM     15  C   LIG    1       22.932 -28.618  12.493  0.00  0.00    +0.032 C 
ATOM     16  C   LIG    1       26.534 -28.446  14.213  0.00  0.00    +0.019 C 
ATOM     17  C   LIG    1       25.174 -26.787  13.045  0.00  0.00    +0.022 C 
ATOM     18  C   LIG    1       23.171 -29.744  11.498  0.00  0.00    +0.011 C 
ATOM     19  C   LIG    1       23.887 -31.666   9.310  0.00  0.00    +0.007 C 
ATOM     20  C   LIG    1       26.676 -32.281   8.874  0.00  0.00    +0.014 C 
ATOM     21  C   LIG    1       27.300 -30.146   9.974  0.00  0.00    +0.044 C 
ATOM     22  C   LIG    1       23.984 -30.888   8.011  0.00  0.00    +0.035 C 
ENDROOT
BRANCH   2  23
ATOM     23  O   LIG    1       26.249 -30.853   6.843  0.00  0.00    -0.388 OA
ATOM     24  H   LIG    1       26.860 -31.495   7.277  0.00  0.00    +0.210 HD
ENDBRANCH   2  23
BRANCH   7  25
ATOM     25  O   LIG    1       28.058 -29.872  12.230  0.00  0.00    -0.389 OA
ATOM     26  H   LIG    1       28.483 -30.634  11.768  0.00  0.00    +0.210 HD
ENDBRANCH   7  25
TORSDOF 2
ENDMDL
MODEL 4
REMARK VINA RESULT:      -5.7      1.966      3.543
REMARK  Name = *****
REMARK                            x       y       z     vdW  Elec       q    Type
REMARK                         _______ _______ _______ _____ _____    ______ ____
ROOT
ATOM      1  C   LIG    1       25.425 -28.910   8.752  0.00  0.00    +0.042 C 
ATOM      2  C   LIG    1       26.194 -29.484   9.958  0.00  0.00    +0.069 C 
ATOM      3  C   LIG    1       26.348 -29.123  11.516  0.00  0.00    +0.002 C 
ATOM      4  C   LIG    1       25.298 -30.006  12.207  0.00  0.00    +0.004 C 
ATOM      5  C   LIG    1       23.900 -29.304  12.173  0.00  0.00    +0.034 C 
ATOM      6  C   LIG    1       23.937 -28.149  13.227  0.00  0.00    +0.149 C 
ATOM      7  C   LIG    1       25.072 -27.155  12.875  0.00  0.00    +0.153 C 
ATOM      8  F   LIG    1       24.423 -28.786  14.390  0.00  0.00    -0.238 F 
ATOM      9  C   LIG    1       22.537 -27.549  13.753  0.00  0.00    +0.026 C 
ATOM     10  C   LIG    1       21.703 -28.815  14.021  0.00  0.00    -0.057 C 
ATOM     11  C   LIG    1       20.792 -28.792  15.010  0.00  0.00    +0.046 C 
ATOM     12  C   LIG    1       19.648 -28.085  14.353  0.00  0.00    +0.156 C 
ATOM     13  C   LIG    1       20.022 -26.765  13.639  0.00  0.00    +0.080 C 
ATOM     14  O   LIG    1       18.491 -28.499  14.476  0.00  0.00    -0.293 OA
ATOM     15  C   LIG    1       21.482 -29.665  12.784  0.00  0.00    +0.032 C 
ATOM     16  C   LIG    1       22.839 -26.598  14.956  0.00  0.00    +0.019 C 
ATOM     17  C   LIG    1       21.464 -26.723  12.941  0.00  0.00    +0.022 C 
ATOM     18  C   LIG    1       22.800 -30.343  12.438  0.00  0.00    +0.011 C 
ATOM     19  C   LIG    1       25.463 -31.336  11.480  0.00  0.00    +0.007 C 
ATOM     20  C   LIG    1       27.791 -29.685  11.925  0.00  0.00    +0.014 C 
ATOM     21  C   LIG    1       26.322 -27.694  12.106  0.00  0.00    +0.044 C 
ATOM     22  C   LIG    1       25.616 -30.943  10.022  0.00  0.00    +0.035 C 
ENDROOT
BRANCH   2  23
ATOM     23  O   LIG    1       27.535 -29.372   9.438  0.00  0.00    -0.388 OA
ATOM     24  H   LIG    1       27.483 -29.603   8.480  0.00  0.00    +0.210 HD
ENDBRANCH   2  23
BRANCH   7  25
ATOM     25  O   LIG    1       25.597 -26.635  14.130  0.00  0.00    -0.389 OA
ATOM     26  H   LIG    1       26.106 -25.823  13.891  0.00  0.00    +0.210 HD
ENDBRANCH   7  25
TORSDOF 2
ENDMDL
MODEL 5
REMARK VINA RESULT:      -5.7      2.764      4.398
REMARK  Name = *****
REMARK                            x       y       z     vdW  Elec       q    Type
REMARK                         _______ _______ _______ _____ _____    ______ ____
ROOT
ATOM      1  C   LIG    1       24.507 -29.015   7.399  0.00  0.00    +0.042 C 
ATOM      2  C   LIG    1       25.056 -30.240   8.156  0.00  0.00    +0.069 C 
ATOM      3  C   LIG    1       25.531 -30.562   9.656  0.00  0.00    +0.002 C 
ATOM      4  C   LIG    1       24.278 -31.147  10.324  0.00  0.00    +0.004 C 
ATOM      5  C   LIG    1       23.363 -29.992  10.852  0.00  0.00    +0.034 C 
ATOM      6  C   LIG    1       24.043 -29.414  12.137  0.00  0.00    +0.149 C 
ATOM      7  C   LIG    1       25.459 -28.893  11.790  0.00  0.00    +0.153 C 
ATOM      8  F   LIG    1       24.309 -30.566  12.910  0.00  0.00    -0.238 F 
ATOM      9  C   LIG    1       23.141 -28.549  13.154  0.00  0.00    +0.026 C 
ATOM     10  C   LIG    1       21.855 -29.388  13.269  0.00  0.00    -0.057 C 
ATOM     11  C   LIG    1       21.173 -29.371  14.428  0.00  0.00    +0.046 C 
ATOM     12  C   LIG    1       20.415 -28.085  14.314  0.00  0.00    +0.156 C 
ATOM     13  C   LIG    1       21.269 -26.858  13.921  0.00  0.00    +0.080 C 
ATOM     14  O   LIG    1       19.218 -28.025  14.615  0.00  0.00    -0.293 OA
ATOM     15  C   LIG    1       21.134 -29.570  11.948  0.00  0.00    +0.032 C 
ATOM     16  C   LIG    1       23.977 -28.302  14.451  0.00  0.00    +0.019 C 
ATOM     17  C   LIG    1       22.483 -27.134  12.912  0.00  0.00    +0.022 C 
ATOM     18  C   LIG    1       21.946 -30.534  11.096  0.00  0.00    +0.011 C 
ATOM     19  C   LIG    1       23.733 -32.071   9.241  0.00  0.00    +0.007 C 
ATOM     20  C   LIG    1       26.592 -31.752   9.502  0.00  0.00    +0.014 C 
ATOM     21  C   LIG    1       26.229 -29.558  10.604  0.00  0.00    +0.044 C 
ATOM     22  C   LIG    1       23.886 -31.268   7.962  0.00  0.00    +0.035 C 
ENDROOT
BRANCH   2  23
ATOM     23  O   LIG    1       26.233 -30.483   7.356  0.00  0.00    -0.388 OA
ATOM     24  H   LIG    1       27.002 -30.447   7.974  0.00  0.00    +0.210 HD
ENDBRANCH   2  23
BRANCH   7  25
ATOM     25  O   LIG    1       26.301 -29.115  12.958  0.00  0.00    -0.389 OA
ATOM     26  H   LIG    1       25.995 -28.465  13.636  0.00  0.00    +0.210 HD
ENDBRANCH   7  25
TORSDOF 2
ENDMDL
MODEL 6
REMARK VINA RESULT:      -5.7      3.562      5.203
REMARK  Name = *****
REMARK                            x       y       z     vdW  Elec       q    Type
REMARK                         _______ _______ _______ _____ _____    ______ ____
ROOT
ATOM      1  C   LIG    1       24.548 -28.849   6.596  0.00  0.00    +0.042 C 
ATOM      2  C   LIG    1       25.081 -30.240   6.992  0.00  0.00    +0.069 C 
ATOM      3  C   LIG    1       25.711 -30.912   8.308  0.00  0.00    +0.002 C 
ATOM      4  C   LIG    1       24.506 -31.559   9.007  0.00  0.00    +0.004 C 
ATOM      5  C   LIG    1       23.767 -30.500   9.890  0.00  0.00    +0.034 C 
ATOM      6  C   LIG    1       24.648 -30.259  11.159  0.00  0.00    +0.149 C 
ATOM      7  C   LIG    1       26.049 -29.755  10.735  0.00  0.00    +0.153 C 
ATOM      8  F   LIG    1       24.909 -31.567  11.626  0.00  0.00    -0.238 F 
ATOM      9  C   LIG    1       23.959 -29.592  12.453  0.00  0.00    +0.026 C 
ATOM     10  C   LIG    1       22.630 -30.361  12.569  0.00  0.00    -0.057 C 
ATOM     11  C   LIG    1       22.103 -30.562  13.789  0.00  0.00    +0.046 C 
ATOM     12  C   LIG    1       21.449 -29.242  14.058  0.00  0.00    +0.156 C 
ATOM     13  C   LIG    1       22.350 -28.009  13.817  0.00  0.00    +0.080 C 
ATOM     14  O   LIG    1       20.309 -29.183  14.530  0.00  0.00    -0.293 OA
ATOM     15  C   LIG    1       21.736 -30.205  11.354  0.00  0.00    +0.032 C 
ATOM     16  C   LIG    1       24.969 -29.684  13.642  0.00  0.00    +0.019 C 
ATOM     17  C   LIG    1       23.399 -28.123  12.611  0.00  0.00    +0.022 C 
ATOM     18  C   LIG    1       22.350 -31.002  10.211  0.00  0.00    +0.011 C 
ATOM     19  C   LIG    1       23.752 -32.188   7.841  0.00  0.00    +0.007 C 
ATOM     20  C   LIG    1       26.638 -32.097   7.758  0.00  0.00    +0.014 C 
ATOM     21  C   LIG    1       26.605 -30.184   9.338  0.00  0.00    +0.044 C 
ATOM     22  C   LIG    1       23.812 -31.133   6.751  0.00  0.00    +0.035 C 
ENDROOT
BRANCH   2  23
ATOM     23  O   LIG    1       26.123 -30.366   6.001  0.00  0.00    -0.388 OA
ATOM     24  H   LIG    1       26.108 -31.306   5.699  0.00  0.00    +0.210 HD
ENDBRANCH   2  23
BRANCH   7  25
ATOM     25  O   LIG    1       27.009 -30.277  11.699  0.00  0.00    -0.389 OA
ATOM     26  H   LIG    1       26.642 -30.054  12.588  0.00  0.00    +0.210 HD
ENDBRANCH   7  25
TORSDOF 2
ENDMDL
MODEL 7
REMARK VINA RESULT:      -5.6      8.850     11.770
REMARK  Name = *****
REMARK                            x       y       z     vdW  Elec       q    Type
REMARK                         _______ _______ _______ _____ _____    ______ ____
ROOT
ATOM      1  C   LIG    1       25.197 -24.494   5.605  0.00  0.00    +0.042 C 
ATOM      2  C   LIG    1       24.357 -23.218   5.809  0.00  0.00    +0.069 C 
ATOM      3  C   LIG    1       24.376 -21.962   6.810  0.00  0.00    +0.002 C 
ATOM      4  C   LIG    1       25.178 -20.894   6.052  0.00  0.00    +0.004 C 
ATOM      5  C   LIG    1       26.711 -21.112   6.281  0.00  0.00    +0.034 C 
ATOM      6  C   LIG    1       27.034 -20.632   7.734  0.00  0.00    +0.149 C 
ATOM      7  C   LIG    1       26.195 -21.444   8.751  0.00  0.00    +0.153 C 
ATOM      8  F   LIG    1       26.447 -19.349   7.790  0.00  0.00    -0.238 F 
ATOM      9  C   LIG    1       28.566 -20.298   8.105  0.00  0.00    +0.026 C 
ATOM     10  C   LIG    1       29.040 -19.474   6.894  0.00  0.00    -0.057 C 
ATOM     11  C   LIG    1       29.966 -18.518   7.085  0.00  0.00    +0.046 C 
ATOM     12  C   LIG    1       31.228 -19.322   7.126  0.00  0.00    +0.156 C 
ATOM     13  C   LIG    1       31.192 -20.541   8.077  0.00  0.00    +0.080 C 
ATOM     14  O   LIG    1       32.234 -18.956   6.512  0.00  0.00    -0.293 OA
ATOM     15  C   LIG    1       28.967 -20.232   5.583  0.00  0.00    +0.032 C 
ATOM     16  C   LIG    1       28.586 -19.618   9.512  0.00  0.00    +0.019 C 
ATOM     17  C   LIG    1       29.785 -21.298   8.205  0.00  0.00    +0.022 C 
ATOM     18  C   LIG    1       27.501 -20.364   5.195  0.00  0.00    +0.011 C 
ATOM     19  C   LIG    1       24.629 -21.020   4.635  0.00  0.00    +0.007 C 
ATOM     20  C   LIG    1       22.855 -21.465   6.871  0.00  0.00    +0.014 C 
ATOM     21  C   LIG    1       24.813 -22.012   8.293  0.00  0.00    +0.044 C 
ATOM     22  C   LIG    1       24.522 -22.518   4.413  0.00  0.00    +0.035 C 
ENDROOT
BRANCH   2  23
ATOM     23  O   LIG    1       23.074 -23.835   6.044  0.00  0.00    -0.388 OA
ATOM     24  H   LIG    1       22.753 -23.487   6.910  0.00  0.00    +0.210 HD
ENDBRANCH   2  23
BRANCH   7  25
ATOM     25  O   LIG    1       25.887 -20.556   9.864  0.00  0.00    -0.389 OA
ATOM     26  H   LIG    1       26.459 -20.855  10.611  0.00  0.00    +0.210 HD
ENDBRANCH   7  25
TORSDOF 2
ENDMDL
MODEL 8
REMARK VINA RESULT:      -5.5      2.971      5.451
REMARK  Name = *****
REMARK                            x       y       z     vdW  Elec       q    Type
REMARK                         _______ _______ _______ _____ _____    ______ ____
ROOT
ATOM      1  C   LIG    1       23.455 -26.124  13.398  0.00  0.00    +0.042 C 
ATOM      2  C   LIG    1       24.735 -26.700  14.035  0.00  0.00    +0.069 C 
ATOM      3  C   LIG    1       25.426 -28.145  14.150  0.00  0.00    +0.002 C 
ATOM      4  C   LIG    1       26.414 -28.179  12.974  0.00  0.00    +0.004 C 
ATOM      5  C   LIG    1       25.677 -28.625  11.667  0.00  0.00    +0.034 C 
ATOM      6  C   LIG    1       25.426 -30.164  11.780  0.00  0.00    +0.149 C 
ATOM      7  C   LIG    1       24.570 -30.463  13.036  0.00  0.00    +0.153 C 
ATOM      8  F   LIG    1       26.695 -30.675  12.132  0.00  0.00    -0.238 F 
ATOM      9  C   LIG    1       25.112 -30.988  10.432  0.00  0.00    +0.026 C 
ATOM     10  C   LIG    1       26.165 -30.446   9.448  0.00  0.00    -0.057 C 
ATOM     11  C   LIG    1       26.645 -31.267   8.497  0.00  0.00    +0.046 C 
ATOM     12  C   LIG    1       25.552 -31.217   7.474  0.00  0.00    +0.156 C 
ATOM     13  C   LIG    1       24.129 -31.453   8.030  0.00  0.00    +0.080 C 
ATOM     14  O   LIG    1       25.813 -31.093   6.273  0.00  0.00    -0.293 OA
ATOM     15  C   LIG    1       26.044 -28.955   9.196  0.00  0.00    +0.032 C 
ATOM     16  C   LIG    1       25.143 -32.512  10.777  0.00  0.00    +0.019 C 
ATOM     17  C   LIG    1       23.841 -30.887   9.501  0.00  0.00    +0.022 C 
ATOM     18  C   LIG    1       26.520 -28.227  10.445  0.00  0.00    +0.011 C 
ATOM     19  C   LIG    1       27.027 -26.783  13.024  0.00  0.00    +0.007 C 
ATOM     20  C   LIG    1       26.288 -28.080  15.498  0.00  0.00    +0.014 C 
ATOM     21  C   LIG    1       24.668 -29.490  14.255  0.00  0.00    +0.044 C 
ATOM     22  C   LIG    1       25.844 -25.871  13.295  0.00  0.00    +0.035 C 
ENDROOT
BRANCH   2  23
ATOM     23  O   LIG    1       24.489 -26.320  15.405  0.00  0.00    -0.388 OA
ATOM     24  H   LIG    1       25.361 -26.362  15.867  0.00  0.00    +0.210 HD
ENDBRANCH   2  23
BRANCH   7  25
ATOM     25  O   LIG    1       24.995 -31.757  13.552  0.00  0.00    -0.389 OA
ATOM     26  H   LIG    1       25.104 -31.634  14.525  0.00  0.00    +0.210 HD
ENDBRANCH   7  25
TORSDOF 2
ENDMDL
MODEL 9
REMARK VINA RESULT:      -5.3      2.432      5.272
REMARK  Name = *****
REMARK                            x       y       z     vdW  Elec       q    Type
REMARK                         _______ _______ _______ _____ _____    ______ ____
ROOT
ATOM      1  C   LIG    1       22.898 -30.447   9.898  0.00  0.00    +0.042 C 
ATOM      2  C   LIG    1       22.345 -30.927  11.254  0.00  0.00    +0.069 C 
ATOM      3  C   LIG    1       22.861 -30.956  12.775  0.00  0.00    +0.002 C 
ATOM      4  C   LIG    1       22.283 -29.671  13.388  0.00  0.00    +0.004 C 
ATOM      5  C   LIG    1       23.226 -28.460  13.081  0.00  0.00    +0.034 C 
ATOM      6  C   LIG    1       24.475 -28.600  14.012  0.00  0.00    +0.149 C 
ATOM      7  C   LIG    1       25.186 -29.947  13.734  0.00  0.00    +0.153 C 
ATOM      8  F   LIG    1       23.907 -28.797  15.290  0.00  0.00    -0.238 F 
ATOM      9  C   LIG    1       25.387 -27.296  14.266  0.00  0.00    +0.026 C 
ATOM     10  C   LIG    1       24.344 -26.195  14.531  0.00  0.00    -0.057 C 
ATOM     11  C   LIG    1       24.660 -25.192  15.369  0.00  0.00    +0.046 C 
ATOM     12  C   LIG    1       25.482 -24.306  14.486  0.00  0.00    +0.156 C 
ATOM     13  C   LIG    1       26.609 -25.026  13.709  0.00  0.00    +0.080 C 
ATOM     14  O   LIG    1       25.311 -23.084  14.478  0.00  0.00    -0.293 OA
ATOM     15  C   LIG    1       23.404 -25.962  13.364  0.00  0.00    +0.032 C 
ATOM     16  C   LIG    1       26.406 -27.632  15.402  0.00  0.00    +0.019 C 
ATOM     17  C   LIG    1       26.293 -26.523  13.229  0.00  0.00    +0.022 C 
ATOM     18  C   LIG    1       22.452 -27.148  13.282  0.00  0.00    +0.011 C 
ATOM     19  C   LIG    1       20.866 -29.652  12.825  0.00  0.00    +0.007 C 
ATOM     20  C   LIG    1       22.093 -32.193  13.443  0.00  0.00    +0.014 C 
ATOM     21  C   LIG    1       24.332 -31.147  13.213  0.00  0.00    +0.044 C 
ATOM     22  C   LIG    1       21.040 -30.062  11.374  0.00  0.00    +0.035 C 
ENDROOT
BRANCH   2  23
ATOM     23  O   LIG    1       22.138 -32.317  10.927  0.00  0.00    -0.388 OA
ATOM     24  H   LIG    1       22.172 -32.812  11.781  0.00  0.00    +0.210 HD
ENDBRANCH   2  23
BRANCH   7  25
ATOM     25  O   LIG    1       25.751 -30.407  14.996  0.00  0.00    -0.389 OA
ATOM     26  H   LIG    1       25.060 -30.231  15.678  0.00  0.00    +0.210 HD
ENDBRANCH   7  25
TORSDOF 2
ENDMDL
