MODEL 1
REMARK VINA RESULT:      -0.5      0.000      0.000
REMARK  Name = *****
REMARK                            x       y       z     vdW  Elec       q    Type
REMARK                         _______ _______ _______ _____ _____    ______ ____
ROOT
ATOM      1  O   LIG    1       25.959 -16.515   3.740  0.00  0.00    -0.340 OA
ENDROOT
BRANCH   1   2
ATOM      2  C   LIG    1       25.968 -15.402   2.820  0.00  0.00    +0.282 C 
ATOM      3  C   LIG    1       24.784 -14.425   3.041  0.00  0.00    +0.201 C 
ATOM      4  C   LIG    1       25.013 -13.377   4.147  0.00  0.00    +0.179 C 
ATOM      5  C   LIG    1       26.466 -13.303   4.615  0.00  0.00    +0.177 C 
ATOM      6  C   LIG    1       27.388 -13.484   3.406  0.00  0.00    +0.178 C 
ATOM      7  O   LIG    1       27.235 -14.744   2.735  0.00  0.00    -0.341 OA
BRANCH   3   8
ATOM      8  O   LIG    1       24.540 -13.695   1.812  0.00  0.00    -0.384 OA
ATOM      9  H   LIG    1       23.669 -13.260   1.885  0.00  0.00    +0.210 HD
ENDBRANCH   3   8
BRANCH   4  10
ATOM     10  O   LIG    1       24.168 -13.602   5.287  0.00  0.00    -0.386 OA
ATOM     11  H   LIG    1       24.706 -14.095   5.938  0.00  0.00    +0.210 HD
ENDBRANCH   4  10
BRANCH   5  12
ATOM     12  O   LIG    1       26.713 -14.294   5.622  0.00  0.00    -0.387 OA
ATOM     13  H   LIG    1       25.957 -14.204   6.234  0.00  0.00    +0.210 HD
ENDBRANCH   5  12
BRANCH   6  14
ATOM     14  C   LIG    1       28.872 -13.295   3.782  0.00  0.00    +0.190 C 
BRANCH  14  15
ATOM     15  O   LIG    1       29.026 -12.277   4.768  0.00  0.00    -0.392 OA
ATOM     16  H   LIG    1       28.348 -12.437   5.438  0.00  0.00    +0.209 HD
ENDBRANCH  14  15
ENDBRANCH   6  14
ENDBRANCH   1   2
BRANCH   1  18
ATOM     17  C   LIG    1       24.086 -18.041   4.293  0.00  0.00    +0.178 C 
ATOM     18  C   LIG    1       25.134 -17.608   3.248  0.00  0.00    +0.186 C 
ATOM     19  C   LIG    1       25.997 -18.849   3.089  0.00  0.00    +0.207 C 
ATOM     20  C   LIG    1       25.781 -19.627   4.402  0.00  0.00    +0.221 C 
ATOM     21  O   LIG    1       24.727 -19.001   5.153  0.00  0.00    -0.336 OA
BRANCH  19  22
ATOM     22  O   LIG    1       25.609 -19.592   1.927  0.00  0.00    -0.384 OA
ATOM     23  H   LIG    1       24.781 -20.042   2.161  0.00  0.00    +0.210 HD
ENDBRANCH  19  22
BRANCH  20  24
ATOM     24  O   LIG    1       25.348 -20.960   4.109  0.00  0.00    -0.361 OA
ATOM     25  H   LIG    1       25.783 -21.160   3.250  0.00  0.00    +0.213 HD
ENDBRANCH  20  24
BRANCH  17  26
ATOM     26  C   LIG    1       22.814 -18.681   3.700  0.00  0.00    +0.190 C 
BRANCH  26  27
ATOM     27  O   LIG    1       22.318 -19.797   4.447  0.00  0.00    -0.392 OA
ATOM     28  H   LIG    1       22.015 -20.459   3.809  0.00  0.00    +0.209 HD
ENDBRANCH  26  27
ENDBRANCH  17  26
BRANCH  20  29
ATOM     29  C   LIG    1       27.042 -19.660   5.278  0.00  0.00    +0.223 C 
BRANCH  29  30
ATOM     30  O   LIG    1       28.008 -18.747   4.727  0.00  0.00    -0.390 OA
ATOM     31  H   LIG    1       28.203 -19.091   3.834  0.00  0.00    +0.210 HD
ENDBRANCH  29  30
ENDBRANCH  20  29
ENDBRANCH   1  18
TORSDOF 13
ENDMDL
MODEL 2
REMARK VINA RESULT:       0.2      1.356      6.231
REMARK  Name = *****
REMARK                            x       y       z     vdW  Elec       q    Type
REMARK                         _______ _______ _______ _____ _____    ______ ____
ROOT
ATOM      1  O   LIG    1       25.921 -16.963   4.250  0.00  0.00    -0.340 OA
ENDROOT
BRANCH   1   2
ATOM      2  C   LIG    1       25.346 -17.869   3.284  0.00  0.00    +0.282 C 
ATOM      3  C   LIG    1       26.168 -19.173   3.114  0.00  0.00    +0.201 C 
ATOM      4  C   LIG    1       25.868 -20.263   4.160  0.00  0.00    +0.179 C 
ATOM      5  C   LIG    1       24.614 -19.978   4.986  0.00  0.00    +0.177 C 
ATOM      6  C   LIG    1       23.553 -19.351   4.077  0.00  0.00    +0.178 C 
ATOM      7  O   LIG    1       23.949 -18.105   3.485  0.00  0.00    -0.341 OA
BRANCH   3   8
ATOM      8  O   LIG    1       25.880 -19.746   1.813  0.00  0.00    -0.384 OA
ATOM      9  H   LIG    1       25.405 -19.075   1.286  0.00  0.00    +0.210 HD
ENDBRANCH   3   8
BRANCH   4  10
ATOM     10  O   LIG    1       26.974 -20.474   5.053  0.00  0.00    -0.386 OA
ATOM     11  H   LIG    1       26.798 -21.316   5.519  0.00  0.00    +0.210 HD
ENDBRANCH   4  10
BRANCH   5  12
ATOM     12  O   LIG    1       24.934 -19.124   6.093  0.00  0.00    -0.387 OA
ATOM     13  H   LIG    1       25.898 -19.233   6.206  0.00  0.00    +0.210 HD
ENDBRANCH   5  12
BRANCH   6  14
ATOM     14  C   LIG    1       22.212 -19.151   4.813  0.00  0.00    +0.190 C 
BRANCH  14  15
ATOM     15  O   LIG    1       21.630 -17.891   4.490  0.00  0.00    -0.392 OA
ATOM     16  H   LIG    1       21.976 -17.255   5.130  0.00  0.00    +0.209 HD
ENDBRANCH  14  15
ENDBRANCH   6  14
ENDBRANCH   1   2
BRANCH   1  18
ATOM     17  C   LIG    1       27.148 -14.844   4.632  0.00  0.00    +0.178 C 
ATOM     18  C   LIG    1       26.472 -15.779   3.608  0.00  0.00    +0.186 C 
ATOM     19  C   LIG    1       25.332 -14.931   3.066  0.00  0.00    +0.207 C 
ATOM     20  C   LIG    1       25.079 -13.890   4.173  0.00  0.00    +0.221 C 
ATOM     21  O   LIG    1       26.115 -13.993   5.163  0.00  0.00    -0.336 OA
BRANCH  19  22
ATOM     22  O   LIG    1       25.692 -14.339   1.812  0.00  0.00    -0.384 OA
ATOM     23  H   LIG    1       25.031 -14.645   1.171  0.00  0.00    +0.210 HD
ENDBRANCH  19  22
BRANCH  20  24
ATOM     24  O   LIG    1       25.156 -12.571   3.625  0.00  0.00    -0.361 OA
ATOM     25  H   LIG    1       26.080 -12.513   3.292  0.00  0.00    +0.213 HD
ENDBRANCH  20  24
BRANCH  17  26
ATOM     26  C   LIG    1       28.268 -13.957   4.050  0.00  0.00    +0.190 C 
BRANCH  26  27
ATOM     27  O   LIG    1       27.867 -13.173   2.921  0.00  0.00    -0.392 OA
ATOM     28  H   LIG    1       28.541 -13.289   2.236  0.00  0.00    +0.209 HD
ENDBRANCH  26  27
ENDBRANCH  17  26
BRANCH  20  29
ATOM     29  C   LIG    1       23.725 -14.095   4.871  0.00  0.00    +0.223 C 
BRANCH  29  30
ATOM     30  O   LIG    1       23.131 -15.308   4.375  0.00  0.00    -0.390 OA
ATOM     31  H   LIG    1       22.794 -15.082   3.488  0.00  0.00    +0.210 HD
ENDBRANCH  29  30
ENDBRANCH  20  29
ENDBRANCH   1  18
TORSDOF 13
ENDMDL
MODEL 3
REMARK VINA RESULT:       0.3      1.054      2.567
REMARK  Name = *****
REMARK                            x       y       z     vdW  Elec       q    Type
REMARK                         _______ _______ _______ _____ _____    ______ ____
ROOT
ATOM      1  O   LIG    1       26.481 -16.483   3.469  0.00  0.00    -0.340 OA
ENDROOT
BRANCH   1   2
ATOM      2  C   LIG    1       25.900 -15.437   4.277  0.00  0.00    +0.282 C 
ATOM      3  C   LIG    1       26.964 -14.564   4.991  0.00  0.00    +0.201 C 
ATOM      4  C   LIG    1       27.548 -13.429   4.129  0.00  0.00    +0.179 C 
ATOM      5  C   LIG    1       26.765 -13.187   2.839  0.00  0.00    +0.177 C 
ATOM      6  C   LIG    1       25.270 -13.360   3.126  0.00  0.00    +0.178 C 
ATOM      7  O   LIG    1       24.908 -14.669   3.589  0.00  0.00    -0.341 OA
BRANCH   3   8
ATOM      8  O   LIG    1       26.359 -13.942   6.154  0.00  0.00    -0.384 OA
ATOM      9  H   LIG    1       25.415 -13.786   5.958  0.00  0.00    +0.210 HD
ENDBRANCH   3   8
BRANCH   4  10
ATOM     10  O   LIG    1       28.928 -13.656   3.799  0.00  0.00    -0.386 OA
ATOM     11  H   LIG    1       29.396 -13.797   4.646  0.00  0.00    +0.210 HD
ENDBRANCH   4  10
BRANCH   5  12
ATOM     12  O   LIG    1       27.213 -14.082   1.812  0.00  0.00    -0.387 OA
ATOM     13  H   LIG    1       28.103 -14.357   2.109  0.00  0.00    +0.210 HD
ENDBRANCH   5  12
BRANCH   6  14
ATOM     14  C   LIG    1       24.406 -13.006   1.898  0.00  0.00    +0.190 C 
BRANCH  14  15
ATOM     15  O   LIG    1       24.135 -11.608   1.844  0.00  0.00    -0.392 OA
ATOM     16  H   LIG    1       23.740 -11.371   2.694  0.00  0.00    +0.209 HD
ENDBRANCH  14  15
ENDBRANCH   6  14
ENDBRANCH   1   2
BRANCH   1  18
ATOM     17  C   LIG    1       24.455 -17.710   4.196  0.00  0.00    +0.178 C 
ATOM     18  C   LIG    1       25.486 -17.468   3.075  0.00  0.00    +0.186 C 
ATOM     19  C   LIG    1       26.160 -18.824   2.927  0.00  0.00    +0.207 C 
ATOM     20  C   LIG    1       25.920 -19.512   4.285  0.00  0.00    +0.221 C 
ATOM     21  O   LIG    1       25.010 -18.716   5.063  0.00  0.00    -0.336 OA
BRANCH  19  22
ATOM     22  O   LIG    1       25.602 -19.550   1.825  0.00  0.00    -0.384 OA
ATOM     23  H   LIG    1       26.210 -20.287   1.655  0.00  0.00    +0.210 HD
ENDBRANCH  19  22
BRANCH  20  24
ATOM     24  O   LIG    1       25.292 -20.782   4.080  0.00  0.00    -0.361 OA
ATOM     25  H   LIG    1       24.340 -20.597   4.245  0.00  0.00    +0.213 HD
ENDBRANCH  20  24
BRANCH  17  26
ATOM     26  C   LIG    1       23.073 -18.190   3.706  0.00  0.00    +0.190 C 
BRANCH  26  27
ATOM     27  O   LIG    1       22.393 -19.053   4.624  0.00  0.00    -0.392 OA
ATOM     28  H   LIG    1       22.828 -19.916   4.584  0.00  0.00    +0.209 HD
ENDBRANCH  26  27
ENDBRANCH  17  26
BRANCH  20  29
ATOM     29  C   LIG    1       27.217 -19.686   5.091  0.00  0.00    +0.223 C 
BRANCH  29  30
ATOM     30  O   LIG    1       28.126 -18.630   4.732  0.00  0.00    -0.390 OA
ATOM     31  H   LIG    1       27.697 -17.809   5.041  0.00  0.00    +0.210 HD
ENDBRANCH  29  30
ENDBRANCH  20  29
ENDBRANCH   1  18
TORSDOF 13
ENDMDL
MODEL 4
REMARK VINA RESULT:       2.5      1.351      6.058
REMARK  Name = *****
REMARK                            x       y       z     vdW  Elec       q    Type
REMARK                         _______ _______ _______ _____ _____    ______ ____
ROOT
ATOM      1  O   LIG    1       24.804 -16.548   4.488  0.00  0.00    -0.340 OA
ENDROOT
BRANCH   1   2
ATOM      2  C   LIG    1       24.641 -17.460   3.380  0.00  0.00    +0.282 C 
ATOM      3  C   LIG    1       25.860 -18.399   3.187  0.00  0.00    +0.201 C 
ATOM      4  C   LIG    1       25.854 -19.652   4.082  0.00  0.00    +0.179 C 
ATOM      5  C   LIG    1       24.514 -19.891   4.777  0.00  0.00    +0.177 C 
ATOM      6  C   LIG    1       23.383 -19.525   3.813  0.00  0.00    +0.178 C 
ATOM      7  O   LIG    1       23.390 -18.153   3.392  0.00  0.00    -0.341 OA
BRANCH   3   8
ATOM      8  O   LIG    1       25.883 -18.864   1.813  0.00  0.00    -0.384 OA
ATOM      9  H   LIG    1       26.097 -19.816   1.818  0.00  0.00    +0.210 HD
ENDBRANCH   3   8
BRANCH   4  10
ATOM     10  O   LIG    1       26.892 -19.611   5.076  0.00  0.00    -0.386 OA
ATOM     11  H   LIG    1       27.734 -19.491   4.593  0.00  0.00    +0.210 HD
ENDBRANCH   4  10
BRANCH   5  12
ATOM     12  O   LIG    1       24.443 -19.128   5.990  0.00  0.00    -0.387 OA
ATOM     13  H   LIG    1       23.598 -19.405   6.395  0.00  0.00    +0.210 HD
ENDBRANCH   5  12
BRANCH   6  14
ATOM     14  C   LIG    1       21.997 -19.860   4.401  0.00  0.00    +0.190 C 
BRANCH  14  15
ATOM     15  O   LIG    1       22.022 -21.101   5.103  0.00  0.00    -0.392 OA
ATOM     16  H   LIG    1       22.711 -21.023   5.775  0.00  0.00    +0.209 HD
ENDBRANCH  14  15
ENDBRANCH   6  14
ENDBRANCH   1   2
BRANCH   1  18
ATOM     17  C   LIG    1       25.246 -14.998   2.606  0.00  0.00    +0.178 C 
ATOM     18  C   LIG    1       24.737 -15.162   4.052  0.00  0.00    +0.186 C 
ATOM     19  C   LIG    1       25.727 -14.338   4.862  0.00  0.00    +0.207 C 
ATOM     20  C   LIG    1       26.984 -14.281   3.972  0.00  0.00    +0.221 C 
ATOM     21  O   LIG    1       26.674 -14.835   2.682  0.00  0.00    -0.336 OA
BRANCH  19  22
ATOM     22  O   LIG    1       25.189 -13.043   5.155  0.00  0.00    -0.384 OA
ATOM     23  H   LIG    1       24.225 -13.130   5.082  0.00  0.00    +0.210 HD
ENDBRANCH  19  22
BRANCH  20  24
ATOM     24  O   LIG    1       27.365 -12.919   3.760  0.00  0.00    -0.361 OA
ATOM     25  H   LIG    1       27.137 -12.760   2.816  0.00  0.00    +0.213 HD
ENDBRANCH  20  24
BRANCH  17  26
ATOM     26  C   LIG    1       24.651 -13.792   1.848  0.00  0.00    +0.190 C 
BRANCH  26  27
ATOM     27  O   LIG    1       23.680 -13.052   2.596  0.00  0.00    -0.392 OA
ATOM     28  H   LIG    1       23.395 -13.613   3.332  0.00  0.00    +0.209 HD
ENDBRANCH  26  27
ENDBRANCH  17  26
BRANCH  20  29
ATOM     29  C   LIG    1       28.158 -15.074   4.566  0.00  0.00    +0.223 C 
BRANCH  29  30
ATOM     30  O   LIG    1       28.021 -16.454   4.185  0.00  0.00    -0.390 OA
ATOM     31  H   LIG    1       27.177 -16.745   4.581  0.00  0.00    +0.210 HD
ENDBRANCH  29  30
ENDBRANCH  20  29
ENDBRANCH   1  18
TORSDOF 13
ENDMDL
