MODEL 1
REMARK VINA RESULT:      -9.5      0.000      0.000
REMARK  Name = *****
REMARK                            x       y       z     vdW  Elec       q    Type
REMARK                         _______ _______ _______ _____ _____    ______ ____
ROOT
ATOM      1  C   LIG    1       23.924 -20.888   5.445  0.00  0.00    +0.299 A 
ATOM      2  N   LIG    1       24.846 -21.301   6.387  0.00  0.00    -0.289 N 
ATOM      3  C   LIG    1       26.064 -20.693   6.093  0.00  0.00    +0.086 A 
ATOM      4  C   LIG    1       25.776 -20.030   4.888  0.00  0.00    +0.093 A 
ATOM      5  C   LIG    1       26.777 -19.323   4.194  0.00  0.00    +0.030 A 
ATOM      6  C   LIG    1       28.065 -19.284   4.709  0.00  0.00    +0.003 A 
ATOM      7  C   LIG    1       28.347 -19.903   5.925  0.00  0.00    +0.017 A 
ATOM      8  C   LIG    1       27.364 -20.596   6.670  0.00  0.00    +0.085 A 
ATOM      9  N   LIG    1       24.467 -20.137   4.526  0.00  0.00    -0.195 NA
ENDROOT
BRANCH   8  10
ATOM     10  C   LIG    1       27.718 -21.121   8.016  0.00  0.00    +0.344 C 
ATOM     11  O   LIG    1       27.009 -21.002   8.999  0.00  0.00    -0.245 OA
BRANCH  10  12
ATOM     12  O   LIG    1       28.955 -21.682   8.059  0.00  0.00    -0.421 OA
BRANCH  12  13
ATOM     13  C   LIG    1       29.785 -21.121   9.089  0.00  0.00    +0.371 C 
ATOM     14  C   LIG    1       31.157 -21.797   9.103  0.00  0.00    +0.101 C 
BRANCH  13  15
ATOM     15  O   LIG    1       30.059 -19.723   8.915  0.00  0.00    -0.394 OA
BRANCH  15  16
ATOM     16  C   LIG    1       31.237 -19.412   8.335  0.00  0.00    +0.513 C 
ATOM     17  O   LIG    1       31.616 -19.767   7.227  0.00  0.00    -0.203 OA
BRANCH  16  18
ATOM     18  O   LIG    1       31.926 -18.635   9.205  0.00  0.00    -0.430 OA
BRANCH  18  19
ATOM     19  C   LIG    1       31.744 -17.215   9.084  0.00  0.00    +0.180 C 
ATOM     20  C   LIG    1       30.427 -16.802   9.755  0.00  0.00    +0.045 C 
ATOM     21  C   LIG    1       30.447 -16.938  11.278  0.00  0.00    +0.003 C 
ATOM     22  C   LIG    1       31.660 -16.240  11.886  0.00  0.00    +0.000 C 
ATOM     23  C   LIG    1       32.953 -16.759  11.270  0.00  0.00    +0.003 C 
ATOM     24  C   LIG    1       32.958 -16.560   9.753  0.00  0.00    +0.045 C 
ENDBRANCH  18  19
ENDBRANCH  16  18
ENDBRANCH  15  16
ENDBRANCH  13  15
ENDBRANCH  12  13
ENDBRANCH  10  12
ENDBRANCH   8  10
BRANCH   1  25
ATOM     25  O   LIG    1       22.647 -21.265   5.473  0.00  0.00    -0.464 OA
BRANCH  25  27
ATOM     26  C   LIG    1       22.136 -19.022   4.790  0.00  0.00    +0.048 C 
ATOM     27  C   LIG    1       21.767 -20.488   4.658  0.00  0.00    +0.229 C 
ENDBRANCH  25  27
ENDBRANCH   1  25
BRANCH   2  28
ATOM     28  C   LIG    1       24.462 -22.205   7.458  0.00  0.00    +0.162 C 
BRANCH  28  29
ATOM     29  C   LIG    1       24.674 -23.659   7.098  0.00  0.00    -0.028 A 
ATOM     30  C   LIG    1       23.587 -24.429   6.673  0.00  0.00    +0.006 A 
ATOM     31  C   LIG    1       23.747 -25.783   6.361  0.00  0.00    +0.009 A 
ATOM     32  C   LIG    1       25.002 -26.414   6.431  0.00  0.00    -0.017 A 
ATOM     33  C   LIG    1       26.095 -25.622   6.809  0.00  0.00    +0.009 A 
ATOM     34  C   LIG    1       25.930 -24.277   7.163  0.00  0.00    +0.006 A 
BRANCH  32  35
ATOM     35  C   LIG    1       25.141 -27.847   6.074  0.00  0.00    -0.007 A 
ATOM     36  C   LIG    1       25.490 -28.885   6.978  0.00  0.00    +0.028 A 
ATOM     37  C   LIG    1       25.593 -30.209   6.492  0.00  0.00    +0.012 A 
ATOM     38  C   LIG    1       25.341 -30.526   5.159  0.00  0.00    +0.001 A 
ATOM     39  C   LIG    1       24.999 -29.520   4.271  0.00  0.00    +0.001 A 
ATOM     40  C   LIG    1       24.913 -28.202   4.722  0.00  0.00    +0.009 A 
BRANCH  36  41
ATOM     41  C   LIG    1       25.757 -28.711   8.410  0.00  0.00    +0.180 A 
ATOM     42  N   LIG    1       25.056 -29.272   9.443  0.00  0.00    -0.239 N 
ATOM     43  H   LIG    1       24.234 -29.861   9.424  0.00  0.00    +0.192 HD
ATOM     44  N   LIG    1       25.582 -28.907  10.621  0.00  0.00    -0.046 NA
ATOM     45  N   LIG    1       26.622 -28.151  10.313  0.00  0.00    -0.023 NA
ATOM     46  N   LIG    1       26.751 -28.028   8.952  0.00  0.00    -0.108 NA
ENDBRANCH  36  41
ENDBRANCH  32  35
ENDBRANCH  28  29
ENDBRANCH   2  28
TORSDOF 13
ENDMDL
MODEL 2
REMARK VINA RESULT:      -9.5      5.041      9.752
REMARK  Name = *****
REMARK                            x       y       z     vdW  Elec       q    Type
REMARK                         _______ _______ _______ _____ _____    ______ ____
ROOT
ATOM      1  C   LIG    1       25.756 -32.455   9.418  0.00  0.00    +0.299 A 
ATOM      2  N   LIG    1       25.843 -31.108   9.130  0.00  0.00    -0.289 N 
ATOM      3  C   LIG    1       25.587 -30.941   7.771  0.00  0.00    +0.086 A 
ATOM      4  C   LIG    1       25.473 -32.270   7.329  0.00  0.00    +0.093 A 
ATOM      5  C   LIG    1       25.272 -32.565   5.967  0.00  0.00    +0.030 A 
ATOM      6  C   LIG    1       25.187 -31.526   5.050  0.00  0.00    +0.003 A 
ATOM      7  C   LIG    1       25.256 -30.205   5.488  0.00  0.00    +0.017 A 
ATOM      8  C   LIG    1       25.426 -29.864   6.850  0.00  0.00    +0.085 A 
ATOM      9  N   LIG    1       25.551 -33.173   8.346  0.00  0.00    -0.195 NA
ENDROOT
BRANCH   8  10
ATOM     10  C   LIG    1       25.364 -28.432   7.247  0.00  0.00    +0.344 C 
ATOM     11  O   LIG    1       26.026 -27.949   8.148  0.00  0.00    -0.245 OA
BRANCH  10  12
ATOM     12  O   LIG    1       24.433 -27.728   6.550  0.00  0.00    -0.421 OA
BRANCH  12  13
ATOM     13  C   LIG    1       24.917 -26.447   6.114  0.00  0.00    +0.371 C 
ATOM     14  C   LIG    1       25.829 -26.601   4.897  0.00  0.00    +0.101 C 
BRANCH  13  15
ATOM     15  O   LIG    1       23.879 -25.549   5.692  0.00  0.00    -0.394 OA
BRANCH  15  16
ATOM     16  C   LIG    1       23.578 -24.542   6.538  0.00  0.00    +0.513 C 
ATOM     17  O   LIG    1       22.457 -24.135   6.812  0.00  0.00    -0.203 OA
BRANCH  16  18
ATOM     18  O   LIG    1       24.746 -24.060   7.028  0.00  0.00    -0.430 OA
BRANCH  18  19
ATOM     19  C   LIG    1       25.385 -23.024   6.264  0.00  0.00    +0.180 C 
ATOM     20  C   LIG    1       24.406 -21.863   6.045  0.00  0.00    +0.045 C 
ATOM     21  C   LIG    1       24.081 -21.088   7.322  0.00  0.00    +0.003 C 
ATOM     22  C   LIG    1       25.348 -20.658   8.054  0.00  0.00    +0.000 C 
ATOM     23  C   LIG    1       26.240 -21.857   8.351  0.00  0.00    +0.003 C 
ATOM     24  C   LIG    1       26.619 -22.591   7.063  0.00  0.00    +0.045 C 
ENDBRANCH  18  19
ENDBRANCH  16  18
ENDBRANCH  15  16
ENDBRANCH  13  15
ENDBRANCH  12  13
ENDBRANCH  10  12
ENDBRANCH   8  10
BRANCH   1  25
ATOM     25  O   LIG    1       25.911 -32.941  10.648  0.00  0.00    -0.464 OA
BRANCH  25  27
ATOM     26  C   LIG    1       24.490 -33.044  12.579  0.00  0.00    +0.048 C 
ATOM     27  C   LIG    1       24.762 -33.595  11.192  0.00  0.00    +0.229 C 
ENDBRANCH  25  27
ENDBRANCH   1  25
BRANCH   2  28
ATOM     28  C   LIG    1       26.140 -30.141  10.173  0.00  0.00    +0.162 C 
BRANCH  28  29
ATOM     29  C   LIG    1       24.909 -29.715  10.941  0.00  0.00    -0.028 A 
ATOM     30  C   LIG    1       23.645 -30.114  10.493  0.00  0.00    +0.006 A 
ATOM     31  C   LIG    1       22.487 -29.712  11.166  0.00  0.00    +0.009 A 
ATOM     32  C   LIG    1       22.545 -28.923  12.330  0.00  0.00    -0.017 A 
ATOM     33  C   LIG    1       23.817 -28.572  12.800  0.00  0.00    +0.009 A 
ATOM     34  C   LIG    1       24.976 -28.937  12.104  0.00  0.00    +0.006 A 
BRANCH  32  35
ATOM     35  C   LIG    1       21.299 -28.531  13.031  0.00  0.00    -0.007 A 
ATOM     36  C   LIG    1       20.458 -29.411  13.762  0.00  0.00    +0.028 A 
ATOM     37  C   LIG    1       19.294 -28.895  14.376  0.00  0.00    +0.012 A 
ATOM     38  C   LIG    1       18.960 -27.544  14.301  0.00  0.00    +0.001 A 
ATOM     39  C   LIG    1       19.774 -26.678  13.590  0.00  0.00    +0.001 A 
ATOM     40  C   LIG    1       20.916 -27.168  12.958  0.00  0.00    +0.009 A 
BRANCH  36  41
ATOM     41  C   LIG    1       20.693 -30.847  13.952  0.00  0.00    +0.180 A 
ATOM     42  N   LIG    1       21.511 -31.422  14.887  0.00  0.00    -0.239 N 
ATOM     43  H   LIG    1       22.112 -30.989  15.576  0.00  0.00    +0.192 HD
ATOM     44  N   LIG    1       21.478 -32.758  14.783  0.00  0.00    -0.046 NA
ATOM     45  N   LIG    1       20.619 -33.005  13.808  0.00  0.00    -0.023 NA
ATOM     46  N   LIG    1       20.116 -31.837  13.292  0.00  0.00    -0.108 NA
ENDBRANCH  36  41
ENDBRANCH  32  35
ENDBRANCH  28  29
ENDBRANCH   2  28
TORSDOF 13
ENDMDL
MODEL 3
REMARK VINA RESULT:      -9.1      5.143      9.849
REMARK  Name = *****
REMARK                            x       y       z     vdW  Elec       q    Type
REMARK                         _______ _______ _______ _____ _____    ______ ____
ROOT
ATOM      1  C   LIG    1       26.245 -32.122   9.225  0.00  0.00    +0.299 A 
ATOM      2  N   LIG    1       25.774 -31.009   8.557  0.00  0.00    -0.289 N 
ATOM      3  C   LIG    1       25.828 -31.271   7.191  0.00  0.00    +0.086 A 
ATOM      4  C   LIG    1       26.455 -32.528   7.158  0.00  0.00    +0.093 A 
ATOM      5  C   LIG    1       26.768 -33.150   5.935  0.00  0.00    +0.030 A 
ATOM      6  C   LIG    1       26.454 -32.508   4.745  0.00  0.00    +0.003 A 
ATOM      7  C   LIG    1       25.793 -31.282   4.769  0.00  0.00    +0.017 A 
ATOM      8  C   LIG    1       25.432 -30.638   5.977  0.00  0.00    +0.085 A 
ATOM      9  N   LIG    1       26.675 -33.040   8.402  0.00  0.00    -0.195 NA
ENDROOT
BRANCH   8  10
ATOM     10  C   LIG    1       24.620 -29.394   5.913  0.00  0.00    +0.344 C 
ATOM     11  O   LIG    1       23.420 -29.355   6.122  0.00  0.00    -0.245 OA
BRANCH  10  12
ATOM     12  O   LIG    1       25.339 -28.309   5.520  0.00  0.00    -0.421 OA
BRANCH  12  13
ATOM     13  C   LIG    1       25.130 -27.167   6.366  0.00  0.00    +0.371 C 
ATOM     14  C   LIG    1       26.239 -27.062   7.414  0.00  0.00    +0.101 C 
BRANCH  13  15
ATOM     15  O   LIG    1       25.159 -25.914   5.666  0.00  0.00    -0.394 OA
BRANCH  15  16
ATOM     16  C   LIG    1       24.364 -24.938   6.153  0.00  0.00    +0.513 C 
ATOM     17  O   LIG    1       23.219 -25.071   6.562  0.00  0.00    -0.203 OA
BRANCH  16  18
ATOM     18  O   LIG    1       25.066 -23.780   6.102  0.00  0.00    -0.430 OA
BRANCH  18  19
ATOM     19  C   LIG    1       24.733 -22.783   7.083  0.00  0.00    +0.180 C 
ATOM     20  C   LIG    1       25.941 -22.532   7.996  0.00  0.00    +0.045 C 
ATOM     21  C   LIG    1       27.105 -21.834   7.293  0.00  0.00    +0.003 C 
ATOM     22  C   LIG    1       26.646 -20.574   6.566  0.00  0.00    +0.000 C 
ATOM     23  C   LIG    1       25.521 -20.888   5.587  0.00  0.00    +0.003 C 
ATOM     24  C   LIG    1       24.330 -21.525   6.307  0.00  0.00    +0.045 C 
ENDBRANCH  18  19
ENDBRANCH  16  18
ENDBRANCH  15  16
ENDBRANCH  13  15
ENDBRANCH  12  13
ENDBRANCH  10  12
ENDBRANCH   8  10
BRANCH   1  25
ATOM     25  O   LIG    1       26.286 -32.203  10.553  0.00  0.00    -0.464 OA
BRANCH  25  27
ATOM     26  C   LIG    1       25.125 -32.896  12.536  0.00  0.00    +0.048 C 
ATOM     27  C   LIG    1       25.522 -33.270  11.120  0.00  0.00    +0.229 C 
ENDBRANCH  25  27
ENDBRANCH   1  25
BRANCH   2  28
ATOM     28  C   LIG    1       25.315 -29.840   9.290  0.00  0.00    +0.162 C 
BRANCH  28  29
ATOM     29  C   LIG    1       24.054 -30.107  10.081  0.00  0.00    -0.028 A 
ATOM     30  C   LIG    1       23.965 -29.667  11.405  0.00  0.00    +0.006 A 
ATOM     31  C   LIG    1       22.823 -29.925  12.170  0.00  0.00    +0.009 A 
ATOM     32  C   LIG    1       21.712 -30.602  11.635  0.00  0.00    -0.017 A 
ATOM     33  C   LIG    1       21.790 -30.993  10.291  0.00  0.00    +0.009 A 
ATOM     34  C   LIG    1       22.949 -30.774   9.536  0.00  0.00    +0.006 A 
BRANCH  32  35
ATOM     35  C   LIG    1       20.508 -30.841  12.466  0.00  0.00    -0.007 A 
ATOM     36  C   LIG    1       19.913 -29.890  13.337  0.00  0.00    +0.028 A 
ATOM     37  C   LIG    1       18.766 -30.263  14.076  0.00  0.00    +0.012 A 
ATOM     38  C   LIG    1       18.193 -31.528  13.957  0.00  0.00    +0.001 A 
ATOM     39  C   LIG    1       18.766 -32.460  13.110  0.00  0.00    +0.001 A 
ATOM     40  C   LIG    1       19.911 -32.123  12.387  0.00  0.00    +0.009 A 
BRANCH  36  41
ATOM     41  C   LIG    1       20.384 -28.517  13.545  0.00  0.00    +0.180 A 
ATOM     42  N   LIG    1       20.233 -27.464  12.683  0.00  0.00    -0.239 N 
ATOM     43  H   LIG    1       19.815 -27.436  11.763  0.00  0.00    +0.192 HD
ATOM     44  N   LIG    1       20.775 -26.352  13.199  0.00  0.00    -0.046 NA
ATOM     45  N   LIG    1       21.231 -26.712  14.387  0.00  0.00    -0.023 NA
ATOM     46  N   LIG    1       20.988 -28.042  14.622  0.00  0.00    -0.108 NA
ENDBRANCH  36  41
ENDBRANCH  32  35
ENDBRANCH  28  29
ENDBRANCH   2  28
TORSDOF 13
ENDMDL
MODEL 4
REMARK VINA RESULT:      -8.9      4.838      9.711
REMARK  Name = *****
REMARK                            x       y       z     vdW  Elec       q    Type
REMARK                         _______ _______ _______ _____ _____    ______ ____
ROOT
ATOM      1  C   LIG    1       24.246 -30.175   6.989  0.00  0.00    +0.299 A 
ATOM      2  N   LIG    1       25.120 -29.400   7.724  0.00  0.00    -0.289 N 
ATOM      3  C   LIG    1       24.886 -29.648   9.073  0.00  0.00    +0.086 A 
ATOM      4  C   LIG    1       23.771 -30.503   9.025  0.00  0.00    +0.093 A 
ATOM      5  C   LIG    1       23.153 -30.956  10.206  0.00  0.00    +0.030 A 
ATOM      6  C   LIG    1       23.654 -30.549  11.435  0.00  0.00    +0.003 A 
ATOM      7  C   LIG    1       24.785 -29.737  11.492  0.00  0.00    +0.017 A 
ATOM      8  C   LIG    1       25.454 -29.286  10.330  0.00  0.00    +0.085 A 
ATOM      9  N   LIG    1       23.414 -30.833   7.752  0.00  0.00    -0.195 NA
ENDROOT
BRANCH   8  10
ATOM     10  C   LIG    1       26.724 -28.527  10.480  0.00  0.00    +0.344 C 
ATOM     11  O   LIG    1       27.819 -28.969  10.179  0.00  0.00    -0.245 OA
BRANCH  10  12
ATOM     12  O   LIG    1       26.551 -27.311  11.064  0.00  0.00    -0.421 OA
BRANCH  12  13
ATOM     13  C   LIG    1       26.492 -27.386  12.497  0.00  0.00    +0.371 C 
ATOM     14  C   LIG    1       27.685 -28.170  13.045  0.00  0.00    +0.101 C 
BRANCH  13  15
ATOM     15  O   LIG    1       26.556 -26.107  13.148  0.00  0.00    -0.394 OA
BRANCH  15  16
ATOM     16  C   LIG    1       25.375 -25.524  13.439  0.00  0.00    +0.513 C 
ATOM     17  O   LIG    1       25.186 -24.335  13.656  0.00  0.00    -0.203 OA
BRANCH  16  18
ATOM     18  O   LIG    1       24.433 -26.498  13.449  0.00  0.00    -0.430 OA
BRANCH  18  19
ATOM     19  C   LIG    1       23.234 -26.226  14.192  0.00  0.00    +0.180 C 
ATOM     20  C   LIG    1       22.010 -26.407  13.284  0.00  0.00    +0.045 C 
ATOM     21  C   LIG    1       21.751 -27.860  12.888  0.00  0.00    +0.003 C 
ATOM     22  C   LIG    1       21.719 -28.776  14.107  0.00  0.00    +0.000 C 
ATOM     23  C   LIG    1       23.001 -28.648  14.920  0.00  0.00    +0.003 C 
ATOM     24  C   LIG    1       23.221 -27.203  15.373  0.00  0.00    +0.045 C 
ENDBRANCH  18  19
ENDBRANCH  16  18
ENDBRANCH  15  16
ENDBRANCH  13  15
ENDBRANCH  12  13
ENDBRANCH  10  12
ENDBRANCH   8  10
BRANCH   1  25
ATOM     25  O   LIG    1       24.244 -30.195   5.657  0.00  0.00    -0.464 OA
BRANCH  25  27
ATOM     26  C   LIG    1       26.026 -31.717   5.140  0.00  0.00    +0.048 C 
ATOM     27  C   LIG    1       24.531 -31.466   5.068  0.00  0.00    +0.229 C 
ENDBRANCH  25  27
ENDBRANCH   1  25
BRANCH   2  28
ATOM     28  C   LIG    1       26.082 -28.533   7.064  0.00  0.00    +0.162 C 
BRANCH  28  29
ATOM     29  C   LIG    1       25.590 -27.109   6.935  0.00  0.00    -0.028 A 
ATOM     30  C   LIG    1       24.366 -26.857   6.307  0.00  0.00    +0.006 A 
ATOM     31  C   LIG    1       23.900 -25.548   6.147  0.00  0.00    +0.009 A 
ATOM     32  C   LIG    1       24.619 -24.442   6.635  0.00  0.00    -0.017 A 
ATOM     33  C   LIG    1       25.819 -24.708   7.308  0.00  0.00    +0.009 A 
ATOM     34  C   LIG    1       26.310 -26.014   7.431  0.00  0.00    +0.006 A 
BRANCH  32  35
ATOM     35  C   LIG    1       24.086 -23.068   6.467  0.00  0.00    -0.007 A 
ATOM     36  C   LIG    1       24.781 -21.875   6.797  0.00  0.00    +0.028 A 
ATOM     37  C   LIG    1       24.142 -20.631   6.588  0.00  0.00    +0.012 A 
ATOM     38  C   LIG    1       22.861 -20.543   6.048  0.00  0.00    +0.001 A 
ATOM     39  C   LIG    1       22.176 -21.701   5.723  0.00  0.00    +0.001 A 
ATOM     40  C   LIG    1       22.777 -22.941   5.940  0.00  0.00    +0.009 A 
BRANCH  36  41
ATOM     41  C   LIG    1       26.141 -21.808   7.345  0.00  0.00    +0.180 A 
ATOM     42  N   LIG    1       27.301 -21.674   6.631  0.00  0.00    -0.239 N 
ATOM     43  H   LIG    1       27.445 -21.632   5.630  0.00  0.00    +0.192 HD
ATOM     44  N   LIG    1       28.358 -21.636   7.454  0.00  0.00    -0.046 NA
ATOM     45  N   LIG    1       27.847 -21.713   8.671  0.00  0.00    -0.023 NA
ATOM     46  N   LIG    1       26.479 -21.808   8.623  0.00  0.00    -0.108 NA
ENDBRANCH  36  41
ENDBRANCH  32  35
ENDBRANCH  28  29
ENDBRANCH   2  28
TORSDOF 13
ENDMDL
MODEL 5
REMARK VINA RESULT:      -8.6      4.805      9.705
REMARK  Name = *****
REMARK                            x       y       z     vdW  Elec       q    Type
REMARK                         _______ _______ _______ _____ _____    ______ ____
ROOT
ATOM      1  C   LIG    1       24.492 -30.045   6.719  0.00  0.00    +0.299 A 
ATOM      2  N   LIG    1       25.246 -29.258   7.566  0.00  0.00    -0.289 N 
ATOM      3  C   LIG    1       24.897 -29.578   8.875  0.00  0.00    +0.086 A 
ATOM      4  C   LIG    1       23.843 -30.488   8.684  0.00  0.00    +0.093 A 
ATOM      5  C   LIG    1       23.143 -31.026   9.780  0.00  0.00    +0.030 A 
ATOM      6  C   LIG    1       23.498 -30.648  11.068  0.00  0.00    +0.003 A 
ATOM      7  C   LIG    1       24.570 -29.780  11.267  0.00  0.00    +0.017 A 
ATOM      8  C   LIG    1       25.321 -29.242  10.195  0.00  0.00    +0.085 A 
ATOM      9  N   LIG    1       23.631 -30.780   7.370  0.00  0.00    -0.195 NA
ENDROOT
BRANCH   8  10
ATOM     10  C   LIG    1       26.524 -28.424  10.499  0.00  0.00    +0.344 C 
ATOM     11  O   LIG    1       26.529 -27.206  10.522  0.00  0.00    -0.245 OA
BRANCH  10  12
ATOM     12  O   LIG    1       27.646 -29.172  10.675  0.00  0.00    -0.421 OA
BRANCH  12  13
ATOM     13  C   LIG    1       27.957 -29.389  12.061  0.00  0.00    +0.371 C 
ATOM     14  C   LIG    1       29.466 -29.542  12.256  0.00  0.00    +0.101 C 
BRANCH  13  15
ATOM     15  O   LIG    1       27.578 -28.301  12.918  0.00  0.00    -0.394 OA
BRANCH  15  16
ATOM     16  C   LIG    1       27.045 -28.638  14.111  0.00  0.00    +0.513 C 
ATOM     17  O   LIG    1       27.664 -28.920  15.128  0.00  0.00    -0.203 OA
BRANCH  16  18
ATOM     18  O   LIG    1       25.698 -28.609  13.976  0.00  0.00    -0.430 OA
BRANCH  18  19
ATOM     19  C   LIG    1       24.962 -27.933  15.010  0.00  0.00    +0.180 C 
ATOM     20  C   LIG    1       25.164 -26.417  14.884  0.00  0.00    +0.045 C 
ATOM     21  C   LIG    1       24.500 -25.812  13.647  0.00  0.00    +0.003 C 
ATOM     22  C   LIG    1       23.033 -26.220  13.544  0.00  0.00    +0.000 C 
ATOM     23  C   LIG    1       22.886 -27.736  13.560  0.00  0.00    +0.003 C 
ATOM     24  C   LIG    1       23.493 -28.333  14.833  0.00  0.00    +0.045 C 
ENDBRANCH  18  19
ENDBRANCH  16  18
ENDBRANCH  15  16
ENDBRANCH  13  15
ENDBRANCH  12  13
ENDBRANCH  10  12
ENDBRANCH   8  10
BRANCH   1  25
ATOM     25  O   LIG    1       24.619 -30.005   5.394  0.00  0.00    -0.464 OA
BRANCH  25  27
ATOM     26  C   LIG    1       26.178 -31.792   5.765  0.00  0.00    +0.048 C 
ATOM     27  C   LIG    1       25.177 -31.181   4.802  0.00  0.00    +0.229 C 
ENDBRANCH  25  27
ENDBRANCH   1  25
BRANCH   2  28
ATOM     28  C   LIG    1       26.215 -28.312   7.038  0.00  0.00    +0.162 C 
BRANCH  28  29
ATOM     29  C   LIG    1       25.636 -26.927   6.853  0.00  0.00    -0.028 A 
ATOM     30  C   LIG    1       26.418 -25.807   7.156  0.00  0.00    +0.006 A 
ATOM     31  C   LIG    1       25.900 -24.515   7.023  0.00  0.00    +0.009 A 
ATOM     32  C   LIG    1       24.594 -24.287   6.553  0.00  0.00    -0.017 A 
ATOM     33  C   LIG    1       23.836 -25.413   6.203  0.00  0.00    +0.009 A 
ATOM     34  C   LIG    1       24.337 -26.709   6.377  0.00  0.00    +0.006 A 
BRANCH  32  35
ATOM     35  C   LIG    1       24.082 -22.904   6.404  0.00  0.00    -0.007 A 
ATOM     36  C   LIG    1       24.793 -21.726   6.753  0.00  0.00    +0.028 A 
ATOM     37  C   LIG    1       24.173 -20.469   6.561  0.00  0.00    +0.012 A 
ATOM     38  C   LIG    1       22.894 -20.355   6.020  0.00  0.00    +0.001 A 
ATOM     39  C   LIG    1       22.194 -21.498   5.676  0.00  0.00    +0.001 A 
ATOM     40  C   LIG    1       22.776 -22.750   5.876  0.00  0.00    +0.009 A 
BRANCH  36  41
ATOM     41  C   LIG    1       26.152 -21.686   7.306  0.00  0.00    +0.180 A 
ATOM     42  N   LIG    1       27.317 -21.576   6.595  0.00  0.00    -0.239 N 
ATOM     43  H   LIG    1       27.465 -21.536   5.596  0.00  0.00    +0.192 HD
ATOM     44  N   LIG    1       28.372 -21.559   7.422  0.00  0.00    -0.046 NA
ATOM     45  N   LIG    1       27.856 -21.627   8.638  0.00  0.00    -0.023 NA
ATOM     46  N   LIG    1       26.486 -21.694   8.585  0.00  0.00    -0.108 NA
ENDBRANCH  36  41
ENDBRANCH  32  35
ENDBRANCH  28  29
ENDBRANCH   2  28
TORSDOF 13
ENDMDL
MODEL 6
REMARK VINA RESULT:      -8.2      4.994     10.367
REMARK  Name = *****
REMARK                            x       y       z     vdW  Elec       q    Type
REMARK                         _______ _______ _______ _____ _____    ______ ____
ROOT
ATOM      1  C   LIG    1       24.389 -30.312   6.717  0.00  0.00    +0.299 A 
ATOM      2  N   LIG    1       25.145 -29.483   7.522  0.00  0.00    -0.289 N 
ATOM      3  C   LIG    1       24.786 -29.723   8.845  0.00  0.00    +0.086 A 
ATOM      4  C   LIG    1       23.725 -30.634   8.700  0.00  0.00    +0.093 A 
ATOM      5  C   LIG    1       23.013 -31.101   9.821  0.00  0.00    +0.030 A 
ATOM      6  C   LIG    1       23.364 -30.651  11.087  0.00  0.00    +0.003 A 
ATOM      7  C   LIG    1       24.442 -29.783  11.242  0.00  0.00    +0.017 A 
ATOM      8  C   LIG    1       25.204 -29.315  10.146  0.00  0.00    +0.085 A 
ATOM      9  N   LIG    1       23.517 -31.000   7.404  0.00  0.00    -0.195 NA
ENDROOT
BRANCH   8  10
ATOM     10  C   LIG    1       26.413 -28.490  10.410  0.00  0.00    +0.344 C 
ATOM     11  O   LIG    1       27.508 -28.717   9.927  0.00  0.00    -0.245 OA
BRANCH  10  12
ATOM     12  O   LIG    1       26.192 -27.496  11.311  0.00  0.00    -0.421 OA
BRANCH  12  13
ATOM     13  C   LIG    1       27.128 -27.515  12.401  0.00  0.00    +0.371 C 
ATOM     14  C   LIG    1       27.106 -26.185  13.154  0.00  0.00    +0.101 C 
BRANCH  13  15
ATOM     15  O   LIG    1       26.841 -28.512  13.394  0.00  0.00    -0.394 OA
BRANCH  15  16
ATOM     16  C   LIG    1       27.672 -29.573  13.435  0.00  0.00    +0.513 C 
ATOM     17  O   LIG    1       28.894 -29.537  13.472  0.00  0.00    -0.203 OA
BRANCH  16  18
ATOM     18  O   LIG    1       26.905 -30.690  13.422  0.00  0.00    -0.430 OA
BRANCH  18  19
ATOM     19  C   LIG    1       26.677 -31.328  14.690  0.00  0.00    +0.180 C 
ATOM     20  C   LIG    1       25.548 -30.605  15.438  0.00  0.00    +0.045 C 
ATOM     21  C   LIG    1       24.173 -30.790  14.797  0.00  0.00    +0.003 C 
ATOM     22  C   LIG    1       23.864 -32.264  14.550  0.00  0.00    +0.000 C 
ATOM     23  C   LIG    1       24.955 -32.916  13.709  0.00  0.00    +0.003 C 
ATOM     24  C   LIG    1       26.321 -32.787  14.387  0.00  0.00    +0.045 C 
ENDBRANCH  18  19
ENDBRANCH  16  18
ENDBRANCH  15  16
ENDBRANCH  13  15
ENDBRANCH  12  13
ENDBRANCH  10  12
ENDBRANCH   8  10
BRANCH   1  25
ATOM     25  O   LIG    1       24.525 -30.350   5.393  0.00  0.00    -0.464 OA
BRANCH  25  27
ATOM     26  C   LIG    1       25.129 -32.485   4.477  0.00  0.00    +0.048 C 
ATOM     27  C   LIG    1       25.631 -31.123   4.918  0.00  0.00    +0.229 C 
ENDBRANCH  25  27
ENDBRANCH   1  25
BRANCH   2  28
ATOM     28  C   LIG    1       26.125 -28.577   6.946  0.00  0.00    +0.162 C 
BRANCH  28  29
ATOM     29  C   LIG    1       25.618 -27.156   6.846  0.00  0.00    -0.028 A 
ATOM     30  C   LIG    1       24.381 -26.907   6.242  0.00  0.00    +0.006 A 
ATOM     31  C   LIG    1       23.899 -25.601   6.109  0.00  0.00    +0.009 A 
ATOM     32  C   LIG    1       24.617 -24.495   6.599  0.00  0.00    -0.017 A 
ATOM     33  C   LIG    1       25.831 -24.758   7.248  0.00  0.00    +0.009 A 
ATOM     34  C   LIG    1       26.336 -26.062   7.345  0.00  0.00    +0.006 A 
BRANCH  32  35
ATOM     35  C   LIG    1       24.068 -23.124   6.459  0.00  0.00    -0.007 A 
ATOM     36  C   LIG    1       24.751 -21.930   6.812  0.00  0.00    +0.028 A 
ATOM     37  C   LIG    1       24.097 -20.690   6.629  0.00  0.00    +0.012 A 
ATOM     38  C   LIG    1       22.814 -20.605   6.093  0.00  0.00    +0.001 A 
ATOM     39  C   LIG    1       22.141 -21.765   5.746  0.00  0.00    +0.001 A 
ATOM     40  C   LIG    1       22.756 -23.002   5.938  0.00  0.00    +0.009 A 
BRANCH  36  41
ATOM     41  C   LIG    1       26.110 -21.858   7.359  0.00  0.00    +0.180 A 
ATOM     42  N   LIG    1       27.274 -21.779   6.641  0.00  0.00    -0.239 N 
ATOM     43  H   LIG    1       27.419 -21.789   5.640  0.00  0.00    +0.192 HD
ATOM     44  N   LIG    1       28.330 -21.718   7.464  0.00  0.00    -0.046 NA
ATOM     45  N   LIG    1       27.817 -21.727   8.683  0.00  0.00    -0.023 NA
ATOM     46  N   LIG    1       26.447 -21.801   8.636  0.00  0.00    -0.108 NA
ENDBRANCH  36  41
ENDBRANCH  32  35
ENDBRANCH  28  29
ENDBRANCH   2  28
TORSDOF 13
ENDMDL
MODEL 7
REMARK VINA RESULT:      -7.7      7.696     11.131
REMARK  Name = *****
REMARK                            x       y       z     vdW  Elec       q    Type
REMARK                         _______ _______ _______ _____ _____    ______ ____
ROOT
ATOM      1  C   LIG    1       23.865 -31.410   6.863  0.00  0.00    +0.299 A 
ATOM      2  N   LIG    1       24.628 -31.290   8.007  0.00  0.00    -0.289 N 
ATOM      3  C   LIG    1       25.171 -30.009   8.029  0.00  0.00    +0.086 A 
ATOM      4  C   LIG    1       24.756 -29.492   6.790  0.00  0.00    +0.093 A 
ATOM      5  C   LIG    1       25.152 -28.208   6.371  0.00  0.00    +0.030 A 
ATOM      6  C   LIG    1       25.967 -27.444   7.195  0.00  0.00    +0.003 A 
ATOM      7  C   LIG    1       26.347 -27.932   8.443  0.00  0.00    +0.017 A 
ATOM      8  C   LIG    1       25.945 -29.203   8.916  0.00  0.00    +0.085 A 
ATOM      9  N   LIG    1       23.941 -30.346   6.109  0.00  0.00    -0.195 NA
ENDROOT
BRANCH   8  10
ATOM     10  C   LIG    1       26.291 -29.596  10.308  0.00  0.00    +0.344 C 
ATOM     11  O   LIG    1       27.171 -30.390  10.590  0.00  0.00    -0.245 OA
BRANCH  10  12
ATOM     12  O   LIG    1       25.473 -29.036  11.238  0.00  0.00    -0.421 OA
BRANCH  12  13
ATOM     13  C   LIG    1       26.184 -28.559  12.391  0.00  0.00    +0.371 C 
ATOM     14  C   LIG    1       26.934 -27.267  12.066  0.00  0.00    +0.101 C 
BRANCH  13  15
ATOM     15  O   LIG    1       25.335 -28.229  13.501  0.00  0.00    -0.394 OA
BRANCH  15  16
ATOM     16  C   LIG    1       24.551 -29.222  13.971  0.00  0.00    +0.513 C 
ATOM     17  O   LIG    1       24.780 -30.422  13.900  0.00  0.00    -0.203 OA
BRANCH  16  18
ATOM     18  O   LIG    1       23.461 -28.647  14.534  0.00  0.00    -0.430 OA
BRANCH  18  19
ATOM     19  C   LIG    1       22.183 -29.041  14.009  0.00  0.00    +0.180 C 
ATOM     20  C   LIG    1       21.114 -28.918  15.104  0.00  0.00    +0.045 C 
ATOM     21  C   LIG    1       20.805 -27.474  15.497  0.00  0.00    +0.003 C 
ATOM     22  C   LIG    1       20.496 -26.615  14.276  0.00  0.00    +0.000 C 
ATOM     23  C   LIG    1       21.633 -26.677  13.264  0.00  0.00    +0.003 C 
ATOM     24  C   LIG    1       21.895 -28.118  12.820  0.00  0.00    +0.045 C 
ENDBRANCH  18  19
ENDBRANCH  16  18
ENDBRANCH  15  16
ENDBRANCH  13  15
ENDBRANCH  12  13
ENDBRANCH  10  12
ENDBRANCH   8  10
BRANCH   1  25
ATOM     25  O   LIG    1       23.177 -32.512   6.567  0.00  0.00    -0.464 OA
BRANCH  25  27
ATOM     26  C   LIG    1       24.985 -33.527   5.358  0.00  0.00    +0.048 C 
ATOM     27  C   LIG    1       23.521 -33.127   5.323  0.00  0.00    +0.229 C 
ENDBRANCH  25  27
ENDBRANCH   1  25
BRANCH   2  28
ATOM     28  C   LIG    1       24.739 -32.393   8.947  0.00  0.00    +0.162 C 
BRANCH  28  29
ATOM     29  C   LIG    1       23.610 -32.415   9.954  0.00  0.00    -0.028 A 
ATOM     30  C   LIG    1       22.876 -31.249  10.192  0.00  0.00    +0.006 A 
ATOM     31  C   LIG    1       21.847 -31.232  11.139  0.00  0.00    +0.009 A 
ATOM     32  C   LIG    1       21.488 -32.384  11.861  0.00  0.00    -0.017 A 
ATOM     33  C   LIG    1       22.194 -33.561  11.578  0.00  0.00    +0.009 A 
ATOM     34  C   LIG    1       23.255 -33.570  10.663  0.00  0.00    +0.006 A 
BRANCH  32  35
ATOM     35  C   LIG    1       20.377 -32.338  12.843  0.00  0.00    -0.007 A 
ATOM     36  C   LIG    1       19.007 -32.151  12.521  0.00  0.00    +0.028 A 
ATOM     37  C   LIG    1       18.056 -32.121  13.567  0.00  0.00    +0.012 A 
ATOM     38  C   LIG    1       18.423 -32.291  14.900  0.00  0.00    +0.001 A 
ATOM     39  C   LIG    1       19.757 -32.474  15.223  0.00  0.00    +0.001 A 
ATOM     40  C   LIG    1       20.716 -32.485  14.211  0.00  0.00    +0.009 A 
BRANCH  36  41
ATOM     41  C   LIG    1       18.468 -31.986  11.166  0.00  0.00    +0.180 A 
ATOM     42  N   LIG    1       18.180 -30.802  10.542  0.00  0.00    -0.239 N 
ATOM     43  H   LIG    1       18.247 -29.855  10.888  0.00  0.00    +0.192 HD
ATOM     44  N   LIG    1       17.713 -31.024   9.305  0.00  0.00    -0.046 NA
ATOM     45  N   LIG    1       17.744 -32.338   9.158  0.00  0.00    -0.023 NA
ATOM     46  N   LIG    1       18.219 -32.947  10.293  0.00  0.00    -0.108 NA
ENDBRANCH  36  41
ENDBRANCH  32  35
ENDBRANCH  28  29
ENDBRANCH   2  28
TORSDOF 13
ENDMDL
MODEL 8
REMARK VINA RESULT:      -7.7      8.543     12.761
REMARK  Name = *****
REMARK                            x       y       z     vdW  Elec       q    Type
REMARK                         _______ _______ _______ _____ _____    ______ ____
ROOT
ATOM      1  C   LIG    1       25.521 -28.232  13.011  0.00  0.00    +0.299 A 
ATOM      2  N   LIG    1       24.572 -29.217  12.824  0.00  0.00    -0.289 N 
ATOM      3  C   LIG    1       23.316 -28.617  12.856  0.00  0.00    +0.086 A 
ATOM      4  C   LIG    1       23.636 -27.287  13.182  0.00  0.00    +0.093 A 
ATOM      5  C   LIG    1       22.625 -26.327  13.380  0.00  0.00    +0.030 A 
ATOM      6  C   LIG    1       21.295 -26.703  13.254  0.00  0.00    +0.003 A 
ATOM      7  C   LIG    1       20.972 -28.008  12.888  0.00  0.00    +0.017 A 
ATOM      8  C   LIG    1       21.958 -28.995  12.649  0.00  0.00    +0.085 A 
ATOM      9  N   LIG    1       24.979 -27.067  13.244  0.00  0.00    -0.195 NA
ENDROOT
BRANCH   8  10
ATOM     10  C   LIG    1       21.533 -30.327  12.143  0.00  0.00    +0.344 C 
ATOM     11  O   LIG    1       21.274 -30.559  10.975  0.00  0.00    -0.245 OA
BRANCH  10  12
ATOM     12  O   LIG    1       21.385 -31.249  13.131  0.00  0.00    -0.421 OA
BRANCH  12  13
ATOM     13  C   LIG    1       21.503 -32.599  12.655  0.00  0.00    +0.371 C 
ATOM     14  C   LIG    1       22.697 -33.298  13.305  0.00  0.00    +0.101 C 
BRANCH  13  15
ATOM     15  O   LIG    1       20.370 -33.425  12.968  0.00  0.00    -0.394 OA
BRANCH  15  16
ATOM     16  C   LIG    1       19.452 -33.577  11.991  0.00  0.00    +0.513 C 
ATOM     17  O   LIG    1       19.679 -33.803  10.811  0.00  0.00    -0.203 OA
BRANCH  16  18
ATOM     18  O   LIG    1       18.230 -33.429  12.557  0.00  0.00    -0.430 OA
BRANCH  18  19
ATOM     19  C   LIG    1       17.286 -32.613  11.844  0.00  0.00    +0.180 C 
ATOM     20  C   LIG    1       15.911 -32.701  12.520  0.00  0.00    +0.045 C 
ATOM     21  C   LIG    1       15.859 -32.029  13.892  0.00  0.00    +0.003 C 
ATOM     22  C   LIG    1       16.396 -30.602  13.836  0.00  0.00    +0.000 C 
ATOM     23  C   LIG    1       17.807 -30.572  13.262  0.00  0.00    +0.003 C 
ATOM     24  C   LIG    1       17.842 -31.185  11.860  0.00  0.00    +0.045 C 
ENDBRANCH  18  19
ENDBRANCH  16  18
ENDBRANCH  15  16
ENDBRANCH  13  15
ENDBRANCH  12  13
ENDBRANCH  10  12
ENDBRANCH   8  10
BRANCH   1  25
ATOM     25  O   LIG    1       26.830 -28.480  12.994  0.00  0.00    -0.464 OA
BRANCH  25  27
ATOM     26  C   LIG    1       27.743 -29.678  14.862  0.00  0.00    +0.048 C 
ATOM     27  C   LIG    1       27.495 -28.313  14.248  0.00  0.00    +0.229 C 
ENDBRANCH  25  27
ENDBRANCH   1  25
BRANCH   2  28
ATOM     28  C   LIG    1       24.965 -30.602  12.622  0.00  0.00    +0.162 C 
BRANCH  28  29
ATOM     29  C   LIG    1       25.234 -30.925  11.169  0.00  0.00    -0.028 A 
ATOM     30  C   LIG    1       24.270 -31.613  10.426  0.00  0.00    +0.006 A 
ATOM     31  C   LIG    1       24.503 -31.952   9.090  0.00  0.00    +0.009 A 
ATOM     32  C   LIG    1       25.692 -31.589   8.432  0.00  0.00    -0.017 A 
ATOM     33  C   LIG    1       26.630 -30.855   9.169  0.00  0.00    +0.009 A 
ATOM     34  C   LIG    1       26.418 -30.552  10.520  0.00  0.00    +0.006 A 
BRANCH  32  35
ATOM     35  C   LIG    1       25.899 -31.945   7.008  0.00  0.00    -0.007 A 
ATOM     36  C   LIG    1       25.638 -31.092   5.904  0.00  0.00    +0.028 A 
ATOM     37  C   LIG    1       25.877 -31.571   4.596  0.00  0.00    +0.012 A 
ATOM     38  C   LIG    1       26.382 -32.849   4.361  0.00  0.00    +0.001 A 
ATOM     39  C   LIG    1       26.640 -33.688   5.431  0.00  0.00    +0.001 A 
ATOM     40  C   LIG    1       26.391 -33.245   6.730  0.00  0.00    +0.009 A 
BRANCH  36  41
ATOM     41  C   LIG    1       25.133 -29.717   5.994  0.00  0.00    +0.180 A 
ATOM     42  N   LIG    1       25.885 -28.573   6.026  0.00  0.00    -0.239 N 
ATOM     43  H   LIG    1       26.890 -28.459   6.028  0.00  0.00    +0.192 HD
ATOM     44  N   LIG    1       25.096 -27.493   6.100  0.00  0.00    -0.046 NA
ATOM     45  N   LIG    1       23.862 -27.968   6.082  0.00  0.00    -0.023 NA
ATOM     46  N   LIG    1       23.866 -29.339   6.005  0.00  0.00    -0.108 NA
ENDBRANCH  36  41
ENDBRANCH  32  35
ENDBRANCH  28  29
ENDBRANCH   2  28
TORSDOF 13
ENDMDL
MODEL 9
REMARK VINA RESULT:      -7.6      5.089      9.343
REMARK  Name = *****
REMARK                            x       y       z     vdW  Elec       q    Type
REMARK                         _______ _______ _______ _____ _____    ______ ____
ROOT
ATOM      1  C   LIG    1       25.358 -31.765   8.185  0.00  0.00    +0.299 A 
ATOM      2  N   LIG    1       25.720 -30.435   8.250  0.00  0.00    -0.289 N 
ATOM      3  C   LIG    1       25.333 -29.825   7.060  0.00  0.00    +0.086 A 
ATOM      4  C   LIG    1       24.853 -30.915   6.314  0.00  0.00    +0.093 A 
ATOM      5  C   LIG    1       24.409 -30.747   4.989  0.00  0.00    +0.030 A 
ATOM      6  C   LIG    1       24.450 -29.486   4.412  0.00  0.00    +0.003 A 
ATOM      7  C   LIG    1       24.884 -28.392   5.159  0.00  0.00    +0.017 A 
ATOM      8  C   LIG    1       25.309 -28.512   6.503  0.00  0.00    +0.085 A 
ATOM      9  N   LIG    1       24.850 -32.079   7.024  0.00  0.00    -0.195 NA
ENDROOT
BRANCH   8  10
ATOM     10  C   LIG    1       25.638 -27.279   7.266  0.00  0.00    +0.344 C 
ATOM     11  O   LIG    1       26.474 -27.231   8.151  0.00  0.00    -0.245 OA
BRANCH  10  12
ATOM     12  O   LIG    1       24.855 -26.220   6.928  0.00  0.00    -0.421 OA
BRANCH  12  13
ATOM     13  C   LIG    1       25.581 -25.188   6.242  0.00  0.00    +0.371 C 
ATOM     14  C   LIG    1       25.206 -25.159   4.760  0.00  0.00    +0.101 C 
BRANCH  13  15
ATOM     15  O   LIG    1       25.301 -23.864   6.723  0.00  0.00    -0.394 OA
BRANCH  15  16
ATOM     16  C   LIG    1       24.087 -23.361   6.418  0.00  0.00    +0.513 C 
ATOM     17  O   LIG    1       23.014 -23.723   6.882  0.00  0.00    -0.203 OA
BRANCH  16  18
ATOM     18  O   LIG    1       24.272 -22.382   5.500  0.00  0.00    -0.430 OA
BRANCH  18  19
ATOM     19  C   LIG    1       24.599 -21.078   6.006  0.00  0.00    +0.180 C 
ATOM     20  C   LIG    1       25.422 -20.309   4.964  0.00  0.00    +0.045 C 
ATOM     21  C   LIG    1       24.623 -19.918   3.721  0.00  0.00    +0.003 C 
ATOM     22  C   LIG    1       23.327 -19.203   4.090  0.00  0.00    +0.000 C 
ATOM     23  C   LIG    1       22.488 -20.049   5.039  0.00  0.00    +0.003 C 
ATOM     24  C   LIG    1       23.268 -20.382   6.313  0.00  0.00    +0.045 C 
ENDBRANCH  18  19
ENDBRANCH  16  18
ENDBRANCH  15  16
ENDBRANCH  13  15
ENDBRANCH  12  13
ENDBRANCH  10  12
ENDBRANCH   8  10
BRANCH   1  25
ATOM     25  O   LIG    1       25.556 -32.616   9.191  0.00  0.00    -0.464 OA
BRANCH  25  27
ATOM     26  C   LIG    1       27.682 -33.501   8.512  0.00  0.00    +0.048 C 
ATOM     27  C   LIG    1       26.235 -33.824   8.838  0.00  0.00    +0.229 C 
ENDBRANCH  25  27
ENDBRANCH   1  25
BRANCH   2  28
ATOM     28  C   LIG    1       26.372 -29.897   9.432  0.00  0.00    +0.162 C 
BRANCH  28  29
ATOM     29  C   LIG    1       25.386 -29.461  10.494  0.00  0.00    -0.028 A 
ATOM     30  C   LIG    1       24.061 -29.901  10.425  0.00  0.00    +0.006 A 
ATOM     31  C   LIG    1       23.120 -29.490  11.375  0.00  0.00    +0.009 A 
ATOM     32  C   LIG    1       23.471 -28.652  12.449  0.00  0.00    -0.017 A 
ATOM     33  C   LIG    1       24.813 -28.258  12.538  0.00  0.00    +0.009 A 
ATOM     34  C   LIG    1       25.747 -28.632  11.563  0.00  0.00    +0.006 A 
BRANCH  32  35
ATOM     35  C   LIG    1       22.454 -28.251  13.451  0.00  0.00    -0.007 A 
ATOM     36  C   LIG    1       22.033 -29.044  14.550  0.00  0.00    +0.028 A 
ATOM     37  C   LIG    1       21.045 -28.533  15.424  0.00  0.00    +0.012 A 
ATOM     38  C   LIG    1       20.491 -27.267  15.248  0.00  0.00    +0.001 A 
ATOM     39  C   LIG    1       20.896 -26.487  14.178  0.00  0.00    +0.001 A 
ATOM     40  C   LIG    1       21.853 -26.978  13.290  0.00  0.00    +0.009 A 
BRANCH  36  41
ATOM     41  C   LIG    1       22.543 -30.380  14.880  0.00  0.00    +0.180 A 
ATOM     42  N   LIG    1       23.853 -30.726  15.075  0.00  0.00    -0.239 N 
ATOM     43  H   LIG    1       24.690 -30.163  15.000  0.00  0.00    +0.192 HD
ATOM     44  N   LIG    1       23.956 -32.029  15.372  0.00  0.00    -0.046 NA
ATOM     45  N   LIG    1       22.711 -32.476  15.390  0.00  0.00    -0.023 NA
ATOM     46  N   LIG    1       21.825 -31.468  15.100  0.00  0.00    -0.108 NA
ENDBRANCH  36  41
ENDBRANCH  32  35
ENDBRANCH  28  29
ENDBRANCH   2  28
TORSDOF 13
ENDMDL
