MODEL 1
REMARK VINA RESULT:       0.6      0.000      0.000
REMARK  Name = *****
REMARK                            x       y       z     vdW  Elec       q    Type
REMARK                         _______ _______ _______ _____ _____    ______ ____
ROOT
ATOM      1  C   LIG    1       22.775 -12.333   5.432  0.00  0.00    +0.105 C 
ATOM      2  N   LIG    1       24.122 -12.062   4.880  0.00  0.00    -0.304 NA
ATOM      3  C   LIG    1       24.807 -13.356   5.008  0.00  0.00    +0.093 C 
ATOM      4  C   LIG    1       24.337 -14.008   3.682  0.00  0.00    +0.045 C 
ATOM      5  C   LIG    1       24.949 -13.044   2.684  0.00  0.00    +0.045 C 
ATOM      6  C   LIG    1       26.475 -13.187   2.783  0.00  0.00    -0.000 A 
ATOM      7  C   LIG    1       27.083 -14.442   3.048  0.00  0.00    +0.132 A 
ATOM      8  O   LIG    1       26.584 -15.673   2.671  0.00  0.00    -0.456 OA
ATOM      9  C   LIG    1       25.492 -16.209   3.298  0.00  0.00    +0.132 A 
ATOM     10  C   LIG    1       25.425 -17.588   3.469  0.00  0.00    +0.048 A 
ATOM     11  C   LIG    1       24.273 -18.237   3.959  0.00  0.00    +0.023 A 
ATOM     12  C   LIG    1       23.140 -17.473   4.242  0.00  0.00    +0.042 A 
ATOM     13 CL   LIG    1       21.675 -18.206   4.765  0.00  0.00    -0.084 Cl
ATOM     14  C   LIG    1       23.205 -16.123   4.101  0.00  0.00    +0.027 A 
ATOM     15  C   LIG    1       28.320 -14.495   3.700  0.00  0.00    +0.046 A 
ATOM     16  C   LIG    1       28.978 -13.322   4.061  0.00  0.00    +0.004 A 
ATOM     17  C   LIG    1       28.468 -12.093   3.654  0.00  0.00    +0.001 A 
ATOM     18  C   LIG    1       27.243 -12.023   2.986  0.00  0.00    +0.007 A 
ATOM     19  C   LIG    1       24.384 -15.460   3.667  0.00  0.00    +0.001 A 
ATOM     20  C   LIG    1       24.225 -11.793   3.380  0.00  0.00    +0.093 C 
ENDROOT
TORSDOF 0
ENDMDL
MODEL 2
REMARK VINA RESULT:       1.9      3.449      6.829
REMARK  Name = *****
REMARK                            x       y       z     vdW  Elec       q    Type
REMARK                         _______ _______ _______ _____ _____    ______ ____
ROOT
ATOM      1  C   LIG    1       28.623 -19.537   5.538  0.00  0.00    +0.105 C 
ATOM      2  N   LIG    1       27.275 -20.132   5.395  0.00  0.00    -0.304 NA
ATOM      3  C   LIG    1       26.381 -18.969   5.483  0.00  0.00    +0.093 C 
ATOM      4  C   LIG    1       26.405 -18.536   3.994  0.00  0.00    +0.045 C 
ATOM      5  C   LIG    1       25.804 -19.770   3.351  0.00  0.00    +0.045 C 
ATOM      6  C   LIG    1       24.341 -19.862   3.808  0.00  0.00    -0.000 A 
ATOM      7  C   LIG    1       23.557 -18.696   4.014  0.00  0.00    +0.132 A 
ATOM      8  O   LIG    1       23.695 -17.504   3.330  0.00  0.00    -0.456 OA
ATOM      9  C   LIG    1       24.762 -16.679   3.567  0.00  0.00    +0.132 A 
ATOM     10  C   LIG    1       24.576 -15.303   3.491  0.00  0.00    +0.048 A 
ATOM     11  C   LIG    1       25.647 -14.388   3.564  0.00  0.00    +0.023 A 
ATOM     12  C   LIG    1       26.947 -14.882   3.670  0.00  0.00    +0.042 A 
ATOM     13 CL   LIG    1       28.306 -13.826   3.682  0.00  0.00    -0.084 Cl
ATOM     14  C   LIG    1       27.136 -16.224   3.769  0.00  0.00    +0.027 A 
ATOM     15  C   LIG    1       22.509 -18.713   4.939  0.00  0.00    +0.046 A 
ATOM     16  C   LIG    1       22.204 -19.878   5.638  0.00  0.00    +0.004 A 
ATOM     17  C   LIG    1       22.857 -21.064   5.319  0.00  0.00    +0.001 A 
ATOM     18  C   LIG    1       23.895 -21.069   4.383  0.00  0.00    +0.007 A 
ATOM     19  C   LIG    1       26.055 -17.145   3.759  0.00  0.00    +0.001 A 
ATOM     20  C   LIG    1       26.906 -20.716   4.033  0.00  0.00    +0.093 C 
ENDROOT
TORSDOF 0
ENDMDL
MODEL 3
REMARK VINA RESULT:       2.7      1.544      2.022
REMARK  Name = *****
REMARK                            x       y       z     vdW  Elec       q    Type
REMARK                         _______ _______ _______ _____ _____    ______ ____
ROOT
ATOM      1  C   LIG    1       21.855 -14.856   5.960  0.00  0.00    +0.105 C 
ATOM      2  N   LIG    1       23.090 -14.257   5.404  0.00  0.00    -0.304 NA
ATOM      3  C   LIG    1       24.045 -15.375   5.421  0.00  0.00    +0.093 C 
ATOM      4  C   LIG    1       23.680 -16.022   4.060  0.00  0.00    +0.045 C 
ATOM      5  C   LIG    1       24.031 -14.882   3.124  0.00  0.00    +0.045 C 
ATOM      6  C   LIG    1       25.554 -14.691   3.181  0.00  0.00    -0.000 A 
ATOM      7  C   LIG    1       26.431 -15.797   3.340  0.00  0.00    +0.132 A 
ATOM      8  O   LIG    1       26.199 -17.078   2.882  0.00  0.00    -0.456 OA
ATOM      9  C   LIG    1       25.273 -17.884   3.490  0.00  0.00    +0.132 A 
ATOM     10  C   LIG    1       25.515 -19.251   3.559  0.00  0.00    +0.048 A 
ATOM     11  C   LIG    1       24.551 -20.170   4.023  0.00  0.00    +0.023 A 
ATOM     12  C   LIG    1       23.290 -19.695   4.384  0.00  0.00    +0.042 A 
ATOM     13 CL   LIG    1       22.040 -20.768   4.882  0.00  0.00    -0.084 Cl
ATOM     14  C   LIG    1       23.053 -18.358   4.344  0.00  0.00    +0.027 A 
ATOM     15  C   LIG    1       27.672 -15.620   3.961  0.00  0.00    +0.046 A 
ATOM     16  C   LIG    1       28.071 -14.359   4.394  0.00  0.00    +0.004 A 
ATOM     17  C   LIG    1       27.291 -13.247   4.091  0.00  0.00    +0.001 A 
ATOM     18  C   LIG    1       26.057 -13.403   3.455  0.00  0.00    +0.007 A 
ATOM     19  C   LIG    1       24.043 -17.424   3.936  0.00  0.00    +0.001 A 
ATOM     20  C   LIG    1       23.078 -13.871   3.926  0.00  0.00    +0.093 C 
ENDROOT
TORSDOF 0
ENDMDL
MODEL 4
REMARK VINA RESULT:       2.8      3.459      5.696
REMARK  Name = *****
REMARK                            x       y       z     vdW  Elec       q    Type
REMARK                         _______ _______ _______ _____ _____    ______ ____
ROOT
ATOM      1  C   LIG    1       24.652 -15.690   3.377  0.00  0.00    +0.105 C 
ATOM      2  N   LIG    1       25.644 -16.643   3.923  0.00  0.00    -0.304 NA
ATOM      3  C   LIG    1       24.822 -17.569   4.716  0.00  0.00    +0.093 C 
ATOM      4  C   LIG    1       24.416 -18.554   3.590  0.00  0.00    +0.045 C 
ATOM      5  C   LIG    1       25.783 -19.076   3.192  0.00  0.00    +0.045 C 
ATOM      6  C   LIG    1       26.328 -19.888   4.376  0.00  0.00    -0.000 A 
ATOM      7  C   LIG    1       25.468 -20.659   5.201  0.00  0.00    +0.132 A 
ATOM      8  O   LIG    1       24.300 -21.272   4.793  0.00  0.00    -0.456 OA
ATOM      9  C   LIG    1       23.178 -20.534   4.524  0.00  0.00    +0.132 A 
ATOM     10  C   LIG    1       21.932 -21.075   4.822  0.00  0.00    +0.048 A 
ATOM     11  C   LIG    1       20.724 -20.456   4.437  0.00  0.00    +0.023 A 
ATOM     12  C   LIG    1       20.781 -19.280   3.690  0.00  0.00    +0.042 A 
ATOM     13 CL   LIG    1       19.350 -18.515   3.117  0.00  0.00    -0.084 Cl
ATOM     14  C   LIG    1       21.994 -18.731   3.416  0.00  0.00    +0.027 A 
ATOM     15  C   LIG    1       25.808 -20.895   6.537  0.00  0.00    +0.046 A 
ATOM     16  C   LIG    1       27.004 -20.408   7.058  0.00  0.00    +0.004 A 
ATOM     17  C   LIG    1       27.926 -19.797   6.212  0.00  0.00    +0.001 A 
ATOM     18  C   LIG    1       27.610 -19.570   4.870  0.00  0.00    +0.007 A 
ATOM     19  C   LIG    1       23.209 -19.319   3.856  0.00  0.00    +0.001 A 
ATOM     20  C   LIG    1       26.327 -17.589   2.936  0.00  0.00    +0.093 C 
ENDROOT
TORSDOF 0
ENDMDL
