MODEL 1
REMARK VINA RESULT:      -6.8      0.000      0.000
REMARK  Name = *****
REMARK                            x       y       z     vdW  Elec       q    Type
REMARK                         _______ _______ _______ _____ _____    ______ ____
ROOT
ATOM      1  C   LIG    1       27.730 -21.379   7.466  0.00  0.00    +0.151 C 
ENDROOT
BRANCH   1   2
ATOM      2  N   LIG    1       28.953 -20.696   7.957  0.00  0.00    -0.348 NA
ATOM      3  C   LIG    1       30.014 -21.428   8.492  0.00  0.00    +0.135 C 
ATOM      4  C   LIG    1       31.152 -20.892   8.948  0.00  0.00    +0.180 C 
ATOM      5  C   LIG    1       31.288 -19.407   8.901  0.00  0.00    +0.223 C 
ATOM      6  O   LIG    1       32.329 -18.869   9.268  0.00  0.00    -0.284 OA
ATOM      7  C   LIG    1       30.124 -18.630   8.417  0.00  0.00    +0.072 C 
ATOM      8  C   LIG    1       29.047 -19.307   7.994  0.00  0.00    +0.089 C 
BRANCH   4   9
ATOM      9  O   LIG    1       32.191 -21.646   9.451  0.00  0.00    -0.502 OA
ATOM     10  H   LIG    1       32.891 -20.992   9.663  0.00  0.00    +0.292 HD
ENDBRANCH   4   9
ENDBRANCH   1   2
BRANCH   1  11
ATOM     11  CA  LIG    1       26.451 -20.576   7.792  0.00  0.00    +0.180 C 
BRANCH  11  12
ATOM     12  N   LIG    1       25.914 -20.796   9.182  0.00  0.00    -0.317 NA
ATOM     13  H1  LIG    1       25.695 -19.880   9.585  0.00  0.00    +0.119 HD
ATOM     14  H2  LIG    1       24.986 -21.221   9.063  0.00  0.00    +0.119 HD
ENDBRANCH  11  12
BRANCH  11  15
ATOM     15  C   LIG    1       25.357 -20.953   6.791  0.00  0.00    +0.324 C 
ATOM     16  O   LIG    1       24.189 -20.597   6.855  0.00  0.00    -0.249 OA
BRANCH  15  17
ATOM     17  OXT LIG    1       25.838 -21.763   5.813  0.00  0.00    -0.479 OA
ATOM     18  HXT LIG    1       26.798 -21.896   6.018  0.00  0.00    +0.295 HD
ENDBRANCH  15  17
ENDBRANCH  11  15
ENDBRANCH   1  11
TORSDOF 6
ENDMDL
MODEL 2
REMARK VINA RESULT:      -6.7      1.746      5.508
REMARK  Name = *****
REMARK                            x       y       z     vdW  Elec       q    Type
REMARK                         _______ _______ _______ _____ _____    ______ ____
ROOT
ATOM      1  C   LIG    1       30.434 -20.177   7.363  0.00  0.00    +0.151 C 
ENDROOT
BRANCH   1   2
ATOM      2  N   LIG    1       28.965 -20.275   7.175  0.00  0.00    -0.348 NA
ATOM      3  C   LIG    1       28.395 -20.127   5.911  0.00  0.00    +0.135 C 
ATOM      4  C   LIG    1       27.084 -20.208   5.654  0.00  0.00    +0.180 C 
ATOM      5  C   LIG    1       26.166 -20.454   6.805  0.00  0.00    +0.223 C 
ATOM      6  O   LIG    1       24.959 -20.580   6.617  0.00  0.00    -0.284 OA
ATOM      7  C   LIG    1       26.767 -20.520   8.156  0.00  0.00    +0.072 C 
ATOM      8  C   LIG    1       28.100 -20.418   8.257  0.00  0.00    +0.089 C 
BRANCH   4   9
ATOM      9  O   LIG    1       26.554 -20.079   4.388  0.00  0.00    -0.502 OA
ATOM     10  H   LIG    1       27.318 -20.210   3.786  0.00  0.00    +0.292 HD
ENDBRANCH   4   9
ENDBRANCH   1   2
BRANCH   1  11
ATOM     11  CA  LIG    1       30.831 -20.248   8.855  0.00  0.00    +0.180 C 
BRANCH  11  12
ATOM     12  N   LIG    1       31.981 -19.353   9.235  0.00  0.00    -0.317 NA
ATOM     13  H1  LIG    1       32.852 -19.837   8.995  0.00  0.00    +0.119 HD
ATOM     14  H2  LIG    1       31.965 -18.571   8.569  0.00  0.00    +0.119 HD
ENDBRANCH  11  12
BRANCH  11  15
ATOM     15  C   LIG    1       31.211 -21.689   9.202  0.00  0.00    +0.324 C 
ATOM     16  O   LIG    1       30.726 -22.346  10.113  0.00  0.00    -0.249 OA
BRANCH  15  17
ATOM     17  OXT LIG    1       32.182 -22.158   8.377  0.00  0.00    -0.479 OA
ATOM     18  HXT LIG    1       32.953 -21.546   8.490  0.00  0.00    +0.295 HD
ENDBRANCH  15  17
ENDBRANCH  11  15
ENDBRANCH   1  11
TORSDOF 6
ENDMDL
MODEL 3
REMARK VINA RESULT:      -6.7      1.897      5.612
REMARK  Name = *****
REMARK                            x       y       z     vdW  Elec       q    Type
REMARK                         _______ _______ _______ _____ _____    ______ ____
ROOT
ATOM      1  C   LIG    1       29.207 -20.418   6.473  0.00  0.00    +0.151 C 
ENDROOT
BRANCH   1   2
ATOM      2  N   LIG    1       27.754 -20.526   6.752  0.00  0.00    -0.348 NA
ATOM      3  C   LIG    1       27.294 -20.878   8.021  0.00  0.00    +0.135 C 
ATOM      4  C   LIG    1       26.003 -20.990   8.358  0.00  0.00    +0.180 C 
ATOM      5  C   LIG    1       24.986 -20.742   7.295  0.00  0.00    +0.223 C 
ATOM      6  O   LIG    1       23.788 -20.790   7.563  0.00  0.00    -0.284 OA
ATOM      7  C   LIG    1       25.480 -20.458   5.928  0.00  0.00    +0.072 C 
ATOM      8  C   LIG    1       26.806 -20.380   5.743  0.00  0.00    +0.089 C 
BRANCH   4   9
ATOM      9  O   LIG    1       25.582 -21.318   9.628  0.00  0.00    -0.502 OA
ATOM     10  H   LIG    1       26.015 -20.659  10.211  0.00  0.00    +0.292 HD
ENDBRANCH   4   9
ENDBRANCH   1   2
BRANCH   1  11
ATOM     11  CA  LIG    1       29.741 -18.991   6.730  0.00  0.00    +0.180 C 
BRANCH  11  12
ATOM     12  N   LIG    1       29.886 -18.148   5.491  0.00  0.00    -0.317 NA
ATOM     13  H1  LIG    1       29.079 -17.517   5.441  0.00  0.00    +0.119 HD
ATOM     14  H2  LIG    1       30.665 -17.504   5.676  0.00  0.00    +0.119 HD
ENDBRANCH  11  12
BRANCH  11  15
ATOM     15  C   LIG    1       31.109 -19.085   7.409  0.00  0.00    +0.324 C 
ATOM     16  O   LIG    1       31.770 -18.133   7.799  0.00  0.00    -0.249 OA
BRANCH  15  17
ATOM     17  OXT LIG    1       31.523 -20.374   7.513  0.00  0.00    -0.479 OA
ATOM     18  HXT LIG    1       32.434 -20.336   7.903  0.00  0.00    +0.295 HD
ENDBRANCH  15  17
ENDBRANCH  11  15
ENDBRANCH   1  11
TORSDOF 6
ENDMDL
MODEL 4
REMARK VINA RESULT:      -6.5      2.840      5.819
REMARK  Name = *****
REMARK                            x       y       z     vdW  Elec       q    Type
REMARK                         _______ _______ _______ _____ _____    ______ ____
ROOT
ATOM      1  C   LIG    1       31.607 -18.615   8.478  0.00  0.00    +0.151 C 
ENDROOT
BRANCH   1   2
ATOM      2  N   LIG    1       30.475 -19.090   7.644  0.00  0.00    -0.348 NA
ATOM      3  C   LIG    1       30.060 -18.368   6.524  0.00  0.00    +0.135 C 
ATOM      4  C   LIG    1       29.055 -18.730   5.717  0.00  0.00    +0.180 C 
ATOM      5  C   LIG    1       28.314 -19.981   6.051  0.00  0.00    +0.223 C 
ATOM      6  O   LIG    1       27.412 -20.379   5.318  0.00  0.00    -0.284 OA
ATOM      7  C   LIG    1       28.699 -20.694   7.290  0.00  0.00    +0.072 C 
ATOM      8  C   LIG    1       29.727 -20.209   8.001  0.00  0.00    +0.089 C 
BRANCH   4   9
ATOM      9  O   LIG    1       28.684 -18.005   4.605  0.00  0.00    -0.502 OA
ATOM     10  H   LIG    1       29.151 -18.439   3.860  0.00  0.00    +0.292 HD
ENDBRANCH   4   9
ENDBRANCH   1   2
BRANCH   1  11
ATOM     11  CA  LIG    1       31.372 -17.184   9.011  0.00  0.00    +0.180 C 
BRANCH  11  12
ATOM     12  N   LIG    1       32.603 -16.317   9.029  0.00  0.00    -0.317 NA
ATOM     13  H1  LIG    1       33.064 -16.403   8.118  0.00  0.00    +0.119 HD
ATOM     14  H2  LIG    1       32.265 -15.346   9.022  0.00  0.00    +0.119 HD
ENDBRANCH  11  12
BRANCH  11  15
ATOM     15  C   LIG    1       30.823 -17.268  10.437  0.00  0.00    +0.324 C 
ATOM     16  O   LIG    1       30.452 -16.314  11.107  0.00  0.00    -0.249 OA
BRANCH  15  17
ATOM     17  OXT LIG    1       30.814 -18.547  10.890  0.00  0.00    -0.479 OA
ATOM     18  HXT LIG    1       29.926 -18.915  10.647  0.00  0.00    +0.295 HD
ENDBRANCH  15  17
ENDBRANCH  11  15
ENDBRANCH   1  11
TORSDOF 6
ENDMDL
MODEL 5
REMARK VINA RESULT:      -6.5      1.869      5.874
REMARK  Name = *****
REMARK                            x       y       z     vdW  Elec       q    Type
REMARK                         _______ _______ _______ _____ _____    ______ ____
ROOT
ATOM      1  C   LIG    1       29.106 -20.357   6.448  0.00  0.00    +0.151 C 
ENDROOT
BRANCH   1   2
ATOM      2  N   LIG    1       27.675 -20.482   6.823  0.00  0.00    -0.348 NA
ATOM      3  C   LIG    1       26.678 -20.464   5.848  0.00  0.00    +0.135 C 
ATOM      4  C   LIG    1       25.368 -20.578   6.100  0.00  0.00    +0.180 C 
ATOM      5  C   LIG    1       24.945 -20.712   7.524  0.00  0.00    +0.223 C 
ATOM      6  O   LIG    1       23.759 -20.862   7.805  0.00  0.00    -0.284 OA
ATOM      7  C   LIG    1       26.000 -20.638   8.560  0.00  0.00    +0.072 C 
ATOM      8  C   LIG    1       27.272 -20.520   8.155  0.00  0.00    +0.089 C 
BRANCH   4   9
ATOM      9  O   LIG    1       24.408 -20.579   5.111  0.00  0.00    -0.502 OA
ATOM     10  H   LIG    1       23.557 -20.489   5.591  0.00  0.00    +0.292 HD
ENDBRANCH   4   9
ENDBRANCH   1   2
BRANCH   1  11
ATOM     11  CA  LIG    1       29.637 -18.923   6.665  0.00  0.00    +0.180 C 
BRANCH  11  12
ATOM     12  N   LIG    1       29.788 -18.117   5.402  0.00  0.00    -0.317 NA
ATOM     13  H1  LIG    1       30.201 -17.212   5.650  0.00  0.00    +0.119 HD
ATOM     14  H2  LIG    1       30.539 -18.569   4.865  0.00  0.00    +0.119 HD
ENDBRANCH  11  12
BRANCH  11  15
ATOM     15  C   LIG    1       31.002 -18.995   7.353  0.00  0.00    +0.324 C 
ATOM     16  O   LIG    1       31.626 -18.036   7.785  0.00  0.00    -0.249 OA
BRANCH  15  17
ATOM     17  OXT LIG    1       31.460 -20.272   7.413  0.00  0.00    -0.479 OA
ATOM     18  HXT LIG    1       30.660 -20.851   7.335  0.00  0.00    +0.295 HD
ENDBRANCH  15  17
ENDBRANCH  11  15
ENDBRANCH   1  11
TORSDOF 6
ENDMDL
MODEL 6
REMARK VINA RESULT:      -6.5      1.613      2.323
REMARK  Name = *****
REMARK                            x       y       z     vdW  Elec       q    Type
REMARK                         _______ _______ _______ _____ _____    ______ ____
ROOT
ATOM      1  C   LIG    1       27.489 -20.316   6.534  0.00  0.00    +0.151 C 
ENDROOT
BRANCH   1   2
ATOM      2  N   LIG    1       28.776 -20.318   7.272  0.00  0.00    -0.348 NA
ATOM      3  C   LIG    1       29.615 -19.203   7.249  0.00  0.00    +0.135 C 
ATOM      4  C   LIG    1       30.786 -19.121   7.892  0.00  0.00    +0.180 C 
ATOM      5  C   LIG    1       31.236 -20.312   8.670  0.00  0.00    +0.223 C 
ATOM      6  O   LIG    1       32.281 -20.271   9.312  0.00  0.00    -0.284 OA
ATOM      7  C   LIG    1       30.386 -21.523   8.617  0.00  0.00    +0.072 C 
ATOM      8  C   LIG    1       29.238 -21.457   7.927  0.00  0.00    +0.089 C 
BRANCH   4   9
ATOM      9  O   LIG    1       31.581 -17.995   7.867  0.00  0.00    -0.502 OA
ATOM     10  H   LIG    1       30.995 -17.285   7.530  0.00  0.00    +0.292 HD
ENDBRANCH   4   9
ENDBRANCH   1   2
BRANCH   1  11
ATOM     11  CA  LIG    1       26.537 -21.428   7.029  0.00  0.00    +0.180 C 
BRANCH  11  12
ATOM     12  N   LIG    1       25.720 -22.077   5.943  0.00  0.00    -0.317 NA
ATOM     13  H1  LIG    1       24.809 -22.329   6.340  0.00  0.00    +0.119 HD
ATOM     14  H2  LIG    1       25.480 -21.327   5.282  0.00  0.00    +0.119 HD
ENDBRANCH  11  12
BRANCH  11  15
ATOM     15  C   LIG    1       25.577 -20.839   8.064  0.00  0.00    +0.324 C 
ATOM     16  O   LIG    1       24.369 -20.719   7.917  0.00  0.00    -0.249 OA
BRANCH  15  17
ATOM     17  OXT LIG    1       26.237 -20.436   9.180  0.00  0.00    -0.479 OA
ATOM     18  HXT LIG    1       26.789 -21.209   9.463  0.00  0.00    +0.295 HD
ENDBRANCH  15  17
ENDBRANCH  11  15
ENDBRANCH   1  11
TORSDOF 6
ENDMDL
MODEL 7
REMARK VINA RESULT:      -6.4      1.739      2.380
REMARK  Name = *****
REMARK                            x       y       z     vdW  Elec       q    Type
REMARK                         _______ _______ _______ _____ _____    ______ ____
ROOT
ATOM      1  C   LIG    1       27.026 -21.469   7.216  0.00  0.00    +0.151 C 
ENDROOT
BRANCH   1   2
ATOM      2  N   LIG    1       28.347 -20.793   7.224  0.00  0.00    -0.348 NA
ATOM      3  C   LIG    1       28.625 -19.760   6.328  0.00  0.00    +0.135 C 
ATOM      4  C   LIG    1       29.786 -19.094   6.274  0.00  0.00    +0.180 C 
ATOM      5  C   LIG    1       30.863 -19.500   7.223  0.00  0.00    +0.223 C 
ATOM      6  O   LIG    1       31.930 -18.893   7.242  0.00  0.00    -0.284 OA
ATOM      7  C   LIG    1       30.594 -20.656   8.108  0.00  0.00    +0.072 C 
ATOM      8  C   LIG    1       29.382 -21.226   8.048  0.00  0.00    +0.089 C 
BRANCH   4   9
ATOM      9  O   LIG    1       30.022 -18.063   5.391  0.00  0.00    -0.502 OA
ATOM     10  H   LIG    1       30.156 -17.275   5.961  0.00  0.00    +0.292 HD
ENDBRANCH   4   9
ENDBRANCH   1   2
BRANCH   1  11
ATOM     11  CA  LIG    1       25.918 -20.580   7.825  0.00  0.00    +0.180 C 
BRANCH  11  12
ATOM     12  N   LIG    1       25.842 -20.622   9.328  0.00  0.00    -0.317 NA
ATOM     13  H1  LIG    1       25.114 -19.965   9.627  0.00  0.00    +0.119 HD
ATOM     14  H2  LIG    1       25.435 -21.535   9.566  0.00  0.00    +0.119 HD
ENDBRANCH  11  12
BRANCH  11  15
ATOM     15  C   LIG    1       24.563 -21.017   7.264  0.00  0.00    +0.324 C 
ATOM     16  O   LIG    1       23.697 -21.607   7.893  0.00  0.00    -0.249 OA
BRANCH  15  17
ATOM     17  OXT LIG    1       24.439 -20.685   5.953  0.00  0.00    -0.479 OA
ATOM     18  HXT LIG    1       23.584 -21.086   5.652  0.00  0.00    +0.295 HD
ENDBRANCH  15  17
ENDBRANCH  11  15
ENDBRANCH   1  11
TORSDOF 6
ENDMDL
MODEL 8
REMARK VINA RESULT:      -6.2      1.917      5.834
REMARK  Name = *****
REMARK                            x       y       z     vdW  Elec       q    Type
REMARK                         _______ _______ _______ _____ _____    ______ ____
ROOT
ATOM      1  C   LIG    1       28.457 -19.891   8.017  0.00  0.00    +0.151 C 
ENDROOT
BRANCH   1   2
ATOM      2  N   LIG    1       27.174 -20.231   7.352  0.00  0.00    -0.348 NA
ATOM      3  C   LIG    1       27.040 -20.130   5.967  0.00  0.00    +0.135 C 
ATOM      4  C   LIG    1       25.924 -20.423   5.289  0.00  0.00    +0.180 C 
ATOM      5  C   LIG    1       24.734 -20.869   6.071  0.00  0.00    +0.223 C 
ATOM      6  O   LIG    1       23.700 -21.191   5.493  0.00  0.00    -0.284 OA
ATOM      7  C   LIG    1       24.854 -20.887   7.547  0.00  0.00    +0.072 C 
ATOM      8  C   LIG    1       26.039 -20.564   8.085  0.00  0.00    +0.089 C 
BRANCH   4   9
ATOM      9  O   LIG    1       25.830 -20.334   3.917  0.00  0.00    -0.502 OA
ATOM     10  H   LIG    1       26.301 -21.127   3.584  0.00  0.00    +0.292 HD
ENDBRANCH   4   9
ENDBRANCH   1   2
BRANCH   1  11
ATOM     11  CA  LIG    1       29.671 -20.488   7.271  0.00  0.00    +0.180 C 
BRANCH  11  12
ATOM     12  N   LIG    1       30.509 -21.427   8.096  0.00  0.00    -0.317 NA
ATOM     13  H1  LIG    1       31.133 -20.863   8.683  0.00  0.00    +0.119 HD
ATOM     14  H2  LIG    1       29.871 -21.847   8.783  0.00  0.00    +0.119 HD
ENDBRANCH  11  12
BRANCH  11  15
ATOM     15  C   LIG    1       30.568 -19.346   6.786  0.00  0.00    +0.324 C 
ATOM     16  O   LIG    1       30.193 -18.386   6.128  0.00  0.00    -0.249 OA
BRANCH  15  17
ATOM     17  OXT LIG    1       31.859 -19.537   7.160  0.00  0.00    -0.479 OA
ATOM     18  HXT LIG    1       32.405 -19.352   6.354  0.00  0.00    +0.295 HD
ENDBRANCH  15  17
ENDBRANCH  11  15
ENDBRANCH   1  11
TORSDOF 6
ENDMDL
MODEL 9
REMARK VINA RESULT:      -6.2      5.942      8.181
REMARK  Name = *****
REMARK                            x       y       z     vdW  Elec       q    Type
REMARK                         _______ _______ _______ _____ _____    ______ ____
ROOT
ATOM      1  C   LIG    1       25.393 -27.188   5.670  0.00  0.00    +0.151 C 
ENDROOT
BRANCH   1   2
ATOM      2  N   LIG    1       25.089 -25.822   6.166  0.00  0.00    -0.348 NA
ATOM      3  C   LIG    1       23.778 -25.346   6.189  0.00  0.00    +0.135 C 
ATOM      4  C   LIG    1       23.418 -24.133   6.626  0.00  0.00    +0.180 C 
ATOM      5  C   LIG    1       24.497 -23.220   7.103  0.00  0.00    +0.223 C 
ATOM      6  O   LIG    1       24.216 -22.113   7.554  0.00  0.00    -0.284 OA
ATOM      7  C   LIG    1       25.895 -23.696   6.992  0.00  0.00    +0.072 C 
ATOM      8  C   LIG    1       26.101 -24.938   6.531  0.00  0.00    +0.089 C 
BRANCH   4   9
ATOM      9  O   LIG    1       22.110 -23.700   6.655  0.00  0.00    -0.502 OA
ATOM     10  H   LIG    1       21.618 -24.364   6.126  0.00  0.00    +0.292 HD
ENDBRANCH   4   9
ENDBRANCH   1   2
BRANCH   1  11
ATOM     11  CA  LIG    1       24.844 -28.281   6.615  0.00  0.00    +0.180 C 
BRANCH  11  12
ATOM     12  N   LIG    1       25.783 -28.675   7.723  0.00  0.00    -0.317 NA
ATOM     13  H1  LIG    1       26.729 -28.384   7.455  0.00  0.00    +0.119 HD
ATOM     14  H2  LIG    1       25.569 -28.052   8.512  0.00  0.00    +0.119 HD
ENDBRANCH  11  12
BRANCH  11  15
ATOM     15  C   LIG    1       24.520 -29.531   5.794  0.00  0.00    +0.324 C 
ATOM     16  O   LIG    1       25.331 -30.380   5.452  0.00  0.00    -0.249 OA
BRANCH  15  17
ATOM     17  OXT LIG    1       23.203 -29.581   5.465  0.00  0.00    -0.479 OA
ATOM     18  HXT LIG    1       23.134 -30.230   4.720  0.00  0.00    +0.295 HD
ENDBRANCH  15  17
ENDBRANCH  11  15
ENDBRANCH   1  11
TORSDOF 6
ENDMDL
