MODEL 1
REMARK VINA RESULT:      -5.2      0.000      0.000
REMARK  Name = *****
REMARK                            x       y       z     vdW  Elec       q    Type
REMARK                         _______ _______ _______ _____ _____    ______ ____
ROOT
ATOM      1  C   LIG    1       25.159 -20.119   4.818  0.00  0.00    +0.042 A 
ATOM      2  N   LIG    1       24.456 -20.809   5.747  0.00  0.00    -0.260 NA
ATOM      3  C   LIG    1       25.119 -21.249   6.838  0.00  0.00    +0.112 A 
ATOM      4  C   LIG    1       26.467 -21.043   7.056  0.00  0.00    +0.030 A 
ATOM      5  C   LIG    1       27.180 -20.330   6.093  0.00  0.00    +0.006 A 
ATOM      6  C   LIG    1       26.515 -19.852   4.961  0.00  0.00    +0.033 A 
ENDROOT
BRANCH   1   8
ATOM      7  C   LIG    1       23.102 -18.946   3.987  0.00  0.00    +0.010 C 
ATOM      8  C   LIG    1       24.404 -19.633   3.609  0.00  0.00    +0.052 C 
ENDBRANCH   1   8
BRANCH   5   9
ATOM      9  C   LIG    1       28.635 -20.081   6.249  0.00  0.00    +0.077 C 
ATOM     10  S   LIG    1       29.423 -18.670   5.828  0.00  0.00    -0.035 S 
BRANCH   9  11
ATOM     11  N   LIG    1       29.367 -21.106   6.793  0.00  0.00    -0.352 N 
ATOM     12  H   LIG    1       29.137 -22.058   6.526  0.00  0.00    +0.143 HD
ATOM     13  H   LIG    1       30.216 -20.965   7.325  0.00  0.00    +0.143 HD
ENDBRANCH   9  11
ENDBRANCH   5   9
TORSDOF 3
ENDMDL
MODEL 2
REMARK VINA RESULT:      -5.2      1.290      1.300
REMARK  Name = *****
REMARK                            x       y       z     vdW  Elec       q    Type
REMARK                         _______ _______ _______ _____ _____    ______ ____
ROOT
ATOM      1  C   LIG    1       24.393 -20.339   5.041  0.00  0.00    +0.042 A 
ATOM      2  N   LIG    1       23.855 -21.120   6.007  0.00  0.00    -0.260 NA
ATOM      3  C   LIG    1       24.672 -21.556   6.990  0.00  0.00    +0.112 A 
ATOM      4  C   LIG    1       26.020 -21.258   7.062  0.00  0.00    +0.030 A 
ATOM      5  C   LIG    1       26.561 -20.452   6.061  0.00  0.00    +0.006 A 
ATOM      6  C   LIG    1       25.735 -19.977   5.040  0.00  0.00    +0.033 A 
ENDROOT
BRANCH   1   8
ATOM      7  C   LIG    1       22.348 -18.990   4.500  0.00  0.00    +0.010 C 
ATOM      8  C   LIG    1       23.469 -19.859   3.953  0.00  0.00    +0.052 C 
ENDBRANCH   1   8
BRANCH   5   9
ATOM      9  C   LIG    1       28.004 -20.101   6.062  0.00  0.00    +0.077 C 
ATOM     10  S   LIG    1       29.160 -20.774   7.062  0.00  0.00    -0.035 S 
BRANCH   9  11
ATOM     11  N   LIG    1       28.393 -19.148   5.154  0.00  0.00    -0.352 N 
ATOM     12  H   LIG    1       27.891 -18.266   5.134  0.00  0.00    +0.143 HD
ATOM     13  H   LIG    1       29.242 -19.212   4.608  0.00  0.00    +0.143 HD
ENDBRANCH   9  11
ENDBRANCH   5   9
TORSDOF 3
ENDMDL
MODEL 3
REMARK VINA RESULT:      -4.5      1.790      2.715
REMARK  Name = *****
REMARK                            x       y       z     vdW  Elec       q    Type
REMARK                         _______ _______ _______ _____ _____    ______ ____
ROOT
ATOM      1  C   LIG    1       24.157 -20.541   5.008  0.00  0.00    +0.042 A 
ATOM      2  N   LIG    1       23.908 -19.777   3.918  0.00  0.00    -0.260 NA
ATOM      3  C   LIG    1       24.928 -19.050   3.414  0.00  0.00    +0.112 A 
ATOM      4  C   LIG    1       26.202 -19.035   3.949  0.00  0.00    +0.030 A 
ATOM      5  C   LIG    1       26.446 -19.827   5.071  0.00  0.00    +0.006 A 
ATOM      6  C   LIG    1       25.411 -20.599   5.603  0.00  0.00    +0.033 A 
ENDROOT
BRANCH   1   8
ATOM      7  C   LIG    1       23.104 -21.526   7.062  0.00  0.00    +0.010 C 
ATOM      8  C   LIG    1       23.009 -21.348   5.555  0.00  0.00    +0.052 C 
ENDBRANCH   1   8
BRANCH   5   9
ATOM      9  C   LIG    1       27.785 -19.852   5.710  0.00  0.00    +0.077 C 
ATOM     10  S   LIG    1       28.225 -20.832   6.989  0.00  0.00    -0.035 S 
BRANCH   9  11
ATOM     11  N   LIG    1       28.720 -18.997   5.185  0.00  0.00    -0.352 N 
ATOM     12  H   LIG    1       29.316 -18.480   5.824  0.00  0.00    +0.143 HD
ATOM     13  H   LIG    1       28.955 -18.962   4.202  0.00  0.00    +0.143 HD
ENDBRANCH   9  11
ENDBRANCH   5   9
TORSDOF 3
ENDMDL
MODEL 4
REMARK VINA RESULT:      -4.3      2.474      4.435
REMARK  Name = *****
REMARK                            x       y       z     vdW  Elec       q    Type
REMARK                         _______ _______ _______ _____ _____    ______ ____
ROOT
ATOM      1  C   LIG    1       27.164 -20.263   5.828  0.00  0.00    +0.042 A 
ATOM      2  N   LIG    1       26.942 -21.062   6.899  0.00  0.00    -0.260 NA
ATOM      3  C   LIG    1       25.701 -21.567   7.060  0.00  0.00    +0.112 A 
ATOM      4  C   LIG    1       24.647 -21.311   6.204  0.00  0.00    +0.030 A 
ATOM      5  C   LIG    1       24.888 -20.488   5.104  0.00  0.00    +0.006 A 
ATOM      6  C   LIG    1       26.167 -19.963   4.907  0.00  0.00    +0.033 A 
ENDROOT
BRANCH   1   8
ATOM      7  C   LIG    1       29.417 -19.954   6.889  0.00  0.00    +0.010 C 
ATOM      8  C   LIG    1       28.554 -19.710   5.661  0.00  0.00    +0.052 C 
ENDBRANCH   1   8
BRANCH   5   9
ATOM      9  C   LIG    1       23.802 -20.155   4.148  0.00  0.00    +0.077 C 
ATOM     10  S   LIG    1       22.607 -19.018   4.403  0.00  0.00    -0.035 S 
BRANCH   9  11
ATOM     11  N   LIG    1       23.809 -20.847   2.963  0.00  0.00    -0.352 N 
ATOM     12  H   LIG    1       24.704 -21.078   2.544  0.00  0.00    +0.143 HD
ATOM     13  H   LIG    1       22.985 -21.272   2.560  0.00  0.00    +0.143 HD
ENDBRANCH   9  11
ENDBRANCH   5   9
TORSDOF 3
ENDMDL
MODEL 5
REMARK VINA RESULT:      -4.1      5.726      6.731
REMARK  Name = *****
REMARK                            x       y       z     vdW  Elec       q    Type
REMARK                         _______ _______ _______ _____ _____    ______ ____
ROOT
ATOM      1  C   LIG    1       23.930 -14.422   4.026  0.00  0.00    +0.042 A 
ATOM      2  N   LIG    1       23.504 -13.542   3.090  0.00  0.00    -0.260 NA
ATOM      3  C   LIG    1       24.440 -12.868   2.389  0.00  0.00    +0.112 A 
ATOM      4  C   LIG    1       25.801 -13.018   2.576  0.00  0.00    +0.030 A 
ATOM      5  C   LIG    1       26.227 -13.929   3.543  0.00  0.00    +0.006 A 
ATOM      6  C   LIG    1       25.278 -14.649   4.273  0.00  0.00    +0.033 A 
ENDROOT
BRANCH   1   8
ATOM      7  C   LIG    1       22.777 -16.624   4.374  0.00  0.00    +0.010 C 
ATOM      8  C   LIG    1       22.873 -15.168   4.797  0.00  0.00    +0.052 C 
ENDBRANCH   1   8
BRANCH   5   9
ATOM      9  C   LIG    1       27.672 -14.135   3.812  0.00  0.00    +0.077 C 
ATOM     10  S   LIG    1       28.836 -12.938   3.802  0.00  0.00    -0.035 S 
BRANCH   9  11
ATOM     11  N   LIG    1       28.054 -15.422   4.097  0.00  0.00    -0.352 N 
ATOM     12  H   LIG    1       28.056 -16.103   3.345  0.00  0.00    +0.143 HD
ATOM     13  H   LIG    1       28.478 -15.697   4.973  0.00  0.00    +0.143 HD
ENDBRANCH   9  11
ENDBRANCH   5   9
TORSDOF 3
ENDMDL
MODEL 6
REMARK VINA RESULT:      -4.0      2.733      4.790
REMARK  Name = *****
REMARK                            x       y       z     vdW  Elec       q    Type
REMARK                         _______ _______ _______ _____ _____    ______ ____
ROOT
ATOM      1  C   LIG    1       27.078 -20.440   6.122  0.00  0.00    +0.042 A 
ATOM      2  N   LIG    1       27.366 -19.687   5.034  0.00  0.00    -0.260 NA
ATOM      3  C   LIG    1       26.345 -19.342   4.221  0.00  0.00    +0.112 A 
ATOM      4  C   LIG    1       25.032 -19.718   4.429  0.00  0.00    +0.030 A 
ATOM      5  C   LIG    1       24.749 -20.493   5.554  0.00  0.00    +0.006 A 
ATOM      6  C   LIG    1       25.785 -20.852   6.419  0.00  0.00    +0.033 A 
ENDROOT
BRANCH   1   8
ATOM      7  C   LIG    1       29.474 -19.996   6.724  0.00  0.00    +0.010 C 
ATOM      8  C   LIG    1       28.228 -20.814   7.020  0.00  0.00    +0.052 C 
ENDBRANCH   1   8
BRANCH   5   9
ATOM      9  C   LIG    1       23.364 -20.947   5.838  0.00  0.00    +0.077 C 
ATOM     10  S   LIG    1       22.070 -20.808   4.792  0.00  0.00    -0.035 S 
BRANCH   9  11
ATOM     11  N   LIG    1       23.161 -21.532   7.062  0.00  0.00    -0.352 N 
ATOM     12  H   LIG    1       23.960 -21.662   7.674  0.00  0.00    +0.143 HD
ATOM     13  H   LIG    1       22.244 -21.705   7.453  0.00  0.00    +0.143 HD
ENDBRANCH   9  11
ENDBRANCH   5   9
TORSDOF 3
ENDMDL
MODEL 7
REMARK VINA RESULT:      -3.8      5.941      7.119
REMARK  Name = *****
REMARK                            x       y       z     vdW  Elec       q    Type
REMARK                         _______ _______ _______ _____ _____    ______ ____
ROOT
ATOM      1  C   LIG    1       26.280 -16.065   3.508  0.00  0.00    +0.042 A 
ATOM      2  N   LIG    1       27.534 -15.669   3.830  0.00  0.00    -0.260 NA
ATOM      3  C   LIG    1       27.741 -14.352   4.045  0.00  0.00    +0.112 A 
ATOM      4  C   LIG    1       26.753 -13.390   3.948  0.00  0.00    +0.030 A 
ATOM      5  C   LIG    1       25.466 -13.812   3.616  0.00  0.00    +0.006 A 
ATOM      6  C   LIG    1       25.222 -15.170   3.402  0.00  0.00    +0.033 A 
ENDROOT
BRANCH   1   8
ATOM      7  C   LIG    1       24.662 -17.978   3.657  0.00  0.00    +0.010 C 
ATOM      8  C   LIG    1       26.065 -17.537   3.274  0.00  0.00    +0.052 C 
ENDBRANCH   1   8
BRANCH   5   9
ATOM      9  C   LIG    1       24.356 -12.836   3.479  0.00  0.00    +0.077 C 
ATOM     10  S   LIG    1       23.846 -11.781   4.668  0.00  0.00    -0.035 S 
BRANCH   9  11
ATOM     11  N   LIG    1       23.719 -12.815   2.264  0.00  0.00    -0.352 N 
ATOM     12  H   LIG    1       23.727 -13.658   1.699  0.00  0.00    +0.143 HD
ATOM     13  H   LIG    1       23.115 -12.061   1.963  0.00  0.00    +0.143 HD
ENDBRANCH   9  11
ENDBRANCH   5   9
TORSDOF 3
ENDMDL
MODEL 8
REMARK VINA RESULT:      -3.7      5.956      6.638
REMARK  Name = *****
REMARK                            x       y       z     vdW  Elec       q    Type
REMARK                         _______ _______ _______ _____ _____    ______ ____
ROOT
ATOM      1  C   LIG    1       25.828 -13.466   2.696  0.00  0.00    +0.042 A 
ATOM      2  N   LIG    1       26.854 -12.696   3.128  0.00  0.00    -0.260 NA
ATOM      3  C   LIG    1       27.890 -13.312   3.736  0.00  0.00    +0.112 A 
ATOM      4  C   LIG    1       27.959 -14.676   3.950  0.00  0.00    +0.030 A 
ATOM      5  C   LIG    1       26.896 -15.458   3.500  0.00  0.00    +0.006 A 
ATOM      6  C   LIG    1       25.819 -14.847   2.855  0.00  0.00    +0.033 A 
ENDROOT
BRANCH   1   8
ATOM      7  C   LIG    1       23.920 -11.860   2.973  0.00  0.00    +0.010 C 
ATOM      8  C   LIG    1       24.682 -12.764   2.017  0.00  0.00    +0.052 C 
ENDBRANCH   1   8
BRANCH   5   9
ATOM      9  C   LIG    1       26.891 -16.928   3.705  0.00  0.00    +0.077 C 
ATOM     10  S   LIG    1       25.619 -17.949   3.345  0.00  0.00    -0.035 S 
BRANCH   9  11
ATOM     11  N   LIG    1       28.039 -17.468   4.229  0.00  0.00    -0.352 N 
ATOM     12  H   LIG    1       28.815 -17.655   3.602  0.00  0.00    +0.143 HD
ATOM     13  H   LIG    1       28.215 -17.551   5.221  0.00  0.00    +0.143 HD
ENDBRANCH   9  11
ENDBRANCH   5   9
TORSDOF 3
ENDMDL
MODEL 9
REMARK VINA RESULT:      -3.2      5.371      6.482
REMARK  Name = *****
REMARK                            x       y       z     vdW  Elec       q    Type
REMARK                         _______ _______ _______ _____ _____    ______ ____
ROOT
ATOM      1  C   LIG    1       26.078 -14.025   3.345  0.00  0.00    +0.042 A 
ATOM      2  N   LIG    1       25.004 -13.345   3.813  0.00  0.00    -0.260 NA
ATOM      3  C   LIG    1       23.933 -14.060   4.215  0.00  0.00    +0.112 A 
ATOM      4  C   LIG    1       23.866 -15.440   4.171  0.00  0.00    +0.030 A 
ATOM      5  C   LIG    1       24.978 -16.129   3.688  0.00  0.00    +0.006 A 
ATOM      6  C   LIG    1       26.105 -15.413   3.278  0.00  0.00    +0.033 A 
ENDROOT
BRANCH   1   8
ATOM      7  C   LIG    1       28.420 -13.306   3.888  0.00  0.00    +0.010 C 
ATOM      8  C   LIG    1       27.265 -13.212   2.903  0.00  0.00    +0.052 C 
ENDBRANCH   1   8
BRANCH   5   9
ATOM      9  C   LIG    1       24.976 -17.611   3.597  0.00  0.00    +0.077 C 
ATOM     10  S   LIG    1       23.641 -18.589   3.817  0.00  0.00    -0.035 S 
BRANCH   9  11
ATOM     11  N   LIG    1       26.180 -18.198   3.298  0.00  0.00    -0.352 N 
ATOM     12  H   LIG    1       26.874 -18.277   4.033  0.00  0.00    +0.143 HD
ATOM     13  H   LIG    1       26.361 -18.691   2.434  0.00  0.00    +0.143 HD
ENDBRANCH   9  11
ENDBRANCH   5   9
TORSDOF 3
ENDMDL
