MODEL 1
REMARK VINA RESULT:      -8.6      0.000      0.000
REMARK  Name = *****
REMARK                            x       y       z     vdW  Elec       q    Type
REMARK                         _______ _______ _______ _____ _____    ______ ____
ROOT
ATOM      1  N   LIG    1       25.181 -22.595   6.725  0.00  0.00    -0.286 N 
ATOM      2  C   LIG    1       25.706 -23.899   7.058  0.00  0.00    +0.234 C 
ATOM      3  O   LIG    1       26.580 -24.001   7.932  0.00  0.00    -0.274 OA
ENDROOT
BRANCH   1   4
ATOM      4  C   LIG    1       23.998 -22.347   5.879  0.00  0.00    +0.139 C 
ATOM      5  C   LIG    1       22.570 -22.614   6.436  0.00  0.00    +0.036 C 
BRANCH   4   6
ATOM      6  C   LIG    1       24.165 -21.269   4.848  0.00  0.00    +0.128 A 
ATOM      7  N   LIG    1       24.101 -21.464   3.484  0.00  0.00    -0.346 N 
ATOM      8  H   LIG    1       23.982 -22.343   2.996  0.00  0.00    +0.167 HD
ATOM      9  C   LIG    1       24.215 -20.236   2.890  0.00  0.00    +0.112 A 
ATOM     10  C   LIG    1       24.352 -19.339   3.925  0.00  0.00    +0.089 A 
ATOM     11  N   LIG    1       24.338 -19.994   5.120  0.00  0.00    -0.231 NA
BRANCH  10  12
ATOM     12  C   LIG    1       24.521 -17.908   3.798  0.00  0.00    +0.002 A 
ATOM     13  C   LIG    1       25.734 -17.391   3.331  0.00  0.00    +0.010 A 
ATOM     14  C   LIG    1       25.949 -16.017   3.286  0.00  0.00    +0.001 A 
ATOM     15  C   LIG    1       24.944 -15.143   3.692  0.00  0.00    +0.000 A 
ATOM     16  C   LIG    1       23.714 -15.643   4.120  0.00  0.00    +0.001 A 
ATOM     17  C   LIG    1       23.496 -17.024   4.165  0.00  0.00    +0.010 A 
ENDBRANCH  10  12
ENDBRANCH   4   6
ENDBRANCH   1   4
BRANCH   1  18
ATOM     18  C   LIG    1       25.680 -21.397   7.533  0.00  0.00    +0.143 C 
BRANCH  18  22
ATOM     19  C   LIG    1       30.000 -20.186   7.283  0.00  0.00    +0.134 A 
ATOM     20  C   LIG    1       29.717 -21.086   8.285  0.00  0.00    +0.101 A 
ATOM     21  C   LIG    1       28.354 -21.490   8.326  0.00  0.00    +0.024 A 
ATOM     22  C   LIG    1       27.225 -20.962   7.561  0.00  0.00    -0.029 A 
ATOM     23  C   LIG    1       27.621 -20.090   6.543  0.00  0.00    +0.009 A 
ATOM     24  C   LIG    1       28.985 -19.783   6.385  0.00  0.00    +0.047 A 
BRANCH  19  26
ATOM     25  C   LIG    1       31.606 -18.648   7.802  0.00  0.00    +0.277 C 
ATOM     26  O   LIG    1       31.302 -19.838   7.096  0.00  0.00    -0.494 OA
ENDBRANCH  19  26
BRANCH  20  27
ATOM     27  C   LIG    1       30.831 -21.771   9.047  0.00  0.00    +0.340 C 
ATOM     28  O   LIG    1       30.809 -22.029  10.313  0.00  0.00    -0.245 OA
BRANCH  27  29
ATOM     29  O   LIG    1       31.919 -22.141   8.367  0.00  0.00    -0.477 OA
ATOM     30  H   LIG    1       32.265 -22.945   8.853  0.00  0.00    +0.295 HD
ENDBRANCH  27  29
ENDBRANCH  20  27
ENDBRANCH  18  22
ENDBRANCH   1  18
BRANCH   2  31
ATOM     31  C   LIG    1       25.149 -25.258   6.372  0.00  0.00    +0.142 C 
BRANCH  31  32
ATOM     32  N   LIG    1       25.025 -25.093   4.957  0.00  0.00    -0.320 NA
ATOM     33  H   LIG    1       25.919 -24.725   4.616  0.00  0.00    +0.119 HD
ATOM     34  H   LIG    1       24.885 -26.066   4.747  0.00  0.00    +0.119 HD
ENDBRANCH  31  32
BRANCH  31  35
ATOM     35  C   LIG    1       25.967 -26.578   6.278  0.00  0.00    +0.063 C 
BRANCH  35  36
ATOM     36  C   LIG    1       25.369 -27.883   6.738  0.00  0.00    -0.040 A 
ATOM     37  C   LIG    1       24.488 -28.649   5.895  0.00  0.00    -0.046 A 
ATOM     38  C   LIG    1       24.004 -28.455   4.466  0.00  0.00    +0.044 C 
ATOM     39  C   LIG    1       24.047 -29.896   6.349  0.00  0.00    +0.016 A 
ATOM     40  C   LIG    1       24.272 -30.377   7.619  0.00  0.00    +0.037 A 
ATOM     41  C   LIG    1       24.976 -29.548   8.492  0.00  0.00    +0.016 A 
ATOM     42  C   LIG    1       25.629 -28.366   8.060  0.00  0.00    -0.046 A 
ATOM     43  C   LIG    1       26.633 -27.872   9.101  0.00  0.00    +0.044 C 
BRANCH  40  44
ATOM     44  C   LIG    1       23.880 -31.796   7.883  0.00  0.00    +0.241 C 
ATOM     45  O   LIG    1       22.812 -32.090   8.469  0.00  0.00    -0.270 OA
ATOM     46  N   LIG    1       24.726 -32.811   7.498  0.00  0.00    -0.325 N 
ATOM     47  H   LIG    1       24.497 -33.767   7.722  0.00  0.00    +0.145 HD
ATOM     48  H   LIG    1       25.547 -32.704   6.917  0.00  0.00    +0.145 HD
ENDBRANCH  40  44
ENDBRANCH  35  36
ENDBRANCH  31  35
ENDBRANCH   2  31
TORSDOF 13
ENDMDL
MODEL 2
REMARK VINA RESULT:      -8.6      0.289      1.416
REMARK  Name = *****
REMARK                            x       y       z     vdW  Elec       q    Type
REMARK                         _______ _______ _______ _____ _____    ______ ____
ROOT
ATOM      1  N   LIG    1       25.194 -22.616   6.726  0.00  0.00    -0.286 N 
ATOM      2  C   LIG    1       25.725 -23.915   7.070  0.00  0.00    +0.234 C 
ATOM      3  O   LIG    1       26.598 -24.007   7.945  0.00  0.00    -0.274 OA
ENDROOT
BRANCH   1   4
ATOM      4  C   LIG    1       24.012 -22.380   5.877  0.00  0.00    +0.139 C 
ATOM      5  C   LIG    1       22.585 -22.661   6.430  0.00  0.00    +0.036 C 
BRANCH   4   6
ATOM      6  C   LIG    1       24.169 -21.299   4.847  0.00  0.00    +0.128 A 
ATOM      7  N   LIG    1       24.080 -21.488   3.483  0.00  0.00    -0.346 N 
ATOM      8  H   LIG    1       23.944 -22.365   2.995  0.00  0.00    +0.167 HD
ATOM      9  C   LIG    1       24.194 -20.259   2.892  0.00  0.00    +0.112 A 
ATOM     10  C   LIG    1       24.358 -19.368   3.927  0.00  0.00    +0.089 A 
ATOM     11  N   LIG    1       24.360 -20.028   5.120  0.00  0.00    -0.231 NA
BRANCH  10  12
ATOM     12  C   LIG    1       24.538 -17.938   3.803  0.00  0.00    +0.002 A 
ATOM     13  C   LIG    1       25.752 -17.430   3.326  0.00  0.00    +0.010 A 
ATOM     14  C   LIG    1       25.978 -16.058   3.282  0.00  0.00    +0.001 A 
ATOM     15  C   LIG    1       24.984 -15.177   3.700  0.00  0.00    +0.000 A 
ATOM     16  C   LIG    1       23.754 -15.667   4.137  0.00  0.00    +0.001 A 
ATOM     17  C   LIG    1       23.524 -17.046   4.181  0.00  0.00    +0.010 A 
ENDBRANCH  10  12
ENDBRANCH   4   6
ENDBRANCH   1   4
BRANCH   1  18
ATOM     18  C   LIG    1       25.688 -21.410   7.525  0.00  0.00    +0.143 C 
BRANCH  18  22
ATOM     19  C   LIG    1       30.007 -20.192   7.284  0.00  0.00    +0.134 A 
ATOM     20  C   LIG    1       29.723 -21.094   8.284  0.00  0.00    +0.101 A 
ATOM     21  C   LIG    1       28.361 -21.501   8.321  0.00  0.00    +0.024 A 
ATOM     22  C   LIG    1       27.232 -20.973   7.556  0.00  0.00    -0.029 A 
ATOM     23  C   LIG    1       27.629 -20.097   6.541  0.00  0.00    +0.009 A 
ATOM     24  C   LIG    1       28.993 -19.788   6.386  0.00  0.00    +0.047 A 
BRANCH  19  26
ATOM     25  C   LIG    1       31.607 -18.646   7.801  0.00  0.00    +0.277 C 
ATOM     26  O   LIG    1       31.309 -19.842   7.101  0.00  0.00    -0.494 OA
ENDBRANCH  19  26
BRANCH  20  27
ATOM     27  C   LIG    1       30.837 -21.780   9.046  0.00  0.00    +0.340 C 
ATOM     28  O   LIG    1       30.813 -22.041  10.311  0.00  0.00    -0.245 OA
BRANCH  27  29
ATOM     29  O   LIG    1       31.927 -22.146   8.367  0.00  0.00    -0.477 OA
ATOM     30  H   LIG    1       32.290 -22.933   8.869  0.00  0.00    +0.295 HD
ENDBRANCH  27  29
ENDBRANCH  20  27
ENDBRANCH  18  22
ENDBRANCH   1  18
BRANCH   2  31
ATOM     31  C   LIG    1       25.174 -25.282   6.394  0.00  0.00    +0.142 C 
BRANCH  31  32
ATOM     32  N   LIG    1       25.048 -25.128   4.978  0.00  0.00    -0.320 NA
ATOM     33  H   LIG    1       25.997 -25.072   4.594  0.00  0.00    +0.119 HD
ATOM     34  H   LIG    1       24.600 -26.013   4.813  0.00  0.00    +0.119 HD
ENDBRANCH  31  32
BRANCH  31  35
ATOM     35  C   LIG    1       25.999 -26.598   6.310  0.00  0.00    +0.063 C 
BRANCH  35  36
ATOM     36  C   LIG    1       25.428 -27.893   6.829  0.00  0.00    -0.040 A 
ATOM     37  C   LIG    1       25.768 -28.400   8.133  0.00  0.00    -0.046 A 
ATOM     38  C   LIG    1       26.627 -27.847   9.261  0.00  0.00    +0.044 C 
ATOM     39  C   LIG    1       25.128 -29.557   8.588  0.00  0.00    +0.016 A 
ATOM     40  C   LIG    1       24.305 -30.339   7.809  0.00  0.00    +0.037 A 
ATOM     41  C   LIG    1       24.121 -29.937   6.485  0.00  0.00    +0.016 A 
ATOM     42  C   LIG    1       24.565 -28.680   6.003  0.00  0.00    -0.046 A 
ATOM     43  C   LIG    1       23.905 -28.332   4.669  0.00  0.00    +0.044 C 
BRANCH  40  44
ATOM     44  C   LIG    1       23.569 -31.443   8.499  0.00  0.00    +0.241 C 
ATOM     45  O   LIG    1       22.571 -31.221   9.224  0.00  0.00    -0.270 OA
ATOM     46  N   LIG    1       24.011 -32.738   8.358  0.00  0.00    -0.325 N 
ATOM     47  H   LIG    1       23.555 -33.482   8.863  0.00  0.00    +0.145 HD
ATOM     48  H   LIG    1       24.723 -33.050   7.710  0.00  0.00    +0.145 HD
ENDBRANCH  40  44
ENDBRANCH  35  36
ENDBRANCH  31  35
ENDBRANCH   2  31
TORSDOF 13
ENDMDL
MODEL 3
REMARK VINA RESULT:      -8.5      3.232      9.605
REMARK  Name = *****
REMARK                            x       y       z     vdW  Elec       q    Type
REMARK                         _______ _______ _______ _____ _____    ______ ____
ROOT
ATOM      1  N   LIG    1       25.528 -20.759   5.058  0.00  0.00    -0.286 N 
ATOM      2  C   LIG    1       26.858 -20.375   5.473  0.00  0.00    +0.234 C 
ATOM      3  O   LIG    1       27.461 -19.489   4.850  0.00  0.00    -0.274 OA
ENDROOT
BRANCH   1   4
ATOM      4  C   LIG    1       24.616 -21.625   5.828  0.00  0.00    +0.139 C 
ATOM      5  C   LIG    1       23.249 -21.074   6.325  0.00  0.00    +0.036 C 
BRANCH   4   6
ATOM      6  C   LIG    1       24.717 -23.092   5.522  0.00  0.00    +0.128 A 
ATOM      7  N   LIG    1       24.755 -23.634   4.254  0.00  0.00    -0.346 N 
ATOM      8  H   LIG    1       24.677 -23.138   3.374  0.00  0.00    +0.167 HD
ATOM      9  C   LIG    1       24.935 -24.983   4.392  0.00  0.00    +0.112 A 
ATOM     10  C   LIG    1       24.991 -25.209   5.748  0.00  0.00    +0.089 A 
ATOM     11  N   LIG    1       24.836 -24.038   6.426  0.00  0.00    -0.231 NA
BRANCH  10  12
ATOM     12  C   LIG    1       25.156 -26.493   6.394  0.00  0.00    +0.002 A 
ATOM     13  C   LIG    1       24.322 -27.560   6.042  0.00  0.00    +0.010 A 
ATOM     14  C   LIG    1       24.404 -28.776   6.712  0.00  0.00    +0.001 A 
ATOM     15  C   LIG    1       25.337 -28.944   7.733  0.00  0.00    +0.000 A 
ATOM     16  C   LIG    1       26.204 -27.904   8.065  0.00  0.00    +0.001 A 
ATOM     17  C   LIG    1       26.123 -26.681   7.392  0.00  0.00    +0.010 A 
ENDBRANCH  10  12
ENDBRANCH   4   6
ENDBRANCH   1   4
BRANCH   1  18
ATOM     18  C   LIG    1       24.891 -19.987   3.903  0.00  0.00    +0.143 C 
BRANCH  18  22
ATOM     19  C   LIG    1       24.239 -15.544   3.757  0.00  0.00    +0.134 A 
ATOM     20  C   LIG    1       25.532 -15.940   3.497  0.00  0.00    +0.101 A 
ATOM     21  C   LIG    1       25.713 -17.351   3.507  0.00  0.00    +0.024 A 
ATOM     22  C   LIG    1       24.762 -18.388   3.904  0.00  0.00    -0.029 A 
ATOM     23  C   LIG    1       23.472 -17.890   4.106  0.00  0.00    +0.009 A 
ATOM     24  C   LIG    1       23.229 -16.512   3.960  0.00  0.00    +0.047 A 
BRANCH  19  26
ATOM     25  C   LIG    1       24.087 -13.575   4.904  0.00  0.00    +0.277 C 
ATOM     26  O   LIG    1       23.951 -14.218   3.649  0.00  0.00    -0.494 OA
ENDBRANCH  19  26
BRANCH  20  27
ATOM     27  C   LIG    1       26.551 -14.954   2.967  0.00  0.00    +0.340 C 
ATOM     28  O   LIG    1       27.663 -14.657   3.551  0.00  0.00    -0.245 OA
BRANCH  27  29
ATOM     29  O   LIG    1       26.288 -14.344   1.808  0.00  0.00    -0.477 OA
ATOM     30  H   LIG    1       26.084 -15.085   1.167  0.00  0.00    +0.295 HD
ENDBRANCH  27  29
ENDBRANCH  20  27
ENDBRANCH  18  22
ENDBRANCH   1  18
BRANCH   2  31
ATOM     31  C   LIG    1       27.579 -21.020   6.774  0.00  0.00    +0.142 C 
BRANCH  31  32
ATOM     32  N   LIG    1       27.216 -22.396   6.921  0.00  0.00    -0.320 NA
ATOM     33  H   LIG    1       26.499 -22.442   7.652  0.00  0.00    +0.119 HD
ATOM     34  H   LIG    1       26.851 -22.510   5.991  0.00  0.00    +0.119 HD
ENDBRANCH  31  32
BRANCH  31  35
ATOM     35  C   LIG    1       29.110 -21.277   6.876  0.00  0.00    +0.063 C 
BRANCH  35  36
ATOM     36  C   LIG    1       30.004 -20.299   7.594  0.00  0.00    -0.040 A 
ATOM     37  C   LIG    1       30.167 -18.944   7.135  0.00  0.00    -0.046 A 
ATOM     38  C   LIG    1       29.535 -18.162   5.992  0.00  0.00    +0.044 C 
ATOM     39  C   LIG    1       30.936 -18.066   7.904  0.00  0.00    +0.016 A 
ATOM     40  C   LIG    1       31.682 -18.448   8.995  0.00  0.00    +0.037 A 
ATOM     41  C   LIG    1       31.662 -19.803   9.330  0.00  0.00    +0.016 A 
ATOM     42  C   LIG    1       30.760 -20.721   8.734  0.00  0.00    -0.046 A 
ATOM     43  C   LIG    1       30.673 -22.017   9.540  0.00  0.00    +0.044 C 
BRANCH  40  44
ATOM     44  C   LIG    1       32.307 -17.356   9.804  0.00  0.00    +0.241 C 
ATOM     45  O   LIG    1       32.523 -17.483  11.032  0.00  0.00    -0.270 OA
ATOM     46  N   LIG    1       32.633 -16.168   9.192  0.00  0.00    -0.325 N 
ATOM     47  H   LIG    1       33.004 -15.407   9.739  0.00  0.00    +0.145 HD
ATOM     48  H   LIG    1       32.619 -15.996   8.195  0.00  0.00    +0.145 HD
ENDBRANCH  40  44
ENDBRANCH  35  36
ENDBRANCH  31  35
ENDBRANCH   2  31
TORSDOF 13
ENDMDL
MODEL 4
REMARK VINA RESULT:      -8.2      5.157      8.396
REMARK  Name = *****
REMARK                            x       y       z     vdW  Elec       q    Type
REMARK                         _______ _______ _______ _____ _____    ______ ____
ROOT
ATOM      1  N   LIG    1       26.261 -30.124   8.466  0.00  0.00    -0.286 N 
ATOM      2  C   LIG    1       26.635 -31.458   8.879  0.00  0.00    +0.234 C 
ATOM      3  O   LIG    1       27.370 -31.608   9.866  0.00  0.00    -0.274 OA
ENDROOT
BRANCH   1   4
ATOM      4  C   LIG    1       25.229 -29.805   7.462  0.00  0.00    +0.139 C 
ATOM      5  C   LIG    1       23.792 -30.382   7.610  0.00  0.00    +0.036 C 
BRANCH   4   6
ATOM      6  C   LIG    1       25.391 -28.478   6.778  0.00  0.00    +0.128 A 
ATOM      7  N   LIG    1       25.977 -28.292   5.543  0.00  0.00    -0.346 N 
ATOM      8  H   LIG    1       26.410 -28.997   4.959  0.00  0.00    +0.167 HD
ATOM      9  C   LIG    1       25.858 -26.966   5.230  0.00  0.00    +0.112 A 
ATOM     10  C   LIG    1       25.207 -26.394   6.299  0.00  0.00    +0.089 A 
ATOM     11  N   LIG    1       24.946 -27.335   7.249  0.00  0.00    -0.231 NA
BRANCH  10  12
ATOM     12  C   LIG    1       24.864 -24.996   6.441  0.00  0.00    +0.002 A 
ATOM     13  C   LIG    1       25.879 -24.039   6.553  0.00  0.00    +0.010 A 
ATOM     14  C   LIG    1       25.572 -22.701   6.780  0.00  0.00    +0.001 A 
ATOM     15  C   LIG    1       24.242 -22.302   6.880  0.00  0.00    +0.000 A 
ATOM     16  C   LIG    1       23.218 -23.237   6.728  0.00  0.00    +0.001 A 
ATOM     17  C   LIG    1       23.525 -24.582   6.500  0.00  0.00    +0.010 A 
ENDBRANCH  10  12
ENDBRANCH   4   6
ENDBRANCH   1   4
BRANCH   1  18
ATOM     18  C   LIG    1       26.735 -28.953   9.326  0.00  0.00    +0.143 C 
BRANCH  18  22
ATOM     19  C   LIG    1       25.067 -27.913  13.366  0.00  0.00    +0.134 A 
ATOM     20  C   LIG    1       24.250 -28.714  12.601  0.00  0.00    +0.101 A 
ATOM     21  C   LIG    1       24.809 -29.067  11.342  0.00  0.00    +0.024 A 
ATOM     22  C   LIG    1       26.034 -28.569  10.718  0.00  0.00    -0.029 A 
ATOM     23  C   LIG    1       26.811 -27.801  11.589  0.00  0.00    +0.009 A 
ATOM     24  C   LIG    1       26.351 -27.555  12.896  0.00  0.00    +0.047 A 
BRANCH  19  26
ATOM     25  C   LIG    1       25.028 -26.304  14.987  0.00  0.00    +0.277 C 
ATOM     26  O   LIG    1       24.662 -27.627  14.633  0.00  0.00    -0.494 OA
ENDBRANCH  19  26
BRANCH  20  27
ATOM     27  C   LIG    1       23.025 -29.368  13.201  0.00  0.00    +0.340 C 
ATOM     28  O   LIG    1       21.815 -29.190  12.786  0.00  0.00    -0.245 OA
BRANCH  27  29
ATOM     29  O   LIG    1       23.200 -30.194  14.237  0.00  0.00    -0.477 OA
ATOM     30  H   LIG    1       24.193 -30.263  14.346  0.00  0.00    +0.295 HD
ENDBRANCH  27  29
ENDBRANCH  20  27
ENDBRANCH  18  22
ENDBRANCH   1  18
BRANCH   2  31
ATOM     31  C   LIG    1       26.076 -32.784   8.133  0.00  0.00    +0.142 C 
BRANCH  31  32
ATOM     32  N   LIG    1       27.134 -33.721   7.911  0.00  0.00    -0.320 NA
ATOM     33  H   LIG    1       26.735 -34.659   8.023  0.00  0.00    +0.119 HD
ATOM     34  H   LIG    1       27.302 -33.468   6.952  0.00  0.00    +0.119 HD
ENDBRANCH  31  32
BRANCH  31  35
ATOM     35  C   LIG    1       25.125 -33.817   8.803  0.00  0.00    +0.063 C 
BRANCH  35  36
ATOM     36  C   LIG    1       23.781 -33.388   9.334  0.00  0.00    -0.040 A 
ATOM     37  C   LIG    1       23.619 -32.903  10.680  0.00  0.00    -0.046 A 
ATOM     38  C   LIG    1       24.609 -32.642  11.806  0.00  0.00    +0.044 C 
ATOM     39  C   LIG    1       22.363 -32.433  11.074  0.00  0.00    +0.016 A 
ATOM     40  C   LIG    1       21.224 -32.547  10.310  0.00  0.00    +0.037 A 
ATOM     41  C   LIG    1       21.353 -33.183   9.074  0.00  0.00    +0.016 A 
ATOM     42  C   LIG    1       22.614 -33.506   8.513  0.00  0.00    -0.046 A 
ATOM     43  C   LIG    1       22.496 -33.821   7.023  0.00  0.00    +0.044 C 
BRANCH  40  44
ATOM     44  C   LIG    1       20.002 -31.840  10.807  0.00  0.00    +0.241 C 
ATOM     45  O   LIG    1       18.992 -32.465  11.203  0.00  0.00    -0.270 OA
ATOM     46  N   LIG    1       19.974 -30.464  10.806  0.00  0.00    -0.325 N 
ATOM     47  H   LIG    1       19.135 -29.980  11.086  0.00  0.00    +0.145 HD
ATOM     48  H   LIG    1       20.764 -29.859  10.625  0.00  0.00    +0.145 HD
ENDBRANCH  40  44
ENDBRANCH  35  36
ENDBRANCH  31  35
ENDBRANCH   2  31
TORSDOF 13
ENDMDL
MODEL 5
REMARK VINA RESULT:      -8.1      6.115     11.577
REMARK  Name = *****
REMARK                            x       y       z     vdW  Elec       q    Type
REMARK                         _______ _______ _______ _____ _____    ______ ____
ROOT
ATOM      1  N   LIG    1       22.621 -32.050  11.437  0.00  0.00    -0.286 N 
ATOM      2  C   LIG    1       23.225 -31.774  10.153  0.00  0.00    +0.234 C 
ATOM      3  O   LIG    1       22.501 -31.533   9.176  0.00  0.00    -0.274 OA
ENDROOT
BRANCH   1   4
ATOM      4  C   LIG    1       23.349 -32.132  12.717  0.00  0.00    +0.139 C 
ATOM      5  C   LIG    1       23.596 -33.514  13.387  0.00  0.00    +0.036 C 
BRANCH   4   6
ATOM      6  C   LIG    1       24.356 -31.043  12.951  0.00  0.00    +0.128 A 
ATOM      7  N   LIG    1       25.714 -31.238  13.086  0.00  0.00    -0.346 N 
ATOM      8  H   LIG    1       26.208 -32.123  13.091  0.00  0.00    +0.167 HD
ATOM      9  C   LIG    1       26.295 -30.004  13.200  0.00  0.00    +0.112 A 
ATOM     10  C   LIG    1       25.257 -29.103  13.137  0.00  0.00    +0.089 A 
ATOM     11  N   LIG    1       24.071 -29.761  13.004  0.00  0.00    -0.231 NA
BRANCH  10  12
ATOM     12  C   LIG    1       25.369 -27.664  13.229  0.00  0.00    +0.002 A 
ATOM     13  C   LIG    1       26.598 -27.045  12.975  0.00  0.00    +0.010 A 
ATOM     14  C   LIG    1       26.750 -25.673  13.144  0.00  0.00    +0.001 A 
ATOM     15  C   LIG    1       25.667 -24.900  13.553  0.00  0.00    +0.000 A 
ATOM     16  C   LIG    1       24.424 -25.496  13.768  0.00  0.00    +0.001 A 
ATOM     17  C   LIG    1       24.270 -26.875  13.598  0.00  0.00    +0.010 A 
ENDBRANCH  10  12
ENDBRANCH   4   6
ENDBRANCH   1   4
BRANCH   1  18
ATOM     18  C   LIG    1       21.100 -31.953  11.545  0.00  0.00    +0.143 C 
BRANCH  18  22
ATOM     19  C   LIG    1       18.774 -29.160  14.187  0.00  0.00    +0.134 A 
ATOM     20  C   LIG    1       19.900 -28.605  13.620  0.00  0.00    +0.101 A 
ATOM     21  C   LIG    1       20.602 -29.489  12.755  0.00  0.00    +0.024 A 
ATOM     22  C   LIG    1       20.372 -30.915  12.528  0.00  0.00    -0.029 A 
ATOM     23  C   LIG    1       19.185 -31.371  13.110  0.00  0.00    +0.009 A 
ATOM     24  C   LIG    1       18.390 -30.479  13.854  0.00  0.00    +0.047 A 
BRANCH  19  26
ATOM     25  C   LIG    1       16.664 -28.314  14.402  0.00  0.00    +0.277 C 
ATOM     26  O   LIG    1       17.977 -28.347  14.932  0.00  0.00    -0.494 OA
ENDBRANCH  19  26
BRANCH  20  27
ATOM     27  C   LIG    1       20.154 -27.115  13.704  0.00  0.00    +0.340 C 
ATOM     28  O   LIG    1       20.977 -26.553  14.525  0.00  0.00    -0.245 OA
BRANCH  27  29
ATOM     29  O   LIG    1       19.483 -26.317  12.870  0.00  0.00    -0.477 OA
ATOM     30  H   LIG    1       18.916 -25.743  13.463  0.00  0.00    +0.295 HD
ENDBRANCH  27  29
ENDBRANCH  20  27
ENDBRANCH  18  22
ENDBRANCH   1  18
BRANCH   2  31
ATOM     31  C   LIG    1       24.832 -31.705   9.949  0.00  0.00    +0.142 C 
BRANCH  31  32
ATOM     32  N   LIG    1       25.420 -32.995  10.140  0.00  0.00    -0.320 NA
ATOM     33  H   LIG    1       25.671 -33.352   9.212  0.00  0.00    +0.119 HD
ATOM     34  H   LIG    1       26.210 -32.675  10.674  0.00  0.00    +0.119 HD
ENDBRANCH  31  32
BRANCH  31  35
ATOM     35  C   LIG    1       25.519 -31.449   8.577  0.00  0.00    +0.063 C 
BRANCH  35  36
ATOM     36  C   LIG    1       25.324 -30.140   7.856  0.00  0.00    -0.040 A 
ATOM     37  C   LIG    1       25.867 -28.908   8.365  0.00  0.00    -0.046 A 
ATOM     38  C   LIG    1       26.735 -28.587   9.574  0.00  0.00    +0.044 C 
ATOM     39  C   LIG    1       25.729 -27.748   7.596  0.00  0.00    +0.016 A 
ATOM     40  C   LIG    1       24.970 -27.670   6.451  0.00  0.00    +0.037 A 
ATOM     41  C   LIG    1       24.298 -28.828   6.058  0.00  0.00    +0.016 A 
ATOM     42  C   LIG    1       24.540 -30.089   6.660  0.00  0.00    -0.046 A 
ATOM     43  C   LIG    1       23.988 -31.228   5.803  0.00  0.00    +0.044 C 
BRANCH  40  44
ATOM     44  C   LIG    1       25.069 -26.405   5.659  0.00  0.00    +0.241 C 
ATOM     45  O   LIG    1       26.165 -25.980   5.224  0.00  0.00    -0.270 OA
ATOM     46  N   LIG    1       23.931 -25.669   5.420  0.00  0.00    -0.325 N 
ATOM     47  H   LIG    1       23.996 -24.788   4.936  0.00  0.00    +0.145 HD
ATOM     48  H   LIG    1       22.984 -25.970   5.614  0.00  0.00    +0.145 HD
ENDBRANCH  40  44
ENDBRANCH  35  36
ENDBRANCH  31  35
ENDBRANCH   2  31
TORSDOF 13
ENDMDL
MODEL 6
REMARK VINA RESULT:      -8.1      2.655     10.763
REMARK  Name = *****
REMARK                            x       y       z     vdW  Elec       q    Type
REMARK                         _______ _______ _______ _____ _____    ______ ____
ROOT
ATOM      1  N   LIG    1       25.356 -26.182   6.598  0.00  0.00    -0.286 N 
ATOM      2  C   LIG    1       25.116 -24.815   7.002  0.00  0.00    +0.234 C 
ATOM      3  O   LIG    1       25.732 -24.347   7.970  0.00  0.00    -0.274 OA
ENDROOT
BRANCH   1   4
ATOM      4  C   LIG    1       24.871 -26.796   5.349  0.00  0.00    +0.139 C 
ATOM      5  C   LIG    1       25.152 -26.109   3.981  0.00  0.00    +0.036 C 
BRANCH   4   6
ATOM      6  C   LIG    1       24.748 -28.292   5.376  0.00  0.00    +0.128 A 
ATOM      7  N   LIG    1       23.559 -28.986   5.467  0.00  0.00    -0.346 N 
ATOM      8  H   LIG    1       22.630 -28.597   5.571  0.00  0.00    +0.167 HD
ATOM      9  C   LIG    1       23.856 -30.318   5.377  0.00  0.00    +0.112 A 
ATOM     10  C   LIG    1       25.224 -30.381   5.242  0.00  0.00    +0.089 A 
ATOM     11  N   LIG    1       25.756 -29.127   5.263  0.00  0.00    -0.231 NA
BRANCH  10  12
ATOM     12  C   LIG    1       26.016 -31.586   5.125  0.00  0.00    +0.002 A 
ATOM     13  C   LIG    1       26.718 -32.065   6.236  0.00  0.00    +0.010 A 
ATOM     14  C   LIG    1       27.556 -33.170   6.123  0.00  0.00    +0.001 A 
ATOM     15  C   LIG    1       27.688 -33.819   4.899  0.00  0.00    +0.000 A 
ATOM     16  C   LIG    1       26.962 -33.378   3.792  0.00  0.00    +0.001 A 
ATOM     17  C   LIG    1       26.119 -32.269   3.904  0.00  0.00    +0.010 A 
ENDBRANCH  10  12
ENDBRANCH   4   6
ENDBRANCH   1   4
BRANCH   1  18
ATOM     18  C   LIG    1       26.430 -26.969   7.349  0.00  0.00    +0.143 C 
BRANCH  18  22
ATOM     19  C   LIG    1       25.756 -29.937  10.655  0.00  0.00    +0.134 A 
ATOM     20  C   LIG    1       24.920 -30.089   9.572  0.00  0.00    +0.101 A 
ATOM     21  C   LIG    1       25.173 -29.168   8.518  0.00  0.00    +0.024 A 
ATOM     22  C   LIG    1       26.074 -28.017   8.511  0.00  0.00    -0.029 A 
ATOM     23  C   LIG    1       26.907 -27.976   9.633  0.00  0.00    +0.009 A 
ATOM     24  C   LIG    1       26.780 -28.962  10.628  0.00  0.00    +0.047 A 
BRANCH  19  26
ATOM     25  C   LIG    1       25.273 -30.227  12.868  0.00  0.00    +0.277 C 
ATOM     26  O   LIG    1       25.663 -30.852  11.658  0.00  0.00    -0.494 OA
ENDBRANCH  19  26
BRANCH  20  27
ATOM     27  C   LIG    1       24.039 -31.313   9.441  0.00  0.00    +0.340 C 
ATOM     28  O   LIG    1       22.870 -31.325   8.892  0.00  0.00    -0.245 OA
BRANCH  27  29
ATOM     29  O   LIG    1       24.499 -32.470   9.924  0.00  0.00    -0.477 OA
ATOM     30  H   LIG    1       23.715 -33.091   9.894  0.00  0.00    +0.295 HD
ENDBRANCH  27  29
ENDBRANCH  20  27
ENDBRANCH  18  22
ENDBRANCH   1  18
BRANCH   2  31
ATOM     31  C   LIG    1       24.108 -23.838   6.192  0.00  0.00    +0.142 C 
BRANCH  31  32
ATOM     32  N   LIG    1       22.748 -24.120   6.535  0.00  0.00    -0.320 NA
ATOM     33  H   LIG    1       22.758 -24.928   7.167  0.00  0.00    +0.119 HD
ATOM     34  H   LIG    1       22.571 -23.247   7.001  0.00  0.00    +0.119 HD
ENDBRANCH  31  32
BRANCH  31  35
ATOM     35  C   LIG    1       23.993 -22.308   6.451  0.00  0.00    +0.063 C 
BRANCH  35  36
ATOM     36  C   LIG    1       25.178 -21.404   6.231  0.00  0.00    -0.040 A 
ATOM     37  C   LIG    1       26.138 -21.147   7.273  0.00  0.00    -0.046 A 
ATOM     38  C   LIG    1       26.282 -21.677   8.693  0.00  0.00    +0.044 C 
ATOM     39  C   LIG    1       27.263 -20.375   6.970  0.00  0.00    +0.016 A 
ATOM     40  C   LIG    1       27.442 -19.708   5.779  0.00  0.00    +0.037 A 
ATOM     41  C   LIG    1       26.419 -19.816   4.836  0.00  0.00    +0.016 A 
ATOM     42  C   LIG    1       25.346 -20.732   4.978  0.00  0.00    -0.046 A 
ATOM     43  C   LIG    1       24.604 -20.928   3.656  0.00  0.00    +0.044 C 
BRANCH  40  44
ATOM     44  C   LIG    1       28.776 -19.070   5.554  0.00  0.00    +0.241 C 
ATOM     45  O   LIG    1       29.806 -19.461   6.152  0.00  0.00    -0.270 OA
ATOM     46  N   LIG    1       28.876 -18.006   4.687  0.00  0.00    -0.325 N 
ATOM     47  H   LIG    1       29.759 -17.535   4.571  0.00  0.00    +0.145 HD
ATOM     48  H   LIG    1       28.146 -17.685   4.063  0.00  0.00    +0.145 HD
ENDBRANCH  40  44
ENDBRANCH  35  36
ENDBRANCH  31  35
ENDBRANCH   2  31
TORSDOF 13
ENDMDL
MODEL 7
REMARK VINA RESULT:      -7.9      2.364      8.182
REMARK  Name = *****
REMARK                            x       y       z     vdW  Elec       q    Type
REMARK                         _______ _______ _______ _____ _____    ______ ____
ROOT
ATOM      1  N   LIG    1       24.691 -23.509   6.397  0.00  0.00    -0.286 N 
ATOM      2  C   LIG    1       26.120 -23.563   6.608  0.00  0.00    +0.234 C 
ATOM      3  O   LIG    1       26.734 -24.613   6.371  0.00  0.00    -0.274 OA
ENDROOT
BRANCH   1   4
ATOM      4  C   LIG    1       23.875 -22.282   6.421  0.00  0.00    +0.139 C 
ATOM      5  C   LIG    1       23.389 -21.694   7.778  0.00  0.00    +0.036 C 
BRANCH   4   6
ATOM      6  C   LIG    1       24.116 -21.330   5.285  0.00  0.00    +0.128 A 
ATOM      7  N   LIG    1       24.090 -21.673   3.949  0.00  0.00    -0.346 N 
ATOM      8  H   LIG    1       23.953 -22.596   3.556  0.00  0.00    +0.167 HD
ATOM      9  C   LIG    1       24.269 -20.522   3.230  0.00  0.00    +0.112 A 
ATOM     10  C   LIG    1       24.407 -19.522   4.164  0.00  0.00    +0.089 A 
ATOM     11  N   LIG    1       24.329 -20.041   5.422  0.00  0.00    -0.231 NA
BRANCH  10  12
ATOM     12  C   LIG    1       24.634 -18.121   3.888  0.00  0.00    +0.002 A 
ATOM     13  C   LIG    1       25.871 -17.704   3.384  0.00  0.00    +0.010 A 
ATOM     14  C   LIG    1       26.142 -16.353   3.196  0.00  0.00    +0.001 A 
ATOM     15  C   LIG    1       25.169 -15.402   3.494  0.00  0.00    +0.000 A 
ATOM     16  C   LIG    1       23.916 -15.805   3.957  0.00  0.00    +0.001 A 
ATOM     17  C   LIG    1       23.643 -17.162   4.146  0.00  0.00    +0.010 A 
ENDBRANCH  10  12
ENDBRANCH   4   6
ENDBRANCH   1   4
BRANCH   1  18
ATOM     18  C   LIG    1       24.010 -24.746   5.810  0.00  0.00    +0.143 C 
BRANCH  18  22
ATOM     19  C   LIG    1       25.290 -29.018   6.355  0.00  0.00    +0.134 A 
ATOM     20  C   LIG    1       25.504 -28.214   7.451  0.00  0.00    +0.101 A 
ATOM     21  C   LIG    1       25.057 -26.875   7.277  0.00  0.00    +0.024 A 
ATOM     22  C   LIG    1       24.562 -26.232   6.062  0.00  0.00    -0.029 A 
ATOM     23  C   LIG    1       24.339 -27.139   5.022  0.00  0.00    +0.009 A 
ATOM     24  C   LIG    1       24.636 -28.501   5.214  0.00  0.00    +0.047 A 
BRANCH  19  26
ATOM     25  C   LIG    1       25.486 -30.991   5.221  0.00  0.00    +0.277 C 
ATOM     26  O   LIG    1       25.577 -30.343   6.478  0.00  0.00    -0.494 OA
ENDBRANCH  19  26
BRANCH  20  27
ATOM     27  C   LIG    1       25.904 -28.812   8.783  0.00  0.00    +0.340 C 
ATOM     28  O   LIG    1       27.005 -28.555   9.407  0.00  0.00    -0.245 OA
BRANCH  27  29
ATOM     29  O   LIG    1       25.058 -29.669   9.364  0.00  0.00    -0.477 OA
ATOM     30  H   LIG    1       25.035 -29.394  10.326  0.00  0.00    +0.295 HD
ENDBRANCH  27  29
ENDBRANCH  20  27
ENDBRANCH  18  22
ENDBRANCH   1  18
BRANCH   2  31
ATOM     31  C   LIG    1       26.973 -22.271   7.088  0.00  0.00    +0.142 C 
BRANCH  31  32
ATOM     32  N   LIG    1       26.869 -22.096   8.504  0.00  0.00    -0.320 NA
ATOM     33  H   LIG    1       26.013 -21.562   8.681  0.00  0.00    +0.119 HD
ATOM     34  H   LIG    1       26.786 -23.073   8.727  0.00  0.00    +0.119 HD
ENDBRANCH  31  32
BRANCH  31  35
ATOM     35  C   LIG    1       28.526 -22.201   7.061  0.00  0.00    +0.063 C 
BRANCH  35  36
ATOM     36  C   LIG    1       29.245 -20.956   7.515  0.00  0.00    -0.040 A 
ATOM     37  C   LIG    1       29.025 -19.682   6.881  0.00  0.00    -0.046 A 
ATOM     38  C   LIG    1       28.093 -19.235   5.765  0.00  0.00    +0.044 C 
ATOM     39  C   LIG    1       29.653 -18.554   7.415  0.00  0.00    +0.016 A 
ATOM     40  C   LIG    1       30.596 -18.598   8.417  0.00  0.00    +0.037 A 
ATOM     41  C   LIG    1       30.938 -19.860   8.907  0.00  0.00    +0.016 A 
ATOM     42  C   LIG    1       30.212 -21.029   8.568  0.00  0.00    -0.046 A 
ATOM     43  C   LIG    1       30.533 -22.179   9.523  0.00  0.00    +0.044 C 
BRANCH  40  44
ATOM     44  C   LIG    1       31.040 -17.288   8.988  0.00  0.00    +0.241 C 
ATOM     45  O   LIG    1       30.257 -16.543   9.622  0.00  0.00    -0.270 OA
ATOM     46  N   LIG    1       32.337 -16.874   8.791  0.00  0.00    -0.325 N 
ATOM     47  H   LIG    1       32.630 -15.968   9.124  0.00  0.00    +0.145 HD
ATOM     48  H   LIG    1       33.083 -17.438   8.405  0.00  0.00    +0.145 HD
ENDBRANCH  40  44
ENDBRANCH  35  36
ENDBRANCH  31  35
ENDBRANCH   2  31
TORSDOF 13
ENDMDL
MODEL 8
REMARK VINA RESULT:      -7.8      4.596      7.936
REMARK  Name = *****
REMARK                            x       y       z     vdW  Elec       q    Type
REMARK                         _______ _______ _______ _____ _____    ______ ____
ROOT
ATOM      1  N   LIG    1       26.242 -30.103   8.694  0.00  0.00    -0.286 N 
ATOM      2  C   LIG    1       26.542 -31.465   9.073  0.00  0.00    +0.234 C 
ATOM      3  O   LIG    1       27.391 -31.683   9.950  0.00  0.00    -0.274 OA
ENDROOT
BRANCH   1   4
ATOM      4  C   LIG    1       25.114 -29.688   7.840  0.00  0.00    +0.139 C 
ATOM      5  C   LIG    1       23.650 -29.918   8.314  0.00  0.00    +0.036 C 
BRANCH   4   6
ATOM      6  C   LIG    1       25.390 -28.519   6.939  0.00  0.00    +0.128 A 
ATOM      7  N   LIG    1       25.818 -28.613   5.631  0.00  0.00    -0.346 N 
ATOM      8  H   LIG    1       26.044 -29.458   5.120  0.00  0.00    +0.167 HD
ATOM      9  C   LIG    1       25.871 -27.342   5.127  0.00  0.00    +0.112 A 
ATOM     10  C   LIG    1       25.479 -26.521   6.159  0.00  0.00    +0.089 A 
ATOM     11  N   LIG    1       25.206 -27.260   7.270  0.00  0.00    -0.231 NA
BRANCH  10  12
ATOM     12  C   LIG    1       25.389 -25.078   6.115  0.00  0.00    +0.002 A 
ATOM     13  C   LIG    1       25.817 -24.322   7.213  0.00  0.00    +0.010 A 
ATOM     14  C   LIG    1       25.658 -22.940   7.228  0.00  0.00    +0.001 A 
ATOM     15  C   LIG    1       25.084 -22.295   6.136  0.00  0.00    +0.000 A 
ATOM     16  C   LIG    1       24.692 -23.031   5.017  0.00  0.00    +0.001 A 
ATOM     17  C   LIG    1       24.852 -24.419   4.999  0.00  0.00    +0.010 A 
ENDBRANCH  10  12
ENDBRANCH   4   6
ENDBRANCH   1   4
BRANCH   1  18
ATOM     18  C   LIG    1       26.941 -28.980   9.460  0.00  0.00    +0.143 C 
BRANCH  18  22
ATOM     19  C   LIG    1       25.195 -27.548  13.344  0.00  0.00    +0.134 A 
ATOM     20  C   LIG    1       26.362 -26.918  12.977  0.00  0.00    +0.101 A 
ATOM     21  C   LIG    1       26.881 -27.354  11.726  0.00  0.00    +0.024 A 
ATOM     22  C   LIG    1       26.427 -28.464  10.890  0.00  0.00    -0.029 A 
ATOM     23  C   LIG    1       25.214 -29.008  11.324  0.00  0.00    +0.009 A 
ATOM     24  C   LIG    1       24.600 -28.497  12.482  0.00  0.00    +0.047 A 
BRANCH  19  26
ATOM     25  C   LIG    1       23.630 -28.067  14.925  0.00  0.00    +0.277 C 
ATOM     26  O   LIG    1       24.566 -27.107  14.468  0.00  0.00    -0.494 OA
ENDBRANCH  19  26
BRANCH  20  27
ATOM     27  C   LIG    1       26.843 -25.687  13.716  0.00  0.00    +0.340 C 
ATOM     28  O   LIG    1       27.996 -25.573  14.286  0.00  0.00    -0.245 OA
BRANCH  27  29
ATOM     29  O   LIG    1       26.020 -24.638  13.785  0.00  0.00    -0.477 OA
ATOM     30  H   LIG    1       25.984 -24.403  14.758  0.00  0.00    +0.295 HD
ENDBRANCH  27  29
ENDBRANCH  20  27
ENDBRANCH  18  22
ENDBRANCH   1  18
BRANCH   2  31
ATOM     31  C   LIG    1       25.760 -32.733   8.434  0.00  0.00    +0.142 C 
BRANCH  31  32
ATOM     32  N   LIG    1       26.680 -33.775   8.098  0.00  0.00    -0.320 NA
ATOM     33  H   LIG    1       27.068 -33.549   7.176  0.00  0.00    +0.119 HD
ATOM     34  H   LIG    1       27.319 -33.604   8.855  0.00  0.00    +0.119 HD
ENDBRANCH  31  32
BRANCH  31  35
ATOM     35  C   LIG    1       24.806 -33.657   9.244  0.00  0.00    +0.063 C 
BRANCH  35  36
ATOM     36  C   LIG    1       23.537 -33.109   9.845  0.00  0.00    -0.040 A 
ATOM     37  C   LIG    1       22.275 -33.193   9.156  0.00  0.00    -0.046 A 
ATOM     38  C   LIG    1       21.865 -33.825   7.834  0.00  0.00    +0.044 C 
ATOM     39  C   LIG    1       21.124 -32.750   9.814  0.00  0.00    +0.016 A 
ATOM     40  C   LIG    1       21.133 -32.090  11.022  0.00  0.00    +0.037 A 
ATOM     41  C   LIG    1       22.380 -31.851  11.602  0.00  0.00    +0.016 A 
ATOM     42  C   LIG    1       23.573 -32.438  11.109  0.00  0.00    -0.046 A 
ATOM     43  C   LIG    1       24.704 -32.340  12.132  0.00  0.00    +0.044 C 
BRANCH  40  44
ATOM     44  C   LIG    1       19.806 -31.838  11.665  0.00  0.00    +0.241 C 
ATOM     45  O   LIG    1       18.955 -32.747  11.804  0.00  0.00    -0.270 OA
ATOM     46  N   LIG    1       19.497 -30.568  12.096  0.00  0.00    -0.325 N 
ATOM     47  H   LIG    1       18.585 -30.377  12.480  0.00  0.00    +0.145 HD
ATOM     48  H   LIG    1       20.143 -29.791  12.147  0.00  0.00    +0.145 HD
ENDBRANCH  40  44
ENDBRANCH  35  36
ENDBRANCH  31  35
ENDBRANCH   2  31
TORSDOF 13
ENDMDL
MODEL 9
REMARK VINA RESULT:      -7.7      2.425      5.215
REMARK  Name = *****
REMARK                            x       y       z     vdW  Elec       q    Type
REMARK                         _______ _______ _______ _____ _____    ______ ____
ROOT
ATOM      1  N   LIG    1       24.293 -22.761   5.319  0.00  0.00    -0.286 N 
ATOM      2  C   LIG    1       24.859 -24.088   5.241  0.00  0.00    +0.234 C 
ATOM      3  O   LIG    1       25.255 -24.521   4.149  0.00  0.00    -0.274 OA
ENDROOT
BRANCH   1   4
ATOM      4  C   LIG    1       23.990 -22.039   6.569  0.00  0.00    +0.139 C 
ATOM      5  C   LIG    1       22.800 -22.493   7.464  0.00  0.00    +0.036 C 
BRANCH   4   6
ATOM      6  C   LIG    1       25.169 -21.392   7.236  0.00  0.00    +0.128 A 
ATOM      7  N   LIG    1       25.224 -21.030   8.566  0.00  0.00    -0.346 N 
ATOM      8  H   LIG    1       24.483 -21.106   9.252  0.00  0.00    +0.167 HD
ATOM      9  C   LIG    1       26.484 -20.555   8.807  0.00  0.00    +0.112 A 
ATOM     10  C   LIG    1       27.145 -20.639   7.604  0.00  0.00    +0.089 A 
ATOM     11  N   LIG    1       26.315 -21.138   6.645  0.00  0.00    -0.231 NA
BRANCH  10  12
ATOM     12  C   LIG    1       28.511 -20.237   7.350  0.00  0.00    +0.002 A 
ATOM     13  C   LIG    1       29.534 -20.679   8.196  0.00  0.00    +0.010 A 
ATOM     14  C   LIG    1       30.841 -20.233   8.023  0.00  0.00    +0.001 A 
ATOM     15  C   LIG    1       31.142 -19.351   6.988  0.00  0.00    +0.000 A 
ATOM     16  C   LIG    1       30.140 -18.935   6.110  0.00  0.00    +0.001 A 
ATOM     17  C   LIG    1       28.827 -19.383   6.282  0.00  0.00    +0.010 A 
ENDBRANCH  10  12
ENDBRANCH   4   6
ENDBRANCH   1   4
BRANCH   1  18
ATOM     18  C   LIG    1       24.283 -21.915   4.047  0.00  0.00    +0.143 C 
BRANCH  18  22
ATOM     19  C   LIG    1       23.891 -17.439   3.968  0.00  0.00    +0.134 A 
ATOM     20  C   LIG    1       25.176 -17.902   3.802  0.00  0.00    +0.101 A 
ATOM     21  C   LIG    1       25.278 -19.321   3.789  0.00  0.00    +0.024 A 
ATOM     22  C   LIG    1       24.242 -20.311   4.080  0.00  0.00    -0.029 A 
ATOM     23  C   LIG    1       22.969 -19.744   4.191  0.00  0.00    +0.009 A 
ATOM     24  C   LIG    1       22.815 -18.352   4.062  0.00  0.00    +0.047 A 
BRANCH  19  26
ATOM     25  C   LIG    1       22.705 -15.675   4.803  0.00  0.00    +0.277 C 
ATOM     26  O   LIG    1       23.686 -16.097   3.872  0.00  0.00    -0.494 OA
ENDBRANCH  19  26
BRANCH  20  27
ATOM     27  C   LIG    1       26.288 -16.965   3.383  0.00  0.00    +0.340 C 
ATOM     28  O   LIG    1       26.115 -15.843   2.768  0.00  0.00    -0.245 OA
BRANCH  27  29
ATOM     29  O   LIG    1       27.545 -17.317   3.668  0.00  0.00    -0.477 OA
ATOM     30  H   LIG    1       28.081 -16.481   3.545  0.00  0.00    +0.295 HD
ENDBRANCH  27  29
ENDBRANCH  20  27
ENDBRANCH  18  22
ENDBRANCH   1  18
BRANCH   2  31
ATOM     31  C   LIG    1       25.056 -25.024   6.551  0.00  0.00    +0.142 C 
BRANCH  31  32
ATOM     32  N   LIG    1       23.868 -25.776   6.816  0.00  0.00    -0.320 NA
ATOM     33  H   LIG    1       24.055 -26.744   6.533  0.00  0.00    +0.119 HD
ATOM     34  H   LIG    1       23.875 -25.640   7.812  0.00  0.00    +0.119 HD
ENDBRANCH  31  32
BRANCH  31  35
ATOM     35  C   LIG    1       26.005 -26.255   6.599  0.00  0.00    +0.063 C 
BRANCH  35  36
ATOM     36  C   LIG    1       25.443 -27.650   6.710  0.00  0.00    -0.040 A 
ATOM     37  C   LIG    1       24.694 -28.251   5.637  0.00  0.00    -0.046 A 
ATOM     38  C   LIG    1       24.339 -27.774   4.236  0.00  0.00    +0.044 C 
ATOM     39  C   LIG    1       24.286 -29.581   5.771  0.00  0.00    +0.016 A 
ATOM     40  C   LIG    1       24.415 -30.314   6.929  0.00  0.00    +0.037 A 
ATOM     41  C   LIG    1       24.982 -29.664   8.027  0.00  0.00    +0.016 A 
ATOM     42  C   LIG    1       25.603 -28.394   7.922  0.00  0.00    -0.046 A 
ATOM     43  C   LIG    1       26.470 -28.096   9.145  0.00  0.00    +0.044 C 
BRANCH  40  44
ATOM     44  C   LIG    1       24.084 -31.770   6.850  0.00  0.00    +0.241 C 
ATOM     45  O   LIG    1       24.346 -32.561   7.785  0.00  0.00    -0.270 OA
ATOM     46  N   LIG    1       23.498 -32.265   5.707  0.00  0.00    -0.325 N 
ATOM     47  H   LIG    1       23.322 -33.254   5.622  0.00  0.00    +0.145 HD
ATOM     48  H   LIG    1       23.133 -31.710   4.945  0.00  0.00    +0.145 HD
ENDBRANCH  40  44
ENDBRANCH  35  36
ENDBRANCH  31  35
ENDBRANCH   2  31
TORSDOF 13
ENDMDL
