MODEL 1
REMARK VINA RESULT:      -3.4      0.000      0.000
REMARK  Name = *****
REMARK                            x       y       z     vdW  Elec       q    Type
REMARK                         _______ _______ _______ _____ _____    ______ ____
ROOT
ATOM      1  C   LIG    1       27.013 -17.324   3.990  0.00  0.00    +0.036 A 
ATOM      2  C   LIG    1       27.854 -17.847   4.986  0.00  0.00    +0.038 A 
ATOM      3  C   LIG    1       27.682 -19.148   5.483  0.00  0.00    +0.060 A 
ATOM      4  C   LIG    1       26.564 -19.886   5.049  0.00  0.00    +0.131 A 
ATOM      5  C   LIG    1       25.790 -19.377   3.994  0.00  0.00    +0.048 A 
ATOM      6  C   LIG    1       26.024 -18.120   3.451  0.00  0.00    +0.027 A 
ENDROOT
BRANCH   1   9
ATOM      7  N   LIG    1       26.815 -13.758   3.041  0.00  0.00    -0.286 N 
ATOM      8  C   LIG    1       26.257 -14.987   3.454  0.00  0.00    +0.306 C 
ATOM      9  N   LIG    1       27.207 -15.985   3.626  0.00  0.00    -0.269 N 
ATOM     10  H   LIG    1       28.170 -15.736   3.520  0.00  0.00    +0.156 HD
ATOM     11  O   LIG    1       25.058 -15.138   3.590  0.00  0.00    -0.252 OA
BRANCH   7  13
ATOM     12  C   LIG    1       24.557 -13.043   2.274  0.00  0.00    +0.024 C 
ATOM     13  C   LIG    1       25.914 -12.620   2.824  0.00  0.00    +0.106 C 
ENDBRANCH   7  13
BRANCH   7  14
ATOM     14  C   LIG    1       28.239 -13.499   2.844  0.00  0.00    +0.106 C 
ATOM     15  C   LIG    1       28.824 -12.679   3.984  0.00  0.00    +0.024 C 
ENDBRANCH   7  14
ENDBRANCH   1   9
BRANCH   3  16
ATOM     16  C   LIG    1       28.713 -19.719   6.424  0.00  0.00    +0.164 C 
ATOM     17  O   LIG    1       29.474 -18.992   7.058  0.00  0.00    -0.292 OA
ATOM     18  C   LIG    1       28.750 -21.220   6.664  0.00  0.00    +0.091 C 
ENDBRANCH   3  16
BRANCH   4  19
ATOM     19  O   LIG    1       26.284 -21.083   5.649  0.00  0.00    -0.489 OA
BRANCH  19  20
ATOM     20  C   LIG    1       25.268 -21.139   6.667  0.00  0.00    +0.261 C 
BRANCH  20  21
ATOM     21  C   LIG    1       23.929 -21.571   6.046  0.00  0.00    +0.166 C 
BRANCH  21  22
ATOM     22  O   LIG    1       22.878 -21.566   7.025  0.00  0.00    -0.387 OA
ATOM     23  H   LIG    1       22.501 -22.465   7.024  0.00  0.00    +0.210 HD
ENDBRANCH  21  22
BRANCH  21  24
ATOM     24  C   LIG    1       23.566 -20.606   4.910  0.00  0.00    +0.116 C 
BRANCH  24  25
ATOM     25  N   LIG    1       22.255 -19.974   5.124  0.00  0.00    -0.309 NA
ATOM     26  H   LIG    1       22.219 -19.632   6.087  0.00  0.00    +0.122 HD
BRANCH  25  27
ATOM     27  C   LIG    1       21.941 -18.897   4.167  0.00  0.00    +0.011 C 
ATOM     28  C   LIG    1       22.310 -17.533   4.774  0.00  0.00    +0.027 C 
ATOM     29  C   LIG    1       20.459 -18.909   3.754  0.00  0.00    +0.027 C 
ATOM     30  C   LIG    1       22.798 -19.100   2.900  0.00  0.00    +0.027 C 
ENDBRANCH  25  27
ENDBRANCH  24  25
ENDBRANCH  21  24
ENDBRANCH  20  21
ENDBRANCH  19  20
ENDBRANCH   4  19
TORSDOF 11
ENDMDL
