MODEL 1
REMARK VINA RESULT:      -6.1      0.000      0.000
REMARK  Name = *****
REMARK                            x       y       z     vdW  Elec       q    Type
REMARK                         _______ _______ _______ _____ _____    ______ ____
ROOT
ATOM      1  C   LIG    1       25.657 -28.956  11.754  0.00  0.00    +0.086 C 
ATOM      2  C   LIG    1       24.452 -28.861  12.523  0.00  0.00    +0.089 C 
ATOM      3 CL   LIG    1       24.569 -28.575  14.251  0.00  0.00    -0.079 Cl
ATOM      4  C   LIG    1       23.179 -29.300  12.036  0.00  0.00    +0.073 C 
ATOM      5  C   LIG    1       23.171 -30.081  10.869  0.00  0.00    +0.050 C 
ATOM      6  C   LIG    1       21.924 -30.734  10.400  0.00  0.00    +0.203 C 
ATOM      7  C   LIG    1       20.684 -30.523  11.172  0.00  0.00    +0.122 C 
ATOM      8  C   LIG    1       20.773 -29.686  12.217  0.00  0.00    +0.105 C 
ATOM      9  O   LIG    1       21.911 -31.454   9.408  0.00  0.00    -0.286 OA
ATOM     10  C   LIG    1       24.333 -30.303  10.148  0.00  0.00    +0.054 C 
ATOM     11  N   LIG    1       21.913 -29.029  12.655  0.00  0.00    -0.341 NA
ATOM     12  C   LIG    1       25.524 -29.724  10.570  0.00  0.00    +0.146 C 
ATOM     13  F   LIG    1       26.575 -29.968   9.773  0.00  0.00    -0.203 F 
ENDROOT
BRANCH   1  16
ATOM     14  C   LIG    1       26.865 -26.393  13.687  0.00  0.00    +0.068 C 
ATOM     15  C   LIG    1       27.069 -26.937  12.246  0.00  0.00    +0.123 C 
ATOM     16  N   LIG    1       26.891 -28.401  12.123  0.00  0.00    -0.325 NA
ATOM     17  C   LIG    1       28.032 -29.171  12.644  0.00  0.00    +0.105 C 
ATOM     18  C   LIG    1       27.897 -29.548  14.114  0.00  0.00    +0.019 C 
ATOM     19  C   LIG    1       27.410 -28.466  15.074  0.00  0.00    +0.003 C 
ATOM     20  C   LIG    1       27.800 -27.027  14.732  0.00  0.00    +0.020 C 
BRANCH  14  21
ATOM     21  N   LIG    1       27.070 -24.930  13.699  0.00  0.00    -0.326 NA
ATOM     22  H   LIG    1       26.212 -24.484  14.027  0.00  0.00    +0.118 HD
ATOM     23  H   LIG    1       27.781 -24.699  14.393  0.00  0.00    +0.118 HD
ENDBRANCH  14  21
ENDBRANCH   1  16
BRANCH  11  24
ATOM     24  C   LIG    1       21.675 -27.858  13.532  0.00  0.00    +0.087 C 
ATOM     25  C   LIG    1       22.129 -26.453  13.215  0.00  0.00    +0.027 C 
ATOM     26  C   LIG    1       20.677 -26.790  13.130  0.00  0.00    +0.027 C 
ENDBRANCH  11  24
BRANCH   7  27
ATOM     27  C   LIG    1       19.393 -31.139  10.831  0.00  0.00    +0.342 C 
ATOM     28  O   LIG    1       18.889 -32.041  11.484  0.00  0.00    -0.245 OA
BRANCH  27  29
ATOM     29  O   LIG    1       18.801 -30.637   9.728  0.00  0.00    -0.477 OA
ATOM     30  H   LIG    1       19.401 -30.563   8.942  0.00  0.00    +0.295 HD
ENDBRANCH  27  29
ENDBRANCH   7  27
TORSDOF 5
ENDMDL
MODEL 2
REMARK VINA RESULT:      -6.0      2.671      6.000
REMARK  Name = *****
REMARK                            x       y       z     vdW  Elec       q    Type
REMARK                         _______ _______ _______ _____ _____    ______ ____
ROOT
ATOM      1  C   LIG    1       21.749 -28.885  13.096  0.00  0.00    +0.086 C 
ATOM      2  C   LIG    1       23.095 -28.612  12.686  0.00  0.00    +0.089 C 
ATOM      3 CL   LIG    1       23.864 -27.130  13.230  0.00  0.00    -0.079 Cl
ATOM      4  C   LIG    1       23.737 -29.303  11.608  0.00  0.00    +0.073 C 
ATOM      5  C   LIG    1       22.926 -30.087  10.772  0.00  0.00    +0.050 C 
ATOM      6  C   LIG    1       23.470 -30.684   9.528  0.00  0.00    +0.203 C 
ATOM      7  C   LIG    1       24.891 -30.457   9.199  0.00  0.00    +0.122 C 
ATOM      8  C   LIG    1       25.606 -29.774  10.106  0.00  0.00    +0.105 C 
ATOM      9  O   LIG    1       22.763 -31.334   8.766  0.00  0.00    -0.286 OA
ATOM     10  C   LIG    1       21.585 -30.289  11.060  0.00  0.00    +0.054 C 
ATOM     11  N   LIG    1       25.137 -29.240  11.297  0.00  0.00    -0.341 NA
ATOM     12  C   LIG    1       21.037 -29.728  12.207  0.00  0.00    +0.146 C 
ATOM     13  F   LIG    1       19.745 -30.026  12.409  0.00  0.00    -0.203 F 
ENDROOT
BRANCH   1  16
ATOM     14  C   LIG    1       18.878 -27.208  13.938  0.00  0.00    +0.068 C 
ATOM     15  C   LIG    1       20.404 -27.063  14.184  0.00  0.00    +0.123 C 
ATOM     16  N   LIG    1       21.134 -28.349  14.236  0.00  0.00    -0.325 NA
ATOM     17  C   LIG    1       20.935 -29.077  15.500  0.00  0.00    +0.105 C 
ATOM     18  C   LIG    1       19.763 -30.050  15.469  0.00  0.00    +0.019 C 
ATOM     19  C   LIG    1       18.460 -29.558  14.846  0.00  0.00    +0.003 C 
ATOM     20  C   LIG    1       18.155 -28.066  14.993  0.00  0.00    +0.020 C 
BRANCH  14  21
ATOM     21  N   LIG    1       18.249 -25.872  13.909  0.00  0.00    -0.326 NA
ATOM     22  H   LIG    1       18.425 -25.449  12.996  0.00  0.00    +0.118 HD
ATOM     23  H   LIG    1       17.236 -25.979  13.969  0.00  0.00    +0.118 HD
ENDBRANCH  14  21
ENDBRANCH   1  16
BRANCH  11  24
ATOM     24  C   LIG    1       26.176 -28.920  12.304  0.00  0.00    +0.087 C 
ATOM     25  C   LIG    1       27.662 -29.026  12.055  0.00  0.00    +0.027 C 
ATOM     26  C   LIG    1       27.031 -27.677  12.154  0.00  0.00    +0.027 C 
ENDBRANCH  11  24
BRANCH   7  27
ATOM     27  C   LIG    1       25.540 -30.965   7.982  0.00  0.00    +0.342 C 
ATOM     28  O   LIG    1       26.579 -31.610   7.997  0.00  0.00    -0.245 OA
BRANCH  27  29
ATOM     29  O   LIG    1       24.905 -30.659   6.832  0.00  0.00    -0.477 OA
ATOM     30  H   LIG    1       24.193 -29.975   6.930  0.00  0.00    +0.295 HD
ENDBRANCH  27  29
ENDBRANCH   7  27
TORSDOF 5
ENDMDL
MODEL 3
REMARK VINA RESULT:      -6.0      3.252      4.439
REMARK  Name = *****
REMARK                            x       y       z     vdW  Elec       q    Type
REMARK                         _______ _______ _______ _____ _____    ______ ____
ROOT
ATOM      1  C   LIG    1       23.726 -29.416  12.244  0.00  0.00    +0.086 C 
ATOM      2  C   LIG    1       22.366 -29.868  12.217  0.00  0.00    +0.089 C 
ATOM      3 CL   LIG    1       21.871 -30.991  10.961  0.00  0.00    -0.079 Cl
ATOM      4  C   LIG    1       21.315 -29.223  12.944  0.00  0.00    +0.073 C 
ATOM      5  C   LIG    1       21.592 -27.959  13.490  0.00  0.00    +0.050 C 
ATOM      6  C   LIG    1       20.513 -27.139  14.093  0.00  0.00    +0.203 C 
ATOM      7  C   LIG    1       19.145 -27.691  14.132  0.00  0.00    +0.122 C 
ATOM      8  C   LIG    1       18.999 -28.943  13.672  0.00  0.00    +0.105 C 
ATOM      9  O   LIG    1       20.730 -26.016  14.533  0.00  0.00    -0.286 OA
ATOM     10  C   LIG    1       22.868 -27.421  13.439  0.00  0.00    +0.054 C 
ATOM     11  N   LIG    1       19.994 -29.749  13.140  0.00  0.00    -0.341 NA
ATOM     12  C   LIG    1       23.900 -28.153  12.863  0.00  0.00    +0.146 C 
ATOM     13  F   LIG    1       25.099 -27.556  12.910  0.00  0.00    -0.203 F 
ENDROOT
BRANCH   1  16
ATOM     14  C   LIG    1       26.517 -28.740  10.368  0.00  0.00    +0.068 C 
ATOM     15  C   LIG    1       25.332 -29.744  10.340  0.00  0.00    +0.123 C 
ATOM     16  N   LIG    1       24.811 -30.101  11.678  0.00  0.00    -0.325 NA
ATOM     17  C   LIG    1       25.676 -31.043  12.405  0.00  0.00    +0.105 C 
ATOM     18  C   LIG    1       26.717 -30.365  13.287  0.00  0.00    +0.019 C 
ATOM     19  C   LIG    1       27.479 -29.184  12.691  0.00  0.00    +0.003 C 
ATOM     20  C   LIG    1       27.729 -29.227  11.182  0.00  0.00    +0.020 C 
BRANCH  14  21
ATOM     21  N   LIG    1       26.961 -28.457   8.988  0.00  0.00    -0.326 NA
ATOM     22  H   LIG    1       26.549 -27.572   8.688  0.00  0.00    +0.118 HD
ATOM     23  H   LIG    1       27.970 -28.302   8.987  0.00  0.00    +0.118 HD
ENDBRANCH  14  21
ENDBRANCH   1  16
BRANCH  11  24
ATOM     24  C   LIG    1       19.688 -31.199  13.106  0.00  0.00    +0.087 C 
ATOM     25  C   LIG    1       18.379 -31.802  13.556  0.00  0.00    +0.027 C 
ATOM     26  C   LIG    1       18.698 -31.750  12.099  0.00  0.00    +0.027 C 
ENDBRANCH  11  24
BRANCH   7  27
ATOM     27  C   LIG    1       17.985 -26.967  14.672  0.00  0.00    +0.342 C 
ATOM     28  O   LIG    1       17.212 -27.453  15.485  0.00  0.00    -0.245 OA
BRANCH  27  29
ATOM     29  O   LIG    1       17.827 -25.715  14.195  0.00  0.00    -0.477 OA
ATOM     30  H   LIG    1       17.589 -25.673  13.232  0.00  0.00    +0.295 HD
ENDBRANCH  27  29
ENDBRANCH   7  27
TORSDOF 5
ENDMDL
MODEL 4
REMARK VINA RESULT:      -5.9      2.731      3.783
REMARK  Name = *****
REMARK                            x       y       z     vdW  Elec       q    Type
REMARK                         _______ _______ _______ _____ _____    ______ ____
ROOT
ATOM      1  C   LIG    1       25.264 -28.907  12.320  0.00  0.00    +0.086 C 
ATOM      2  C   LIG    1       24.347 -29.972  12.038  0.00  0.00    +0.089 C 
ATOM      3 CL   LIG    1       23.835 -31.020  13.351  0.00  0.00    -0.079 Cl
ATOM      4  C   LIG    1       24.072 -30.435  10.711  0.00  0.00    +0.073 C 
ATOM      5  C   LIG    1       24.928 -29.996   9.687  0.00  0.00    +0.050 C 
ATOM      6  C   LIG    1       24.835 -30.569   8.322  0.00  0.00    +0.203 C 
ATOM      7  C   LIG    1       23.806 -31.593   8.055  0.00  0.00    +0.122 C 
ATOM      8  C   LIG    1       22.976 -31.877   9.071  0.00  0.00    +0.105 C 
ATOM      9  O   LIG    1       25.603 -30.228   7.430  0.00  0.00    -0.286 OA
ATOM     10  C   LIG    1       25.912 -29.051   9.931  0.00  0.00    +0.054 C 
ATOM     11  N   LIG    1       23.012 -31.329  10.345  0.00  0.00    -0.341 NA
ATOM     12  C   LIG    1       26.041 -28.507  11.204  0.00  0.00    +0.146 C 
ATOM     13  F   LIG    1       26.994 -27.571  11.315  0.00  0.00    -0.203 F 
ENDROOT
BRANCH   1  16
ATOM     14  C   LIG    1       27.753 -27.389  14.126  0.00  0.00    +0.068 C 
ATOM     15  C   LIG    1       26.701 -28.510  14.342  0.00  0.00    +0.123 C 
ATOM     16  N   LIG    1       25.447 -28.318  13.579  0.00  0.00    -0.325 NA
ATOM     17  C   LIG    1       24.567 -27.292  14.159  0.00  0.00    +0.105 C 
ATOM     18  C   LIG    1       24.805 -25.894  13.602  0.00  0.00    +0.019 C 
ATOM     19  C   LIG    1       26.253 -25.434  13.457  0.00  0.00    +0.003 C 
ATOM     20  C   LIG    1       27.247 -25.980  14.485  0.00  0.00    +0.020 C 
BRANCH  14  21
ATOM     21  N   LIG    1       28.957 -27.674  14.933  0.00  0.00    -0.326 NA
ATOM     22  H   LIG    1       29.199 -26.837  15.465  0.00  0.00    +0.118 HD
ATOM     23  H   LIG    1       28.731 -28.384  15.630  0.00  0.00    +0.118 HD
ENDBRANCH  14  21
ENDBRANCH   1  16
BRANCH  11  24
ATOM     24  C   LIG    1       21.765 -31.471  11.133  0.00  0.00    +0.087 C 
ATOM     25  C   LIG    1       20.839 -30.327  11.472  0.00  0.00    +0.027 C 
ATOM     26  C   LIG    1       20.413 -31.338  10.460  0.00  0.00    +0.027 C 
ENDBRANCH  11  24
BRANCH   7  27
ATOM     27  C   LIG    1       23.633 -32.260   6.756  0.00  0.00    +0.342 C 
ATOM     28  O   LIG    1       23.749 -33.467   6.604  0.00  0.00    -0.245 OA
BRANCH  27  29
ATOM     29  O   LIG    1       23.340 -31.434   5.731  0.00  0.00    -0.477 OA
ATOM     30  H   LIG    1       23.693 -31.736   4.853  0.00  0.00    +0.295 HD
ENDBRANCH  27  29
ENDBRANCH   7  27
TORSDOF 5
ENDMDL
MODEL 5
REMARK VINA RESULT:      -5.9      3.057      4.624
REMARK  Name = *****
REMARK                            x       y       z     vdW  Elec       q    Type
REMARK                         _______ _______ _______ _____ _____    ______ ____
ROOT
ATOM      1  C   LIG    1       23.967 -30.519  10.026  0.00  0.00    +0.086 C 
ATOM      2  C   LIG    1       23.552 -29.772  11.177  0.00  0.00    +0.089 C 
ATOM      3 CL   LIG    1       24.777 -29.077  12.225  0.00  0.00    -0.079 Cl
ATOM      4  C   LIG    1       22.221 -29.827  11.704  0.00  0.00    +0.073 C 
ATOM      5  C   LIG    1       21.380 -30.844  11.223  0.00  0.00    +0.050 C 
ATOM      6  C   LIG    1       20.057 -31.093  11.845  0.00  0.00    +0.203 C 
ATOM      7  C   LIG    1       19.630 -30.231  12.964  0.00  0.00    +0.122 C 
ATOM      8  C   LIG    1       20.461 -29.228  13.289  0.00  0.00    +0.105 C 
ATOM      9  O   LIG    1       19.330 -32.004  11.465  0.00  0.00    -0.286 OA
ATOM     10  C   LIG    1       21.779 -31.673  10.187  0.00  0.00    +0.054 C 
ATOM     11  N   LIG    1       21.684 -28.946  12.701  0.00  0.00    -0.341 NA
ATOM     12  C   LIG    1       23.022 -31.482   9.594  0.00  0.00    +0.146 C 
ATOM     13  F   LIG    1       23.284 -32.311   8.573  0.00  0.00    -0.203 F 
ENDROOT
BRANCH   1  16
ATOM     14  C   LIG    1       26.405 -32.504   8.654  0.00  0.00    +0.068 C 
ATOM     15  C   LIG    1       26.320 -31.317   9.652  0.00  0.00    +0.123 C 
ATOM     16  N   LIG    1       25.206 -30.380   9.384  0.00  0.00    -0.325 NA
ATOM     17  C   LIG    1       25.461 -29.486   8.243  0.00  0.00    +0.105 C 
ATOM     18  C   LIG    1       24.966 -30.035   6.912  0.00  0.00    +0.019 C 
ATOM     19  C   LIG    1       25.258 -31.502   6.605  0.00  0.00    +0.003 C 
ATOM     20  C   LIG    1       26.554 -32.073   7.184  0.00  0.00    +0.020 C 
BRANCH  14  21
ATOM     21  N   LIG    1       27.548 -33.369   9.008  0.00  0.00    -0.326 NA
ATOM     22  H   LIG    1       28.237 -33.323   8.255  0.00  0.00    +0.118 HD
ATOM     23  H   LIG    1       28.016 -32.986   9.829  0.00  0.00    +0.118 HD
ENDBRANCH  14  21
ENDBRANCH   1  16
BRANCH  11  24
ATOM     24  C   LIG    1       22.198 -27.574  12.929  0.00  0.00    +0.087 C 
ATOM     25  C   LIG    1       21.480 -26.521  13.739  0.00  0.00    +0.027 C 
ATOM     26  C   LIG    1       22.706 -27.164  14.297  0.00  0.00    +0.027 C 
ENDBRANCH  11  24
BRANCH   7  27
ATOM     27  C   LIG    1       18.359 -30.395  13.685  0.00  0.00    +0.342 C 
ATOM     28  O   LIG    1       18.294 -30.651  14.878  0.00  0.00    -0.245 OA
BRANCH  27  29
ATOM     29  O   LIG    1       17.254 -30.248  12.924  0.00  0.00    -0.477 OA
ATOM     30  H   LIG    1       17.060 -29.310  12.665  0.00  0.00    +0.295 HD
ENDBRANCH  27  29
ENDBRANCH   7  27
TORSDOF 5
ENDMDL
MODEL 6
REMARK VINA RESULT:      -5.8      4.092      6.158
REMARK  Name = *****
REMARK                            x       y       z     vdW  Elec       q    Type
REMARK                         _______ _______ _______ _____ _____    ______ ____
ROOT
ATOM      1  C   LIG    1       25.106 -30.777   9.745  0.00  0.00    +0.086 C 
ATOM      2  C   LIG    1       24.126 -30.188  10.610  0.00  0.00    +0.089 C 
ATOM      3 CL   LIG    1       22.426 -30.363  10.209  0.00  0.00    -0.079 Cl
ATOM      4  C   LIG    1       24.449 -29.199  11.594  0.00  0.00    +0.073 C 
ATOM      5  C   LIG    1       25.723 -28.613  11.524  0.00  0.00    +0.050 C 
ATOM      6  C   LIG    1       26.074 -27.454  12.381  0.00  0.00    +0.203 C 
ATOM      7  C   LIG    1       25.064 -26.945  13.328  0.00  0.00    +0.122 C 
ATOM      8  C   LIG    1       23.911 -27.630  13.389  0.00  0.00    +0.105 C 
ATOM      9  O   LIG    1       27.167 -26.904  12.300  0.00  0.00    -0.286 OA
ATOM     10  C   LIG    1       26.672 -29.069  10.623  0.00  0.00    +0.054 C 
ATOM     11  N   LIG    1       23.569 -28.740  12.631  0.00  0.00    -0.341 NA
ATOM     12  C   LIG    1       26.371 -30.140   9.791  0.00  0.00    +0.146 C 
ATOM     13  F   LIG    1       27.377 -30.525   8.993  0.00  0.00    -0.203 F 
ENDROOT
BRANCH   1  16
ATOM     14  C   LIG    1       25.691 -31.645   6.478  0.00  0.00    +0.068 C 
ATOM     15  C   LIG    1       24.490 -31.632   7.464  0.00  0.00    +0.123 C 
ATOM     16  N   LIG    1       24.867 -31.853   8.878  0.00  0.00    -0.325 NA
ATOM     17  C   LIG    1       25.184 -33.258   9.182  0.00  0.00    +0.105 C 
ATOM     18  C   LIG    1       26.658 -33.604   9.014  0.00  0.00    +0.019 C 
ATOM     19  C   LIG    1       27.363 -33.083   7.764  0.00  0.00    +0.003 C 
ATOM     20  C   LIG    1       26.505 -32.951   6.504  0.00  0.00    +0.020 C 
BRANCH  14  21
ATOM     21  N   LIG    1       25.205 -31.422   5.101  0.00  0.00    -0.326 NA
ATOM     22  H   LIG    1       24.244 -31.080   5.146  0.00  0.00    +0.118 HD
ATOM     23  H   LIG    1       25.744 -30.667   4.676  0.00  0.00    +0.118 HD
ENDBRANCH  14  21
ENDBRANCH   1  16
BRANCH  11  24
ATOM     24  C   LIG    1       22.456 -29.558  13.168  0.00  0.00    +0.087 C 
ATOM     25  C   LIG    1       21.654 -29.200  14.397  0.00  0.00    +0.027 C 
ATOM     26  C   LIG    1       21.024 -29.074  13.050  0.00  0.00    +0.027 C 
ENDBRANCH  11  24
BRANCH   7  27
ATOM     27  C   LIG    1       25.276 -25.785  14.207  0.00  0.00    +0.342 C 
ATOM     28  O   LIG    1       25.072 -25.812  15.412  0.00  0.00    -0.245 OA
BRANCH  27  29
ATOM     29  O   LIG    1       25.711 -24.673  13.580  0.00  0.00    -0.477 OA
ATOM     30  H   LIG    1       26.493 -24.241  14.012  0.00  0.00    +0.295 HD
ENDBRANCH  27  29
ENDBRANCH   7  27
TORSDOF 5
ENDMDL
MODEL 7
REMARK VINA RESULT:      -5.7      3.986      7.284
REMARK  Name = *****
REMARK                            x       y       z     vdW  Elec       q    Type
REMARK                         _______ _______ _______ _____ _____    ______ ____
ROOT
ATOM      1  C   LIG    1       22.283 -28.550  12.683  0.00  0.00    +0.086 C 
ATOM      2  C   LIG    1       23.652 -28.946  12.839  0.00  0.00    +0.089 C 
ATOM      3 CL   LIG    1       24.020 -30.642  13.106  0.00  0.00    -0.079 Cl
ATOM      4  C   LIG    1       24.706 -28.016  13.111  0.00  0.00    +0.073 C 
ATOM      5  C   LIG    1       24.335 -26.715  13.489  0.00  0.00    +0.050 C 
ATOM      6  C   LIG    1       25.350 -25.745  13.970  0.00  0.00    +0.203 C 
ATOM      7  C   LIG    1       26.763 -26.168  14.018  0.00  0.00    +0.122 C 
ATOM      8  C   LIG    1       27.029 -27.397  13.548  0.00  0.00    +0.105 C 
ATOM      9  O   LIG    1       25.036 -24.621  14.345  0.00  0.00    -0.286 OA
ATOM     10  C   LIG    1       23.009 -26.314  13.469  0.00  0.00    +0.054 C 
ATOM     11  N   LIG    1       26.110 -28.310  13.054  0.00  0.00    -0.341 NA
ATOM     12  C   LIG    1       22.029 -27.204  13.043  0.00  0.00    +0.146 C 
ATOM     13  F   LIG    1       20.788 -26.695  13.021  0.00  0.00    -0.203 F 
ENDROOT
BRANCH   1  16
ATOM     14  C   LIG    1       21.880 -31.490  10.961  0.00  0.00    +0.068 C 
ATOM     15  C   LIG    1       21.281 -30.057  10.940  0.00  0.00    +0.123 C 
ATOM     16  N   LIG    1       21.246 -29.396  12.263  0.00  0.00    -0.325 NA
ATOM     17  C   LIG    1       20.174 -29.900  13.136  0.00  0.00    +0.105 C 
ATOM     18  C   LIG    1       20.601 -31.061  14.024  0.00  0.00    +0.019 C 
ATOM     19  C   LIG    1       21.426 -32.172  13.379  0.00  0.00    +0.003 C 
ATOM     20  C   LIG    1       21.144 -32.459  11.903  0.00  0.00    +0.020 C 
BRANCH  14  21
ATOM     21  N   LIG    1       21.862 -32.057   9.598  0.00  0.00    -0.326 NA
ATOM     22  H   LIG    1       21.810 -33.074   9.668  0.00  0.00    +0.118 HD
ATOM     23  H   LIG    1       21.003 -31.771   9.128  0.00  0.00    +0.118 HD
ENDBRANCH  14  21
ENDBRANCH   1  16
BRANCH  11  24
ATOM     24  C   LIG    1       26.676 -29.393  12.216  0.00  0.00    +0.087 C 
ATOM     25  C   LIG    1       26.596 -29.432  10.709  0.00  0.00    +0.027 C 
ATOM     26  C   LIG    1       27.904 -29.140  11.364  0.00  0.00    +0.027 C 
ENDBRANCH  11  24
BRANCH   7  27
ATOM     27  C   LIG    1       27.856 -25.314  14.504  0.00  0.00    +0.342 C 
ATOM     28  O   LIG    1       28.758 -25.724  15.220  0.00  0.00    -0.245 OA
BRANCH  27  29
ATOM     29  O   LIG    1       27.789 -24.027  14.105  0.00  0.00    -0.477 OA
ATOM     30  H   LIG    1       28.455 -23.432  14.538  0.00  0.00    +0.295 HD
ENDBRANCH  27  29
ENDBRANCH   7  27
TORSDOF 5
ENDMDL
MODEL 8
REMARK VINA RESULT:      -5.4      3.117      5.119
REMARK  Name = *****
REMARK                            x       y       z     vdW  Elec       q    Type
REMARK                         _______ _______ _______ _____ _____    ______ ____
ROOT
ATOM      1  C   LIG    1       23.457 -30.999   9.758  0.00  0.00    +0.086 C 
ATOM      2  C   LIG    1       23.391 -30.139  10.903  0.00  0.00    +0.089 C 
ATOM      3 CL   LIG    1       24.886 -29.636  11.674  0.00  0.00    -0.079 Cl
ATOM      4  C   LIG    1       22.188 -29.926  11.650  0.00  0.00    +0.073 C 
ATOM      5  C   LIG    1       21.111 -30.791  11.395  0.00  0.00    +0.050 C 
ATOM      6  C   LIG    1       19.898 -30.765  12.248  0.00  0.00    +0.203 C 
ATOM      7  C   LIG    1       19.835 -29.792  13.356  0.00  0.00    +0.122 C 
ATOM      8  C   LIG    1       20.871 -28.945  13.460  0.00  0.00    +0.105 C 
ATOM      9  O   LIG    1       18.968 -31.543  12.066  0.00  0.00    -0.286 OA
ATOM     10  C   LIG    1       21.168 -31.724  10.372  0.00  0.00    +0.054 C 
ATOM     11  N   LIG    1       21.999 -28.918  12.654  0.00  0.00    -0.341 NA
ATOM     12  C   LIG    1       22.298 -31.790   9.565  0.00  0.00    +0.146 C 
ATOM     13  F   LIG    1       22.225 -32.696   8.580  0.00  0.00    -0.203 F 
ENDROOT
BRANCH   1  16
ATOM     14  C   LIG    1       24.123 -31.325   6.409  0.00  0.00    +0.068 C 
ATOM     15  C   LIG    1       24.540 -32.019   7.734  0.00  0.00    +0.123 C 
ATOM     16  N   LIG    1       24.566 -31.118   8.907  0.00  0.00    -0.325 NA
ATOM     17  C   LIG    1       25.737 -30.228   8.930  0.00  0.00    +0.105 C 
ATOM     18  C   LIG    1       25.503 -28.889   8.242  0.00  0.00    +0.019 C 
ATOM     19  C   LIG    1       24.786 -28.908   6.895  0.00  0.00    +0.003 C 
ATOM     20  C   LIG    1       25.021 -30.138   6.017  0.00  0.00    +0.020 C 
BRANCH  14  21
ATOM     21  N   LIG    1       24.136 -32.308   5.307  0.00  0.00    -0.326 NA
ATOM     22  H   LIG    1       23.192 -32.381   4.924  0.00  0.00    +0.118 HD
ATOM     23  H   LIG    1       24.712 -31.948   4.546  0.00  0.00    +0.118 HD
ENDBRANCH  14  21
ENDBRANCH   1  16
BRANCH  11  24
ATOM     24  C   LIG    1       22.775 -27.655  12.688  0.00  0.00    +0.087 C 
ATOM     25  C   LIG    1       22.362 -26.425  13.460  0.00  0.00    +0.027 C 
ATOM     26  C   LIG    1       23.511 -27.243  13.947  0.00  0.00    +0.027 C 
ENDBRANCH  11  24
BRANCH   7  27
ATOM     27  C   LIG    1       18.704 -29.688  14.291  0.00  0.00    +0.342 C 
ATOM     28  O   LIG    1       18.822 -29.825  15.500  0.00  0.00    -0.245 OA
BRANCH  27  29
ATOM     29  O   LIG    1       17.513 -29.435  13.712  0.00  0.00    -0.477 OA
ATOM     30  H   LIG    1       16.730 -29.647  14.284  0.00  0.00    +0.295 HD
ENDBRANCH  27  29
ENDBRANCH   7  27
TORSDOF 5
ENDMDL
MODEL 9
REMARK VINA RESULT:      -5.2      3.851      7.399
REMARK  Name = *****
REMARK                            x       y       z     vdW  Elec       q    Type
REMARK                         _______ _______ _______ _____ _____    ______ ____
ROOT
ATOM      1  C   LIG    1       23.148 -29.742  13.094  0.00  0.00    +0.086 C 
ATOM      2  C   LIG    1       24.490 -29.761  13.596  0.00  0.00    +0.089 C 
ATOM      3 CL   LIG    1       25.046 -31.174  14.477  0.00  0.00    -0.079 Cl
ATOM      4  C   LIG    1       25.298 -28.584  13.707  0.00  0.00    +0.073 C 
ATOM      5  C   LIG    1       24.654 -27.345  13.557  0.00  0.00    +0.050 C 
ATOM      6  C   LIG    1       25.370 -26.077  13.840  0.00  0.00    +0.203 C 
ATOM      7  C   LIG    1       26.784 -26.144  14.258  0.00  0.00    +0.122 C 
ATOM      8  C   LIG    1       27.337 -27.366  14.281  0.00  0.00    +0.105 C 
ATOM      9  O   LIG    1       24.809 -24.991  13.757  0.00  0.00    -0.286 OA
ATOM     10  C   LIG    1       23.321 -27.271  13.185  0.00  0.00    +0.054 C 
ATOM     11  N   LIG    1       26.706 -28.564  13.983  0.00  0.00    -0.341 NA
ATOM     12  C   LIG    1       22.612 -28.440  12.932  0.00  0.00    +0.146 C 
ATOM     13  F   LIG    1       21.346 -28.248  12.536  0.00  0.00    -0.203 F 
ENDROOT
BRANCH   1  16
ATOM     14  C   LIG    1       19.861 -30.722  13.184  0.00  0.00    +0.068 C 
ATOM     15  C   LIG    1       21.232 -31.258  13.682  0.00  0.00    +0.123 C 
ATOM     16  N   LIG    1       22.376 -30.881  12.822  0.00  0.00    -0.325 NA
ATOM     17  C   LIG    1       22.450 -31.664  11.578  0.00  0.00    +0.105 C 
ATOM     18  C   LIG    1       21.708 -31.029  10.410  0.00  0.00    +0.019 C 
ATOM     19  C   LIG    1       20.317 -30.464  10.685  0.00  0.00    +0.003 C 
ATOM     20  C   LIG    1       19.494 -31.176  11.760  0.00  0.00    +0.020 C 
BRANCH  14  21
ATOM     21  N   LIG    1       18.793 -31.157  14.106  0.00  0.00    -0.326 NA
ATOM     22  H   LIG    1       17.892 -31.030  13.644  0.00  0.00    +0.118 HD
ATOM     23  H   LIG    1       18.879 -32.161  14.266  0.00  0.00    +0.118 HD
ENDBRANCH  14  21
ENDBRANCH   1  16
BRANCH  11  24
ATOM     24  C   LIG    1       27.608 -29.696  13.664  0.00  0.00    +0.087 C 
ATOM     25  C   LIG    1       29.116 -29.623  13.719  0.00  0.00    +0.027 C 
ATOM     26  C   LIG    1       28.383 -30.392  14.766  0.00  0.00    +0.027 C 
ENDBRANCH  11  24
BRANCH   7  27
ATOM     27  C   LIG    1       27.593 -24.964  14.599  0.00  0.00    +0.342 C 
ATOM     28  O   LIG    1       28.650 -25.031  15.210  0.00  0.00    -0.245 OA
BRANCH  27  29
ATOM     29  O   LIG    1       27.076 -23.787  14.191  0.00  0.00    -0.477 OA
ATOM     30  H   LIG    1       27.708 -23.222  13.675  0.00  0.00    +0.295 HD
ENDBRANCH  27  29
ENDBRANCH   7  27
TORSDOF 5
ENDMDL
