MODEL 1
REMARK VINA RESULT:       3.9      0.000      0.000
REMARK  Name = *****
REMARK                            x       y       z     vdW  Elec       q    Type
REMARK                         _______ _______ _______ _____ _____    ______ ____
ROOT
ATOM      1  C   LIG    1       27.046 -12.910   3.527  0.00  0.00    +0.036 C 
ATOM      2  C   LIG    1       25.955 -13.951   2.455  0.00  0.00    +0.004 C 
ATOM      3  C   LIG    1       24.207 -14.653   3.068  0.00  0.00    +0.039 C 
ATOM      4  C   LIG    1       23.453 -14.020   4.171  0.00  0.00    +0.066 C 
ATOM      5  C   LIG    1       22.535 -15.498   3.595  0.00  0.00    +0.035 C 
ATOM      6  C   LIG    1       23.825 -16.694   3.385  0.00  0.00    +0.045 C 
ATOM      7  C   LIG    1       25.503 -16.279   3.174  0.00  0.00    +0.103 C 
ATOM      8  C   LIG    1       25.797 -14.576   4.115  0.00  0.00    +0.081 C 
ATOM      9  N   LIG    1       26.210 -17.488   3.653  0.00  0.00    -0.327 N 
ATOM     10  C   LIG    1       27.545 -17.467   4.194  0.00  0.00    +0.130 C 
ATOM     11  C   LIG    1       25.280 -18.520   3.847  0.00  0.00    +0.034 A 
ATOM     12  C   LIG    1       25.568 -19.830   4.196  0.00  0.00    +0.023 A 
ATOM     13  C   LIG    1       24.520 -20.746   4.351  0.00  0.00    +0.002 A 
ATOM     14  C   LIG    1       23.186 -20.355   4.166  0.00  0.00    +0.000 A 
ATOM     15  C   LIG    1       22.874 -19.040   3.828  0.00  0.00    +0.006 A 
ATOM     16  C   LIG    1       23.917 -18.141   3.677  0.00  0.00    -0.016 A 
ATOM     17  N   LIG    1       24.929 -13.899   5.118  0.00  0.00    -0.269 NA
ATOM     18  C   LIG    1       24.167 -15.976   4.554  0.00  0.00    +0.132 C 
ATOM     19  C   LIG    1       25.137 -13.034   3.051  0.00  0.00    +0.025 C 
ATOM     20  C   LIG    1       26.064 -12.799   5.100  0.00  0.00    +0.189 C 
ENDROOT
BRANCH   1  22
ATOM     21  C   LIG    1       29.430 -12.260   4.084  0.00  0.00    +0.004 C 
ATOM     22  C   LIG    1       28.504 -13.391   3.664  0.00  0.00    +0.004 C 
ENDBRANCH   1  22
BRANCH  18  23
ATOM     23  O   LIG    1       23.211 -16.045   5.655  0.00  0.00    -0.391 OA
ATOM     24  H   LIG    1       22.355 -15.771   5.279  0.00  0.00    +0.210 HD
ENDBRANCH  18  23
BRANCH  20  25
ATOM     25  O   LIG    1       25.521 -11.531   5.368  0.00  0.00    -0.377 OA
ATOM     26  H   LIG    1       25.691 -11.048   4.540  0.00  0.00    +0.211 HD
ENDBRANCH  20  25
TORSDOF 3
ENDMDL
