MODEL 1
REMARK VINA RESULT:       1.8      0.000      0.000
REMARK  Name = *****
REMARK                            x       y       z     vdW  Elec       q    Type
REMARK                         _______ _______ _______ _____ _____    ______ ____
ROOT
ATOM      1  C   LIG    1       25.308 -13.441   4.612  0.00  0.00    +0.129 C 
ATOM      2  C   LIG    1       26.163 -14.365   3.686  0.00  0.00    +0.007 C 
ATOM      3  C   LIG    1       26.527 -13.683   2.351  0.00  0.00    +0.014 C 
ATOM      4  C   LIG    1       25.227 -15.577   3.457  0.00  0.00    +0.005 C 
ATOM      5  C   LIG    1       25.926 -16.855   2.926  0.00  0.00    +0.019 C 
ATOM      6  C   LIG    1       27.278 -17.221   3.579  0.00  0.00    +0.004 C 
ATOM      7  C   LIG    1       28.169 -15.974   3.692  0.00  0.00    +0.005 C 
ATOM      8  C   LIG    1       27.091 -18.024   4.896  0.00  0.00    +0.024 C 
ATOM      9  C   LIG    1       26.185 -19.247   4.681  0.00  0.00    -0.038 C 
ATOM     10  C   LIG    1       26.372 -20.386   5.373  0.00  0.00    +0.050 C 
ATOM     11  C   LIG    1       27.418 -20.519   6.414  0.00  0.00    +0.156 C 
ATOM     12  O   LIG    1       27.514 -21.572   7.041  0.00  0.00    -0.293 OA
ATOM     13  C   LIG    1       28.274 -19.322   6.725  0.00  0.00    +0.079 C 
ATOM     14  C   LIG    1       25.101 -19.121   3.692  0.00  0.00    -0.051 C 
ATOM     15  C   LIG    1       24.078 -20.223   3.560  0.00  0.00    +0.044 C 
ATOM     16  C   LIG    1       28.449 -18.448   5.494  0.00  0.00    +0.016 C 
ATOM     17  C   LIG    1       24.985 -18.027   2.918  0.00  0.00    -0.019 C 
ATOM     18  C   LIG    1       24.415 -15.719   4.762  0.00  0.00    +0.008 C 
ATOM     19  C   LIG    1       27.475 -14.810   4.391  0.00  0.00    +0.010 C 
ATOM     20  C   LIG    1       24.628 -14.435   5.566  0.00  0.00    +0.043 C 
ENDROOT
BRANCH   1  22
ATOM     21  C   LIG    1       23.596 -11.458   4.591  0.00  0.00    +0.089 C 
ATOM     22  C   LIG    1       24.224 -12.620   3.859  0.00  0.00    +0.162 C 
ATOM     23  O   LIG    1       23.866 -12.893   2.710  0.00  0.00    -0.295 OA
ENDBRANCH   1  22
BRANCH   1  24
ATOM     24  O   LIG    1       26.141 -12.565   5.366  0.00  0.00    -0.381 OA
ATOM     25  H   LIG    1       26.898 -13.080   5.697  0.00  0.00    +0.211 HD
ENDBRANCH   1  24
TORSDOF 2
ENDMDL
