MODEL 1
REMARK VINA RESULT:      -8.5      0.000      0.000
REMARK  Name = *****
REMARK                            x       y       z     vdW  Elec       q    Type
REMARK                         _______ _______ _______ _____ _____    ______ ____
ROOT
ATOM      1  C   LIG    1       29.042 -20.017   6.649  0.00  0.00    +0.162 A 
ATOM      2  C   LIG    1       27.699 -19.957   6.325  0.00  0.00    +0.167 A 
ATOM      3  O   LIG    1       27.118 -19.340   5.208  0.00  0.00    -0.476 OA
ATOM      4  C   LIG    1       26.038 -20.258   4.950  0.00  0.00    +0.250 C 
ATOM      5  C   LIG    1       25.420 -20.464   6.652  0.00  0.00    +0.049 C 
ATOM      6  C   LIG    1       24.147 -21.508   7.216  0.00  0.00    +0.021 C 
ATOM      7  C   LIG    1       24.834 -22.847   7.393  0.00  0.00    +0.065 C 
ATOM      8  N   LIG    1       25.284 -23.117   6.039  0.00  0.00    -0.302 NA
ATOM      9  C   LIG    1       24.673 -22.157   5.096  0.00  0.00    +0.085 C 
ATOM     10  C   LIG    1       25.146 -24.511   5.646  0.00  0.00    +0.105 C 
ATOM     11  C   LIG    1       26.064 -22.722   8.374  0.00  0.00    +0.054 C 
ATOM     12  C   LIG    1       27.132 -21.735   7.925  0.00  0.00    -0.038 A 
ATOM     13  C   LIG    1       28.481 -21.811   8.261  0.00  0.00    +0.008 A 
ATOM     14  C   LIG    1       22.641 -21.541   6.030  0.00  0.00    +0.014 C 
ATOM     15  C   LIG    1       22.904 -20.777   4.300  0.00  0.00    +0.078 C 
ATOM     16  C   LIG    1       24.399 -20.301   5.767  0.00  0.00    +0.031 C 
ATOM     17  C   LIG    1       24.611 -20.258   3.649  0.00  0.00    +0.174 C 
ATOM     18  O   LIG    1       24.768 -19.885   2.489  0.00  0.00    -0.293 OA
ATOM     19  C   LIG    1       26.779 -20.735   7.037  0.00  0.00    +0.012 A 
ATOM     20  C   LIG    1       29.414 -20.940   7.648  0.00  0.00    +0.050 A 
ENDROOT
BRANCH   1  22
ATOM     21  C   LIG    1       31.245 -19.172   6.887  0.00  0.00    +0.277 C 
ATOM     22  O   LIG    1       30.079 -19.334   6.087  0.00  0.00    -0.491 OA
ENDBRANCH   1  22
TORSDOF 1
ENDMDL
MODEL 2
REMARK VINA RESULT:      -6.2      7.641     10.079
REMARK  Name = *****
REMARK                            x       y       z     vdW  Elec       q    Type
REMARK                         _______ _______ _______ _____ _____    ______ ____
ROOT
ATOM      1  C   LIG    1       24.958 -27.622   6.288  0.00  0.00    +0.162 A 
ATOM      2  C   LIG    1       24.381 -28.795   6.738  0.00  0.00    +0.167 A 
ATOM      3  O   LIG    1       23.533 -29.657   6.027  0.00  0.00    -0.476 OA
ATOM      4  C   LIG    1       23.963 -30.924   6.557  0.00  0.00    +0.250 C 
ATOM      5  C   LIG    1       24.010 -30.496   8.328  0.00  0.00    +0.049 C 
ATOM      6  C   LIG    1       24.527 -31.487   9.662  0.00  0.00    +0.021 C 
ATOM      7  C   LIG    1       26.034 -31.323   9.668  0.00  0.00    +0.065 C 
ATOM      8  N   LIG    1       26.382 -31.840   8.357  0.00  0.00    -0.302 NA
ATOM      9  C   LIG    1       25.215 -32.510   7.745  0.00  0.00    +0.085 C 
ATOM     10  C   LIG    1       27.599 -32.638   8.350  0.00  0.00    +0.105 C 
ATOM     11  C   LIG    1       26.432 -29.800   9.788  0.00  0.00    +0.054 C 
ATOM     12  C   LIG    1       25.897 -28.917   8.669  0.00  0.00    -0.038 A 
ATOM     13  C   LIG    1       26.491 -27.738   8.229  0.00  0.00    +0.008 A 
ATOM     14  C   LIG    1       23.930 -33.302   9.506  0.00  0.00    +0.014 C 
ATOM     15  C   LIG    1       23.231 -33.825   7.809  0.00  0.00    +0.078 C 
ATOM     16  C   LIG    1       23.430 -31.710   8.125  0.00  0.00    +0.031 C 
ATOM     17  C   LIG    1       23.358 -32.734   6.260  0.00  0.00    +0.174 C 
ATOM     18  O   LIG    1       23.011 -33.146   5.155  0.00  0.00    -0.293 OA
ATOM     19  C   LIG    1       24.792 -29.347   7.957  0.00  0.00    +0.012 A 
ATOM     20  C   LIG    1       26.004 -27.089   7.069  0.00  0.00    +0.050 A 
ENDROOT
BRANCH   1  22
ATOM     21  C   LIG    1       25.154 -25.586   5.088  0.00  0.00    +0.277 C 
ATOM     22  O   LIG    1       24.686 -26.929   5.147  0.00  0.00    -0.491 OA
ENDBRANCH   1  22
TORSDOF 1
ENDMDL
MODEL 3
REMARK VINA RESULT:      -5.5      8.898     10.580
REMARK  Name = *****
REMARK                            x       y       z     vdW  Elec       q    Type
REMARK                         _______ _______ _______ _____ _____    ______ ____
ROOT
ATOM      1  C   LIG    1       24.700 -27.638  13.155  0.00  0.00    +0.162 A 
ATOM      2  C   LIG    1       24.376 -28.814  12.505  0.00  0.00    +0.167 A 
ATOM      3  O   LIG    1       23.126 -29.448  12.462  0.00  0.00    -0.476 OA
ATOM      4  C   LIG    1       23.159 -29.973  11.122  0.00  0.00    +0.250 C 
ATOM      5  C   LIG    1       24.845 -30.665  11.123  0.00  0.00    +0.049 C 
ATOM      6  C   LIG    1       25.700 -31.419   9.808  0.00  0.00    +0.021 C 
ATOM      7  C   LIG    1       26.271 -30.249   9.033  0.00  0.00    +0.065 C 
ATOM      8  N   LIG    1       25.061 -29.546   8.646  0.00  0.00    -0.302 NA
ATOM      9  C   LIG    1       23.873 -30.379   8.927  0.00  0.00    +0.085 C 
ATOM     10  C   LIG    1       25.107 -29.008   7.294  0.00  0.00    +0.105 C 
ATOM     11  C   LIG    1       27.166 -29.342   9.964  0.00  0.00    +0.054 C 
ATOM     12  C   LIG    1       26.439 -28.761  11.169  0.00  0.00    -0.038 A 
ATOM     13  C   LIG    1       26.779 -27.574  11.811  0.00  0.00    +0.008 A 
ATOM     14  C   LIG    1       24.582 -32.583   8.773  0.00  0.00    +0.014 C 
ATOM     15  C   LIG    1       22.702 -32.446   9.075  0.00  0.00    +0.078 C 
ATOM     16  C   LIG    1       23.955 -31.524  10.556  0.00  0.00    +0.031 C 
ATOM     17  C   LIG    1       21.922 -31.066  10.120  0.00  0.00    +0.174 C 
ATOM     18  O   LIG    1       20.703 -30.931  10.196  0.00  0.00    -0.293 OA
ATOM     19  C   LIG    1       25.292 -29.390  11.617  0.00  0.00    +0.012 A 
ATOM     20  C   LIG    1       25.931 -27.040  12.810  0.00  0.00    +0.050 A 
ENDROOT
BRANCH   1  22
ATOM     21  C   LIG    1       22.854 -26.200  13.541  0.00  0.00    +0.277 C 
ATOM     22  O   LIG    1       23.958 -26.936  14.057  0.00  0.00    -0.491 OA
ENDBRANCH   1  22
TORSDOF 1
ENDMDL
