MODEL 1
REMARK VINA RESULT:      -7.4      0.000      0.000
REMARK  Name = *****
REMARK                            x       y       z     vdW  Elec       q    Type
REMARK                         _______ _______ _______ _____ _____    ______ ____
ROOT
ATOM      1  C   LIG    1       23.523 -20.348   5.291  0.00  0.00    +0.143 A 
ATOM      2  C   LIG    1       24.870 -20.466   5.650  0.00  0.00    +0.075 A 
ATOM      3  C   LIG    1       25.969 -19.933   4.836  0.00  0.00    +0.202 C 
ATOM      4  C   LIG    1       27.221 -19.578   5.526  0.00  0.00    +0.075 A 
ATOM      5  C   LIG    1       27.605 -20.339   6.624  0.00  0.00    +0.037 A 
ATOM      6  C   LIG    1       26.651 -21.332   7.170  0.00  0.00    +0.195 C 
ATOM      7  O   LIG    1       27.019 -22.170   7.982  0.00  0.00    -0.287 OA
ATOM      8  C   LIG    1       28.877 -20.160   7.179  0.00  0.00    +0.027 A 
ATOM      9  C   LIG    1       29.735 -19.167   6.668  0.00  0.00    +0.063 A 
ATOM     10  C   LIG    1       29.311 -18.348   5.612  0.00  0.00    +0.062 A 
ATOM     11  C   LIG    1       28.059 -18.566   5.046  0.00  0.00    +0.144 A 
ATOM     12  O   LIG    1       25.894 -19.908   3.615  0.00  0.00    -0.286 OA
ATOM     13  C   LIG    1       25.226 -21.238   6.760  0.00  0.00    +0.037 A 
ATOM     14  C   LIG    1       24.245 -21.944   7.468  0.00  0.00    +0.012 A 
ATOM     15  C   LIG    1       22.901 -21.821   7.106  0.00  0.00    +0.004 A 
ATOM     16  C   LIG    1       22.538 -21.009   6.031  0.00  0.00    +0.047 A 
ENDROOT
BRANCH   9  17
ATOM     17  C   LIG    1       31.120 -19.089   7.207  0.00  0.00    +0.337 C 
ATOM     18  O   LIG    1       31.602 -18.051   7.585  0.00  0.00    -0.245 OA
BRANCH  17  19
ATOM     19  O   LIG    1       31.784 -20.264   7.232  0.00  0.00    -0.477 OA
ATOM     20  H   LIG    1       31.468 -20.972   6.638  0.00  0.00    +0.295 HD
ENDBRANCH  17  19
ENDBRANCH   9  17
BRANCH   1  21
ATOM     21  O   LIG    1       23.057 -19.764   4.092  0.00  0.00    -0.425 OA
BRANCH  21  23
ATOM     22  C   LIG    1       22.589 -17.517   4.603  0.00  0.00    +0.136 C 
ATOM     23  C   LIG    1       22.049 -18.800   4.028  0.00  0.00    +0.309 C 
ATOM     24  O   LIG    1       20.925 -18.958   3.570  0.00  0.00    -0.251 OA
ENDBRANCH  21  23
ENDBRANCH   1  21
BRANCH  11  25
ATOM     25  O   LIG    1       27.549 -17.805   3.973  0.00  0.00    -0.425 OA
BRANCH  25  26
ATOM     26  C   LIG    1       27.276 -16.442   3.963  0.00  0.00    +0.309 C 
ATOM     27  O   LIG    1       27.998 -15.550   4.381  0.00  0.00    -0.251 OA
ATOM     28  C   LIG    1       25.908 -16.268   3.377  0.00  0.00    +0.136 C 
ENDBRANCH  25  26
ENDBRANCH  11  25
TORSDOF 6
ENDMDL
MODEL 2
REMARK VINA RESULT:      -6.4      1.445      1.953
REMARK  Name = *****
REMARK                            x       y       z     vdW  Elec       q    Type
REMARK                         _______ _______ _______ _____ _____    ______ ____
ROOT
ATOM      1  C   LIG    1       23.323 -20.888   5.045  0.00  0.00    +0.143 A 
ATOM      2  C   LIG    1       24.531 -21.299   5.619  0.00  0.00    +0.075 A 
ATOM      3  C   LIG    1       25.842 -20.811   5.172  0.00  0.00    +0.202 C 
ATOM      4  C   LIG    1       26.942 -20.813   6.150  0.00  0.00    +0.075 A 
ATOM      5  C   LIG    1       26.975 -21.828   7.100  0.00  0.00    +0.037 A 
ATOM      6  C   LIG    1       25.808 -22.732   7.216  0.00  0.00    +0.195 C 
ATOM      7  O   LIG    1       25.879 -23.762   7.872  0.00  0.00    -0.287 OA
ATOM      8  C   LIG    1       28.104 -21.977   7.914  0.00  0.00    +0.027 A 
ATOM      9  C   LIG    1       29.170 -21.063   7.814  0.00  0.00    +0.063 A 
ATOM     10  C   LIG    1       29.097 -19.994   6.910  0.00  0.00    +0.062 A 
ATOM     11  C   LIG    1       27.985 -19.883   6.080  0.00  0.00    +0.144 A 
ATOM     12  O   LIG    1       26.044 -20.536   3.996  0.00  0.00    -0.286 OA
ATOM     13  C   LIG    1       24.533 -22.322   6.573  0.00  0.00    +0.037 A 
ATOM     14  C   LIG    1       23.339 -22.976   6.902  0.00  0.00    +0.012 A 
ATOM     15  C   LIG    1       22.135 -22.560   6.327  0.00  0.00    +0.004 A 
ATOM     16  C   LIG    1       22.124 -21.505   5.415  0.00  0.00    +0.047 A 
ENDROOT
BRANCH   9  17
ATOM     17  C   LIG    1       30.399 -21.326   8.611  0.00  0.00    +0.337 C 
ATOM     18  O   LIG    1       30.371 -21.943   9.646  0.00  0.00    -0.245 OA
BRANCH  17  19
ATOM     19  O   LIG    1       31.533 -20.816   8.087  0.00  0.00    -0.477 OA
ATOM     20  H   LIG    1       31.912 -20.026   8.518  0.00  0.00    +0.295 HD
ENDBRANCH  17  19
ENDBRANCH   9  17
BRANCH   1  21
ATOM     21  O   LIG    1       23.212 -20.011   3.943  0.00  0.00    -0.425 OA
BRANCH  21  23
ATOM     22  C   LIG    1       22.037 -18.088   4.610  0.00  0.00    +0.136 C 
ATOM     23  C   LIG    1       23.320 -18.622   4.032  0.00  0.00    +0.309 C 
ATOM     24  O   LIG    1       24.291 -17.950   3.712  0.00  0.00    -0.251 OA
ENDBRANCH  21  23
ENDBRANCH   1  21
BRANCH  11  25
ATOM     25  O   LIG    1       27.824 -18.853   5.131  0.00  0.00    -0.425 OA
BRANCH  25  26
ATOM     26  C   LIG    1       28.701 -17.807   4.867  0.00  0.00    +0.309 C 
ATOM     27  O   LIG    1       29.904 -17.793   5.077  0.00  0.00    -0.251 OA
ATOM     28  C   LIG    1       27.889 -16.678   4.310  0.00  0.00    +0.136 C 
ENDBRANCH  25  26
ENDBRANCH  11  25
TORSDOF 6
ENDMDL
MODEL 3
REMARK VINA RESULT:      -6.2     10.537     12.996
REMARK  Name = *****
REMARK                            x       y       z     vdW  Elec       q    Type
REMARK                         _______ _______ _______ _____ _____    ______ ____
ROOT
ATOM      1  C   LIG    1       25.273 -30.692  10.620  0.00  0.00    +0.143 A 
ATOM      2  C   LIG    1       24.130 -30.217  11.272  0.00  0.00    +0.075 A 
ATOM      3  C   LIG    1       24.176 -29.449  12.522  0.00  0.00    +0.202 C 
ATOM      4  C   LIG    1       23.063 -28.526  12.800  0.00  0.00    +0.075 A 
ATOM      5  C   LIG    1       21.792 -28.880  12.364  0.00  0.00    +0.037 A 
ATOM      6  C   LIG    1       21.646 -30.054  11.473  0.00  0.00    +0.195 C 
ATOM      7  O   LIG    1       20.544 -30.533  11.246  0.00  0.00    -0.287 OA
ATOM      8  C   LIG    1       20.684 -28.132  12.779  0.00  0.00    +0.027 A 
ATOM      9  C   LIG    1       20.868 -26.988  13.580  0.00  0.00    +0.063 A 
ATOM     10  C   LIG    1       22.160 -26.590  13.951  0.00  0.00    +0.062 A 
ATOM     11  C   LIG    1       23.247 -27.368  13.562  0.00  0.00    +0.144 A 
ATOM     12  O   LIG    1       25.041 -29.664  13.361  0.00  0.00    -0.286 OA
ATOM     13  C   LIG    1       22.864 -30.590  10.809  0.00  0.00    +0.037 A 
ATOM     14  C   LIG    1       22.742 -31.487   9.741  0.00  0.00    +0.012 A 
ATOM     15  C   LIG    1       23.888 -31.956   9.092  0.00  0.00    +0.004 A 
ATOM     16  C   LIG    1       25.151 -31.544   9.518  0.00  0.00    +0.047 A 
ENDROOT
BRANCH   9  17
ATOM     17  C   LIG    1       19.660 -26.290  14.097  0.00  0.00    +0.337 C 
ATOM     18  O   LIG    1       18.751 -25.964  13.376  0.00  0.00    -0.245 OA
BRANCH  17  19
ATOM     19  O   LIG    1       19.670 -26.052  15.426  0.00  0.00    -0.477 OA
ATOM     20  H   LIG    1       19.678 -26.825  16.021  0.00  0.00    +0.295 HD
ENDBRANCH  17  19
ENDBRANCH   9  17
BRANCH   1  21
ATOM     21  O   LIG    1       26.593 -30.547  11.101  0.00  0.00    -0.425 OA
BRANCH  21  23
ATOM     22  C   LIG    1       28.546 -29.416  11.760  0.00  0.00    +0.136 C 
ATOM     23  C   LIG    1       27.457 -29.516  10.726  0.00  0.00    +0.309 C 
ATOM     24  O   LIG    1       27.361 -28.821   9.723  0.00  0.00    -0.251 OA
ENDBRANCH  21  23
ENDBRANCH   1  21
BRANCH  11  25
ATOM     25  O   LIG    1       24.582 -27.058  13.895  0.00  0.00    -0.425 OA
BRANCH  25  26
ATOM     26  C   LIG    1       25.311 -25.942  13.501  0.00  0.00    +0.309 C 
ATOM     27  O   LIG    1       25.013 -24.773  13.688  0.00  0.00    -0.251 OA
ATOM     28  C   LIG    1       26.519 -26.439  12.766  0.00  0.00    +0.136 C 
ENDBRANCH  25  26
ENDBRANCH  11  25
TORSDOF 6
ENDMDL
MODEL 4
REMARK VINA RESULT:      -6.1     10.535     12.451
REMARK  Name = *****
REMARK                            x       y       z     vdW  Elec       q    Type
REMARK                         _______ _______ _______ _____ _____    ______ ____
ROOT
ATOM      1  C   LIG    1       20.012 -29.112  13.715  0.00  0.00    +0.143 A 
ATOM      2  C   LIG    1       21.103 -29.166  12.841  0.00  0.00    +0.075 A 
ATOM      3  C   LIG    1       22.197 -28.187  12.857  0.00  0.00    +0.202 C 
ATOM      4  C   LIG    1       23.514 -28.624  12.363  0.00  0.00    +0.075 A 
ATOM      5  C   LIG    1       23.553 -29.546  11.325  0.00  0.00    +0.037 A 
ATOM      6  C   LIG    1       22.291 -30.196  10.901  0.00  0.00    +0.195 C 
ATOM      7  O   LIG    1       22.237 -30.836   9.860  0.00  0.00    -0.287 OA
ATOM      8  C   LIG    1       24.772 -29.833  10.700  0.00  0.00    +0.027 A 
ATOM      9  C   LIG    1       25.960 -29.239  11.168  0.00  0.00    +0.063 A 
ATOM     10  C   LIG    1       25.925 -28.371  12.268  0.00  0.00    +0.062 A 
ATOM     11  C   LIG    1       24.700 -28.066  12.852  0.00  0.00    +0.144 A 
ATOM     12  O   LIG    1       21.989 -27.016  13.146  0.00  0.00    -0.286 OA
ATOM     13  C   LIG    1       21.115 -30.106  11.805  0.00  0.00    +0.037 A 
ATOM     14  C   LIG    1       20.010 -30.942  11.604  0.00  0.00    +0.012 A 
ATOM     15  C   LIG    1       18.924 -30.885  12.481  0.00  0.00    +0.004 A 
ATOM     16  C   LIG    1       18.933 -29.984  13.547  0.00  0.00    +0.047 A 
ENDROOT
BRANCH   9  17
ATOM     17  C   LIG    1       27.214 -29.478  10.403  0.00  0.00    +0.337 C 
ATOM     18  O   LIG    1       28.164 -30.038  10.889  0.00  0.00    -0.245 OA
BRANCH  17  19
ATOM     19  O   LIG    1       27.200 -29.014   9.135  0.00  0.00    -0.477 OA
ATOM     20  H   LIG    1       27.898 -29.334   8.532  0.00  0.00    +0.295 HD
ENDBRANCH  17  19
ENDBRANCH   9  17
BRANCH   1  21
ATOM     21  O   LIG    1       19.795 -28.093  14.669  0.00  0.00    -0.425 OA
BRANCH  21  23
ATOM     22  C   LIG    1       18.748 -26.255  13.644  0.00  0.00    +0.136 C 
ATOM     23  C   LIG    1       18.647 -27.299  14.724  0.00  0.00    +0.309 C 
ATOM     24  O   LIG    1       17.711 -27.434  15.500  0.00  0.00    -0.251 OA
ENDBRANCH  21  23
ENDBRANCH   1  21
BRANCH  11  25
ATOM     25  O   LIG    1       24.559 -27.195  13.952  0.00  0.00    -0.425 OA
BRANCH  25  26
ATOM     26  C   LIG    1       25.458 -26.223  14.376  0.00  0.00    +0.309 C 
ATOM     27  O   LIG    1       26.353 -26.363  15.195  0.00  0.00    -0.251 OA
ATOM     28  C   LIG    1       25.102 -24.951  13.669  0.00  0.00    +0.136 C 
ENDBRANCH  25  26
ENDBRANCH  11  25
TORSDOF 6
ENDMDL
MODEL 5
REMARK VINA RESULT:      -5.9     10.888     12.765
REMARK  Name = *****
REMARK                            x       y       z     vdW  Elec       q    Type
REMARK                         _______ _______ _______ _____ _____    ______ ____
ROOT
ATOM      1  C   LIG    1       24.445 -27.382  13.646  0.00  0.00    +0.143 A 
ATOM      2  C   LIG    1       24.874 -28.176  12.577  0.00  0.00    +0.075 A 
ATOM      3  C   LIG    1       24.119 -29.333  12.080  0.00  0.00    +0.202 C 
ATOM      4  C   LIG    1       24.306 -29.718  10.671  0.00  0.00    +0.075 A 
ATOM      5  C   LIG    1       25.559 -29.533  10.100  0.00  0.00    +0.037 A 
ATOM      6  C   LIG    1       26.583 -28.779  10.859  0.00  0.00    +0.195 C 
ATOM      7  O   LIG    1       27.753 -28.782  10.502  0.00  0.00    -0.287 OA
ATOM      8  C   LIG    1       25.829 -30.067   8.834  0.00  0.00    +0.027 A 
ATOM      9  C   LIG    1       24.812 -30.728   8.118  0.00  0.00    +0.063 A 
ATOM     10  C   LIG    1       23.527 -30.842   8.666  0.00  0.00    +0.062 A 
ATOM     11  C   LIG    1       23.287 -30.341   9.942  0.00  0.00    +0.144 A 
ATOM     12  O   LIG    1       23.461 -30.030  12.842  0.00  0.00    -0.286 OA
ATOM     13  C   LIG    1       26.140 -27.966  12.022  0.00  0.00    +0.037 A 
ATOM     14  C   LIG    1       27.001 -27.011  12.578  0.00  0.00    +0.012 A 
ATOM     15  C   LIG    1       26.566 -26.219  13.644  0.00  0.00    +0.004 A 
ATOM     16  C   LIG    1       25.283 -26.391  14.165  0.00  0.00    +0.047 A 
ENDROOT
BRANCH   9  17
ATOM     17  C   LIG    1       25.171 -31.383   6.831  0.00  0.00    +0.337 C 
ATOM     18  O   LIG    1       24.338 -31.849   6.095  0.00  0.00    -0.245 OA
BRANCH  17  19
ATOM     19  O   LIG    1       26.494 -31.416   6.563  0.00  0.00    -0.477 OA
ATOM     20  H   LIG    1       26.920 -32.292   6.507  0.00  0.00    +0.295 HD
ENDBRANCH  17  19
ENDBRANCH   9  17
BRANCH   1  21
ATOM     21  O   LIG    1       23.281 -27.620  14.410  0.00  0.00    -0.425 OA
BRANCH  21  23
ATOM     22  C   LIG    1       21.497 -26.706  13.182  0.00  0.00    +0.136 C 
ATOM     23  C   LIG    1       22.210 -26.730  14.507  0.00  0.00    +0.309 C 
ATOM     24  O   LIG    1       21.891 -26.089  15.500  0.00  0.00    -0.251 OA
ENDBRANCH  21  23
ENDBRANCH   1  21
BRANCH  11  25
ATOM     25  O   LIG    1       22.033 -30.418  10.583  0.00  0.00    -0.425 OA
BRANCH  25  26
ATOM     26  C   LIG    1       21.100 -31.443  10.486  0.00  0.00    +0.309 C 
ATOM     27  O   LIG    1       19.999 -31.381   9.961  0.00  0.00    -0.251 OA
ATOM     28  C   LIG    1       21.678 -32.637  11.183  0.00  0.00    +0.136 C 
ENDBRANCH  25  26
ENDBRANCH  11  25
TORSDOF 6
ENDMDL
MODEL 6
REMARK VINA RESULT:      -5.8      8.798     12.023
REMARK  Name = *****
REMARK                            x       y       z     vdW  Elec       q    Type
REMARK                         _______ _______ _______ _____ _____    ______ ____
ROOT
ATOM      1  C   LIG    1       25.155 -28.195   7.180  0.00  0.00    +0.143 A 
ATOM      2  C   LIG    1       25.296 -29.273   8.061  0.00  0.00    +0.075 A 
ATOM      3  C   LIG    1       26.103 -29.211   9.285  0.00  0.00    +0.202 C 
ATOM      4  C   LIG    1       25.736 -30.109  10.393  0.00  0.00    +0.075 A 
ATOM      5  C   LIG    1       25.221 -31.361  10.080  0.00  0.00    +0.037 A 
ATOM      6  C   LIG    1       24.877 -31.657   8.671  0.00  0.00    +0.195 C 
ATOM      7  O   LIG    1       24.634 -32.802   8.315  0.00  0.00    -0.287 OA
ATOM      8  C   LIG    1       25.048 -32.311  11.094  0.00  0.00    +0.027 A 
ATOM      9  C   LIG    1       25.332 -31.974  12.431  0.00  0.00    +0.063 A 
ATOM     10  C   LIG    1       25.776 -30.683  12.751  0.00  0.00    +0.062 A 
ATOM     11  C   LIG    1       25.980 -29.763  11.726  0.00  0.00    +0.144 A 
ATOM     12  O   LIG    1       27.122 -28.533   9.335  0.00  0.00    -0.286 OA
ATOM     13  C   LIG    1       24.766 -30.521   7.719  0.00  0.00    +0.037 A 
ATOM     14  C   LIG    1       24.157 -30.708   6.472  0.00  0.00    +0.012 A 
ATOM     15  C   LIG    1       24.017 -29.627   5.597  0.00  0.00    +0.004 A 
ATOM     16  C   LIG    1       24.498 -28.368   5.958  0.00  0.00    +0.047 A 
ENDROOT
BRANCH   9  17
ATOM     17  C   LIG    1       25.249 -33.045  13.460  0.00  0.00    +0.337 C 
ATOM     18  O   LIG    1       24.195 -33.430  13.900  0.00  0.00    -0.245 OA
BRANCH  17  19
ATOM     19  O   LIG    1       26.440 -33.541  13.858  0.00  0.00    -0.477 OA
ATOM     20  H   LIG    1       26.436 -34.188  14.589  0.00  0.00    +0.295 HD
ENDBRANCH  17  19
ENDBRANCH   9  17
BRANCH   1  21
ATOM     21  O   LIG    1       25.806 -26.950   7.320  0.00  0.00    -0.425 OA
BRANCH  21  23
ATOM     22  C   LIG    1       25.637 -24.846   6.285  0.00  0.00    +0.136 C 
ATOM     23  C   LIG    1       26.301 -26.197   6.253  0.00  0.00    +0.309 C 
ATOM     24  O   LIG    1       27.141 -26.560   5.440  0.00  0.00    -0.251 OA
ENDBRANCH  21  23
ENDBRANCH   1  21
BRANCH  11  25
ATOM     25  O   LIG    1       26.436 -28.446  11.945  0.00  0.00    -0.425 OA
BRANCH  25  26
ATOM     26  C   LIG    1       25.802 -27.445  12.670  0.00  0.00    +0.309 C 
ATOM     27  O   LIG    1       24.640 -27.442  13.048  0.00  0.00    -0.251 OA
ATOM     28  C   LIG    1       26.798 -26.344  12.872  0.00  0.00    +0.136 C 
ENDBRANCH  25  26
ENDBRANCH  11  25
TORSDOF 6
ENDMDL
MODEL 7
REMARK VINA RESULT:      -5.8     10.796     13.753
REMARK  Name = *****
REMARK                            x       y       z     vdW  Elec       q    Type
REMARK                         _______ _______ _______ _____ _____    ______ ____
ROOT
ATOM      1  C   LIG    1       25.935 -28.277  12.006  0.00  0.00    +0.143 A 
ATOM      2  C   LIG    1       24.873 -29.107  11.631  0.00  0.00    +0.075 A 
ATOM      3  C   LIG    1       23.791 -29.492  12.545  0.00  0.00    +0.202 C 
ATOM      4  C   LIG    1       22.486 -29.836  11.955  0.00  0.00    +0.075 A 
ATOM      5  C   LIG    1       22.471 -30.462  10.715  0.00  0.00    +0.037 A 
ATOM      6  C   LIG    1       23.738 -30.572   9.957  0.00  0.00    +0.195 C 
ATOM      7  O   LIG    1       23.819 -31.300   8.977  0.00  0.00    -0.287 OA
ATOM      8  C   LIG    1       21.270 -30.980  10.216  0.00  0.00    +0.027 A 
ATOM      9  C   LIG    1       20.074 -30.807  10.939  0.00  0.00    +0.063 A 
ATOM     10  C   LIG    1       20.082 -30.104  12.152  0.00  0.00    +0.062 A 
ATOM     11  C   LIG    1       21.291 -29.630  12.653  0.00  0.00    +0.144 A 
ATOM     12  O   LIG    1       24.002 -29.649  13.741  0.00  0.00    -0.286 OA
ATOM     13  C   LIG    1       24.884 -29.723  10.376  0.00  0.00    +0.037 A 
ATOM     14  C   LIG    1       25.986 -29.563   9.525  0.00  0.00    +0.012 A 
ATOM     15  C   LIG    1       27.043 -28.731   9.904  0.00  0.00    +0.004 A 
ATOM     16  C   LIG    1       27.008 -28.073  11.134  0.00  0.00    +0.047 A 
ENDROOT
BRANCH   9  17
ATOM     17  C   LIG    1       18.844 -31.474  10.433  0.00  0.00    +0.337 C 
ATOM     18  O   LIG    1       18.550 -32.599  10.749  0.00  0.00    -0.245 OA
BRANCH  17  19
ATOM     19  O   LIG    1       18.096 -30.722   9.597  0.00  0.00    -0.477 OA
ATOM     20  H   LIG    1       17.595 -31.188   8.901  0.00  0.00    +0.295 HD
ENDBRANCH  17  19
ENDBRANCH   9  17
BRANCH   1  21
ATOM     21  O   LIG    1       26.132 -27.759  13.305  0.00  0.00    -0.425 OA
BRANCH  21  23
ATOM     22  C   LIG    1       24.677 -25.958  13.714  0.00  0.00    +0.136 C 
ATOM     23  C   LIG    1       26.114 -26.398  13.619  0.00  0.00    +0.309 C 
ATOM     24  O   LIG    1       27.091 -25.685  13.802  0.00  0.00    -0.251 OA
ENDBRANCH  21  23
ENDBRANCH   1  21
BRANCH  11  25
ATOM     25  O   LIG    1       21.405 -28.924  13.868  0.00  0.00    -0.425 OA
BRANCH  25  26
ATOM     26  C   LIG    1       20.727 -27.768  14.237  0.00  0.00    +0.309 C 
ATOM     27  O   LIG    1       19.971 -27.637  15.187  0.00  0.00    -0.251 OA
ATOM     28  C   LIG    1       21.064 -26.715  13.226  0.00  0.00    +0.136 C 
ENDBRANCH  25  26
ENDBRANCH  11  25
TORSDOF 6
ENDMDL
MODEL 8
REMARK VINA RESULT:      -5.4      1.910      7.550
REMARK  Name = *****
REMARK                            x       y       z     vdW  Elec       q    Type
REMARK                         _______ _______ _______ _____ _____    ______ ____
ROOT
ATOM      1  C   LIG    1       29.445 -20.788   7.632  0.00  0.00    +0.143 A 
ATOM      2  C   LIG    1       28.333 -20.608   6.801  0.00  0.00    +0.075 A 
ATOM      3  C   LIG    1       27.279 -21.616   6.638  0.00  0.00    +0.202 C 
ATOM      4  C   LIG    1       25.935 -21.146   6.260  0.00  0.00    +0.075 A 
ATOM      5  C   LIG    1       25.838 -20.040   5.424  0.00  0.00    +0.037 A 
ATOM      6  C   LIG    1       27.064 -19.268   5.120  0.00  0.00    +0.195 C 
ATOM      7  O   LIG    1       27.070 -18.433   4.226  0.00  0.00    -0.287 OA
ATOM      8  C   LIG    1       24.595 -19.687   4.885  0.00  0.00    +0.027 A 
ATOM      9  C   LIG    1       23.441 -20.411   5.243  0.00  0.00    +0.063 A 
ATOM     10  C   LIG    1       23.534 -21.477   6.149  0.00  0.00    +0.062 A 
ATOM     11  C   LIG    1       24.783 -21.839   6.644  0.00  0.00    +0.144 A 
ATOM     12  O   LIG    1       27.537 -22.812   6.687  0.00  0.00    -0.286 OA
ATOM     13  C   LIG    1       28.262 -19.484   5.972  0.00  0.00    +0.037 A 
ATOM     14  C   LIG    1       29.330 -18.579   5.924  0.00  0.00    +0.012 A 
ATOM     15  C   LIG    1       30.437 -18.762   6.758  0.00  0.00    +0.004 A 
ATOM     16  C   LIG    1       30.485 -19.855   7.624  0.00  0.00    +0.047 A 
ENDROOT
BRANCH   9  17
ATOM     17  C   LIG    1       22.163 -20.079   4.558  0.00  0.00    +0.337 C 
ATOM     18  O   LIG    1       21.901 -18.960   4.199  0.00  0.00    -0.245 OA
BRANCH  17  19
ATOM     19  O   LIG    1       21.328 -21.126   4.381  0.00  0.00    -0.477 OA
ATOM     20  H   LIG    1       20.423 -20.932   4.071  0.00  0.00    +0.295 HD
ENDBRANCH  17  19
ENDBRANCH   9  17
BRANCH   1  21
ATOM     21  O   LIG    1       29.722 -21.965   8.363  0.00  0.00    -0.425 OA
BRANCH  21  23
ATOM     22  C   LIG    1       31.920 -22.784   8.500  0.00  0.00    +0.136 C 
ATOM     23  C   LIG    1       30.797 -22.109   9.241  0.00  0.00    +0.309 C 
ATOM     24  O   LIG    1       30.834 -21.738  10.407  0.00  0.00    -0.251 OA
ENDBRANCH  21  23
ENDBRANCH   1  21
BRANCH  11  25
ATOM     25  O   LIG    1       24.981 -22.903   7.549  0.00  0.00    -0.425 OA
BRANCH  25  26
ATOM     26  C   LIG    1       24.931 -24.264   7.271  0.00  0.00    +0.309 C 
ATOM     27  O   LIG    1       25.820 -25.081   7.458  0.00  0.00    -0.251 OA
ATOM     28  C   LIG    1       23.592 -24.543   6.659  0.00  0.00    +0.136 C 
ENDBRANCH  25  26
ENDBRANCH  11  25
TORSDOF 6
ENDMDL
MODEL 9
REMARK VINA RESULT:      -5.4      8.718     11.812
REMARK  Name = *****
REMARK                            x       y       z     vdW  Elec       q    Type
REMARK                         _______ _______ _______ _____ _____    ______ ____
ROOT
ATOM      1  C   LIG    1       24.878 -28.485   7.001  0.00  0.00    +0.143 A 
ATOM      2  C   LIG    1       25.163 -29.401   8.019  0.00  0.00    +0.075 A 
ATOM      3  C   LIG    1       25.944 -29.059   9.214  0.00  0.00    +0.202 C 
ATOM      4  C   LIG    1       25.699 -29.840  10.439  0.00  0.00    +0.075 A 
ATOM      5  C   LIG    1       25.369 -31.183  10.305  0.00  0.00    +0.037 A 
ATOM      6  C   LIG    1       25.080 -31.715   8.954  0.00  0.00    +0.195 C 
ATOM      7  O   LIG    1       25.005 -32.920   8.761  0.00  0.00    -0.287 OA
ATOM      8  C   LIG    1       25.324 -32.000  11.441  0.00  0.00    +0.027 A 
ATOM      9  C   LIG    1       25.548 -31.446  12.717  0.00  0.00    +0.063 A 
ATOM     10  C   LIG    1       25.803 -30.074  12.852  0.00  0.00    +0.062 A 
ATOM     11  C   LIG    1       25.883 -29.284  11.709  0.00  0.00    +0.144 A 
ATOM     12  O   LIG    1       26.856 -28.244   9.158  0.00  0.00    -0.286 OA
ATOM     13  C   LIG    1       24.817 -30.746   7.858  0.00  0.00    +0.037 A 
ATOM     14  C   LIG    1       24.250 -31.186   6.655  0.00  0.00    +0.012 A 
ATOM     15  C   LIG    1       23.965 -30.266   5.642  0.00  0.00    +0.004 A 
ATOM     16  C   LIG    1       24.261 -28.914   5.822  0.00  0.00    +0.047 A 
ENDROOT
BRANCH   9  17
ATOM     17  C   LIG    1       25.610 -32.368  13.883  0.00  0.00    +0.337 C 
ATOM     18  O   LIG    1       26.430 -33.248  13.961  0.00  0.00    -0.245 OA
BRANCH  17  19
ATOM     19  O   LIG    1       24.676 -32.143  14.832  0.00  0.00    -0.477 OA
ATOM     20  H   LIG    1       23.996 -31.468  14.642  0.00  0.00    +0.295 HD
ENDBRANCH  17  19
ENDBRANCH   9  17
BRANCH   1  21
ATOM     21  O   LIG    1       25.345 -27.152   6.963  0.00  0.00    -0.425 OA
BRANCH  21  23
ATOM     22  C   LIG    1       25.589 -25.826   5.037  0.00  0.00    +0.136 C 
ATOM     23  C   LIG    1       24.734 -26.126   6.240  0.00  0.00    +0.309 C 
ATOM     24  O   LIG    1       23.679 -25.574   6.519  0.00  0.00    -0.251 OA
ENDBRANCH  21  23
ENDBRANCH   1  21
BRANCH  11  25
ATOM     25  O   LIG    1       26.146 -27.899  11.740  0.00  0.00    -0.425 OA
BRANCH  25  26
ATOM     26  C   LIG    1       26.215 -27.080  12.861  0.00  0.00    +0.309 C 
ATOM     27  O   LIG    1       27.228 -26.692  13.422  0.00  0.00    -0.251 OA
ATOM     28  C   LIG    1       24.807 -26.787  13.283  0.00  0.00    +0.136 C 
ENDBRANCH  25  26
ENDBRANCH  11  25
TORSDOF 6
ENDMDL
