MODEL 1
REMARK VINA RESULT:      -5.8      0.000      0.000
REMARK  Name = *****
REMARK                            x       y       z     vdW  Elec       q    Type
REMARK                         _______ _______ _______ _____ _____    ______ ____
ROOT
ATOM      1  C   LIG    1       30.598 -20.787   8.246  0.00  0.00    +0.077 A 
ATOM      2  C   LIG    1       31.323 -19.619   8.060  0.00  0.00    +0.125 A 
ATOM      3  N   LIG    1       30.910 -18.600   7.267  0.00  0.00    -0.262 NA
ATOM      4  C   LIG    1       29.711 -18.747   6.661  0.00  0.00    +0.111 A 
ATOM      5  C   LIG    1       28.905 -19.865   6.808  0.00  0.00    +0.020 A 
ATOM      6  C   LIG    1       29.355 -20.906   7.619  0.00  0.00    +0.018 A 
ENDROOT
BRANCH   1   8
ATOM      7  O   LIG    1       30.738 -22.039  10.250  0.00  0.00    -0.245 OA
ATOM      8  C   LIG    1       31.155 -21.830   9.125  0.00  0.00    +0.338 C 
BRANCH   8   9
ATOM      9  O   LIG    1       32.194 -22.495   8.577  0.00  0.00    -0.477 OA
ATOM     10  H   LIG    1       31.991 -22.985   7.759  0.00  0.00    +0.295 HD
ENDBRANCH   8   9
ENDBRANCH   1   8
TORSDOF 2
ENDMDL
MODEL 2
REMARK VINA RESULT:      -5.5      1.264      1.284
REMARK  Name = *****
REMARK                            x       y       z     vdW  Elec       q    Type
REMARK                         _______ _______ _______ _____ _____    ______ ____
ROOT
ATOM      1  C   LIG    1       30.328 -20.219   7.814  0.00  0.00    +0.077 A 
ATOM      2  C   LIG    1       30.783 -19.093   7.144  0.00  0.00    +0.125 A 
ATOM      3  N   LIG    1       30.142 -18.543   6.084  0.00  0.00    -0.262 NA
ATOM      4  C   LIG    1       28.985 -19.127   5.701  0.00  0.00    +0.111 A 
ATOM      5  C   LIG    1       28.439 -20.238   6.326  0.00  0.00    +0.020 A 
ATOM      6  C   LIG    1       29.121 -20.794   7.406  0.00  0.00    +0.018 A 
ENDROOT
BRANCH   1   8
ATOM      7  O   LIG    1       30.797 -21.719   9.585  0.00  0.00    -0.245 OA
ATOM      8  C   LIG    1       31.117 -20.731   8.948  0.00  0.00    +0.338 C 
BRANCH   8   9
ATOM      9  O   LIG    1       32.200 -19.976   9.232  0.00  0.00    -0.477 OA
ATOM     10  H   LIG    1       32.839 -20.379   9.847  0.00  0.00    +0.295 HD
ENDBRANCH   8   9
ENDBRANCH   1   8
TORSDOF 2
ENDMDL
MODEL 3
REMARK VINA RESULT:      -5.4      2.295      2.840
REMARK  Name = *****
REMARK                            x       y       z     vdW  Elec       q    Type
REMARK                         _______ _______ _______ _____ _____    ______ ____
ROOT
ATOM      1  C   LIG    1       30.456 -19.334   7.600  0.00  0.00    +0.077 A 
ATOM      2  C   LIG    1       29.970 -20.584   7.955  0.00  0.00    +0.125 A 
ATOM      3  N   LIG    1       28.922 -21.181   7.337  0.00  0.00    -0.262 NA
ATOM      4  C   LIG    1       28.360 -20.513   6.305  0.00  0.00    +0.111 A 
ATOM      5  C   LIG    1       28.795 -19.274   5.862  0.00  0.00    +0.020 A 
ATOM      6  C   LIG    1       29.867 -18.672   6.520  0.00  0.00    +0.018 A 
ENDROOT
BRANCH   1   8
ATOM      7  O   LIG    1       32.043 -17.667   8.154  0.00  0.00    -0.245 OA
ATOM      8  C   LIG    1       31.596 -18.782   8.353  0.00  0.00    +0.338 C 
BRANCH   8   9
ATOM      9  O   LIG    1       32.116 -19.647   9.249  0.00  0.00    -0.477 OA
ATOM     10  H   LIG    1       32.052 -19.371  10.182  0.00  0.00    +0.295 HD
ENDBRANCH   8   9
ENDBRANCH   1   8
TORSDOF 2
ENDMDL
MODEL 4
REMARK VINA RESULT:      -5.3      4.946      5.800
REMARK  Name = *****
REMARK                            x       y       z     vdW  Elec       q    Type
REMARK                         _______ _______ _______ _____ _____    ______ ____
ROOT
ATOM      1  C   LIG    1       25.151 -20.750   7.238  0.00  0.00    +0.077 A 
ATOM      2  C   LIG    1       25.822 -20.620   6.031  0.00  0.00    +0.125 A 
ATOM      3  N   LIG    1       25.194 -20.505   4.836  0.00  0.00    -0.262 NA
ATOM      4  C   LIG    1       23.842 -20.491   4.855  0.00  0.00    +0.111 A 
ATOM      5  C   LIG    1       23.088 -20.588   6.014  0.00  0.00    +0.020 A 
ATOM      6  C   LIG    1       23.755 -20.717   7.232  0.00  0.00    +0.018 A 
ENDROOT
BRANCH   1   8
ATOM      7  O   LIG    1       25.547 -21.476   9.457  0.00  0.00    -0.245 OA
ATOM      8  C   LIG    1       25.944 -20.877   8.474  0.00  0.00    +0.338 C 
BRANCH   8   9
ATOM      9  O   LIG    1       27.129 -20.231   8.420  0.00  0.00    -0.477 OA
ATOM     10  H   LIG    1       27.760 -20.572   7.761  0.00  0.00    +0.295 HD
ENDBRANCH   8   9
ENDBRANCH   1   8
TORSDOF 2
ENDMDL
MODEL 5
REMARK VINA RESULT:      -5.3      6.385      7.215
REMARK  Name = *****
REMARK                            x       y       z     vdW  Elec       q    Type
REMARK                         _______ _______ _______ _____ _____    ______ ____
ROOT
ATOM      1  C   LIG    1       24.229 -23.082   7.150  0.00  0.00    +0.077 A 
ATOM      2  C   LIG    1       23.706 -21.822   7.402  0.00  0.00    +0.125 A 
ATOM      3  N   LIG    1       24.449 -20.778   7.844  0.00  0.00    -0.262 NA
ATOM      4  C   LIG    1       25.772 -20.999   8.013  0.00  0.00    +0.111 A 
ATOM      5  C   LIG    1       26.387 -22.215   7.762  0.00  0.00    +0.020 A 
ATOM      6  C   LIG    1       25.602 -23.278   7.319  0.00  0.00    +0.018 A 
ENDROOT
BRANCH   1   8
ATOM      7  O   LIG    1       23.704 -25.255   6.370  0.00  0.00    -0.245 OA
ATOM      8  C   LIG    1       23.319 -24.142   6.681  0.00  0.00    +0.338 C 
BRANCH   8   9
ATOM      9  O   LIG    1       22.033 -23.743   6.591  0.00  0.00    -0.477 OA
ATOM     10  H   LIG    1       21.827 -23.163   5.835  0.00  0.00    +0.295 HD
ENDBRANCH   8   9
ENDBRANCH   1   8
TORSDOF 2
ENDMDL
MODEL 6
REMARK VINA RESULT:      -5.2      7.084      7.711
REMARK  Name = *****
REMARK                            x       y       z     vdW  Elec       q    Type
REMARK                         _______ _______ _______ _____ _____    ______ ____
ROOT
ATOM      1  C   LIG    1       23.365 -20.829   5.625  0.00  0.00    +0.077 A 
ATOM      2  C   LIG    1       24.526 -20.964   4.878  0.00  0.00    +0.125 A 
ATOM      3  N   LIG    1       24.861 -20.134   3.861  0.00  0.00    -0.262 NA
ATOM      4  C   LIG    1       24.013 -19.114   3.601  0.00  0.00    +0.111 A 
ATOM      5  C   LIG    1       22.845 -18.884   4.311  0.00  0.00    +0.020 A 
ATOM      6  C   LIG    1       22.514 -19.757   5.346  0.00  0.00    +0.018 A 
ENDROOT
BRANCH   1   8
ATOM      7  O   LIG    1       23.287 -21.548   7.880  0.00  0.00    -0.245 OA
ATOM      8  C   LIG    1       23.104 -21.801   6.703  0.00  0.00    +0.338 C 
BRANCH   8   9
ATOM      9  O   LIG    1       22.685 -23.002   6.252  0.00  0.00    -0.477 OA
ATOM     10  H   LIG    1       22.557 -23.683   6.937  0.00  0.00    +0.295 HD
ENDBRANCH   8   9
ENDBRANCH   1   8
TORSDOF 2
ENDMDL
MODEL 7
REMARK VINA RESULT:      -5.2      6.265      7.061
REMARK  Name = *****
REMARK                            x       y       z     vdW  Elec       q    Type
REMARK                         _______ _______ _______ _____ _____    ______ ____
ROOT
ATOM      1  C   LIG    1       24.331 -23.110   6.995  0.00  0.00    +0.077 A 
ATOM      2  C   LIG    1       25.684 -23.416   6.982  0.00  0.00    +0.125 A 
ATOM      3  N   LIG    1       26.657 -22.514   7.258  0.00  0.00    -0.262 NA
ATOM      4  C   LIG    1       26.257 -21.266   7.588  0.00  0.00    +0.111 A 
ATOM      5  C   LIG    1       24.928 -20.876   7.653  0.00  0.00    +0.020 A 
ATOM      6  C   LIG    1       23.944 -21.817   7.354  0.00  0.00    +0.018 A 
ENDROOT
BRANCH   1   8
ATOM      7  O   LIG    1       23.702 -25.311   6.390  0.00  0.00    -0.245 OA
ATOM      8  C   LIG    1       23.365 -24.174   6.668  0.00  0.00    +0.338 C 
BRANCH   8   9
ATOM      9  O   LIG    1       22.082 -23.753   6.667  0.00  0.00    -0.477 OA
ATOM     10  H   LIG    1       21.957 -22.799   6.825  0.00  0.00    +0.295 HD
ENDBRANCH   8   9
ENDBRANCH   1   8
TORSDOF 2
ENDMDL
MODEL 8
REMARK VINA RESULT:      -5.2      6.863      7.580
REMARK  Name = *****
REMARK                            x       y       z     vdW  Elec       q    Type
REMARK                         _______ _______ _______ _____ _____    ______ ____
ROOT
ATOM      1  C   LIG    1       25.440 -25.363   6.490  0.00  0.00    +0.077 A 
ATOM      2  C   LIG    1       24.071 -25.505   6.312  0.00  0.00    +0.125 A 
ATOM      3  N   LIG    1       23.182 -24.505   6.528  0.00  0.00    -0.262 NA
ATOM      4  C   LIG    1       23.686 -23.310   6.908  0.00  0.00    +0.111 A 
ATOM      5  C   LIG    1       25.040 -23.067   7.084  0.00  0.00    +0.020 A 
ATOM      6  C   LIG    1       25.936 -24.113   6.869  0.00  0.00    +0.018 A 
ENDROOT
BRANCH   1   8
ATOM      7  O   LIG    1       26.897 -26.692   5.180  0.00  0.00    -0.245 OA
ATOM      8  C   LIG    1       26.308 -26.525   6.233  0.00  0.00    +0.338 C 
BRANCH   8   9
ATOM      9  O   LIG    1       26.349 -27.401   7.260  0.00  0.00    -0.477 OA
ATOM     10  H   LIG    1       25.554 -27.955   7.368  0.00  0.00    +0.295 HD
ENDBRANCH   8   9
ENDBRANCH   1   8
TORSDOF 2
ENDMDL
MODEL 9
REMARK VINA RESULT:      -5.2      2.240      2.820
REMARK  Name = *****
REMARK                            x       y       z     vdW  Elec       q    Type
REMARK                         _______ _______ _______ _____ _____    ______ ____
ROOT
ATOM      1  C   LIG    1       29.875 -20.034   8.123  0.00  0.00    +0.077 A 
ATOM      2  C   LIG    1       31.042 -20.522   8.693  0.00  0.00    +0.125 A 
ATOM      3  N   LIG    1       32.014 -19.727   9.203  0.00  0.00    -0.262 NA
ATOM      4  C   LIG    1       31.794 -18.393   9.166  0.00  0.00    +0.111 A 
ATOM      5  C   LIG    1       30.648 -17.817   8.641  0.00  0.00    +0.020 A 
ATOM      6  C   LIG    1       29.667 -18.652   8.111  0.00  0.00    +0.018 A 
ENDROOT
BRANCH   1   8
ATOM      7  O   LIG    1       28.049 -21.532   8.287  0.00  0.00    -0.245 OA
ATOM      8  C   LIG    1       28.895 -20.997   7.592  0.00  0.00    +0.338 C 
BRANCH   8   9
ATOM      9  O   LIG    1       29.055 -21.257   6.277  0.00  0.00    -0.477 OA
ATOM     10  H   LIG    1       28.513 -20.714   5.676  0.00  0.00    +0.295 HD
ENDBRANCH   8   9
ENDBRANCH   1   8
TORSDOF 2
ENDMDL
