MODEL 1
REMARK VINA RESULT:       0.7      0.000      0.000
REMARK  Name = *****
REMARK                            x       y       z     vdW  Elec       q    Type
REMARK                         _______ _______ _______ _____ _____    ______ ____
ROOT
ATOM      1  C   LIG    1       24.402 -15.823   3.900  0.00  0.00    +0.168 C 
ATOM      2  C   LIG    1       25.466 -14.891   3.765  0.00  0.00    +0.097 C 
ATOM      3  C   LIG    1       26.770 -15.381   3.616  0.00  0.00    +0.052 C 
ATOM      4  C   LIG    1       27.902 -14.457   3.802  0.00  0.00    +0.204 C 
ATOM      5  C   LIG    1       27.626 -13.067   4.179  0.00  0.00    +0.122 C 
ATOM      6  C   LIG    1       26.354 -12.668   4.106  0.00  0.00    +0.105 C 
ATOM      7  O   LIG    1       29.082 -14.860   3.747  0.00  0.00    -0.286 OA
ATOM      8  C   LIG    1       26.998 -16.725   3.359  0.00  0.00    +0.054 C 
ATOM      9  C   LIG    1       25.924 -17.612   3.339  0.00  0.00    +0.149 C 
ATOM     10  F   LIG    1       26.239 -18.894   3.092  0.00  0.00    -0.203 F 
ATOM     11  N   LIG    1       25.270 -13.472   3.768  0.00  0.00    -0.340 NA
ATOM     12  C   LIG    1       24.584 -17.223   3.617  0.00  0.00    +0.110 C 
ENDROOT
BRANCH  12  13
ATOM     13  N   LIG    1       23.538 -18.213   3.641  0.00  0.00    -0.322 NA
ATOM     14  C   LIG    1       22.335 -17.822   4.440  0.00  0.00    +0.123 C 
ATOM     15  C   LIG    1       21.248 -18.939   4.549  0.00  0.00    +0.068 C 
ATOM     16  C   LIG    1       20.354 -19.019   3.306  0.00  0.00    +0.025 C 
ATOM     17  N   LIG    1       21.776 -20.279   4.880  0.00  0.00    -0.310 NA
ATOM     18  H   LIG    1       22.217 -20.222   5.798  0.00  0.00    +0.122 HD
ATOM     19  C   LIG    1       22.821 -20.631   3.908  0.00  0.00    +0.100 C 
ATOM     20  C   LIG    1       23.964 -19.611   3.871  0.00  0.00    +0.120 C 
ENDBRANCH  12  13
BRANCH  11  21
ATOM     21  C   LIG    1       24.374 -12.849   2.744  0.00  0.00    +0.088 C 
ATOM     22  C   LIG    1       23.806 -11.460   2.963  0.00  0.00    +0.027 C 
ATOM     23  C   LIG    1       24.726 -11.717   1.812  0.00  0.00    +0.027 C 
ENDBRANCH  11  21
BRANCH   1  25
ATOM     24  C   LIG    1       22.973 -14.809   5.534  0.00  0.00    +0.277 C 
ATOM     25  O   LIG    1       23.142 -15.364   4.227  0.00  0.00    -0.491 OA
ENDBRANCH   1  25
BRANCH   5  26
ATOM     26  C   LIG    1       28.663 -12.131   4.620  0.00  0.00    +0.342 C 
ATOM     27  O   LIG    1       29.415 -11.550   3.830  0.00  0.00    -0.245 OA
BRANCH  26  28
ATOM     28  O   LIG    1       28.684 -11.882   5.945  0.00  0.00    -0.477 OA
ATOM     29  H   LIG    1       29.354 -12.408   6.424  0.00  0.00    +0.295 HD
ENDBRANCH  26  28
ENDBRANCH   5  26
TORSDOF 5
ENDMDL
MODEL 2
REMARK VINA RESULT:       2.5      0.863      1.495
REMARK  Name = *****
REMARK                            x       y       z     vdW  Elec       q    Type
REMARK                         _______ _______ _______ _____ _____    ______ ____
ROOT
ATOM      1  C   LIG    1       23.915 -16.022   4.299  0.00  0.00    +0.168 C 
ATOM      2  C   LIG    1       24.997 -15.150   4.004  0.00  0.00    +0.097 C 
ATOM      3  C   LIG    1       26.253 -15.710   3.732  0.00  0.00    +0.052 C 
ATOM      4  C   LIG    1       27.440 -14.838   3.748  0.00  0.00    +0.204 C 
ATOM      5  C   LIG    1       27.271 -13.421   4.090  0.00  0.00    +0.122 C 
ATOM      6  C   LIG    1       26.019 -12.962   4.142  0.00  0.00    +0.105 C 
ATOM      7  O   LIG    1       28.586 -15.302   3.579  0.00  0.00    -0.286 OA
ATOM      8  C   LIG    1       26.389 -17.073   3.512  0.00  0.00    +0.054 C 
ATOM      9  C   LIG    1       25.281 -17.906   3.653  0.00  0.00    +0.149 C 
ATOM     10  F   LIG    1       25.507 -19.211   3.431  0.00  0.00    -0.203 F 
ATOM     11  N   LIG    1       24.868 -13.724   3.965  0.00  0.00    -0.340 NA
ATOM     12  C   LIG    1       24.000 -17.439   4.062  0.00  0.00    +0.110 C 
ENDROOT
BRANCH  12  13
ATOM     13  N   LIG    1       22.919 -18.373   4.248  0.00  0.00    -0.322 NA
ATOM     14  C   LIG    1       23.293 -19.804   4.027  0.00  0.00    +0.123 C 
ATOM     15  C   LIG    1       22.095 -20.803   4.128  0.00  0.00    +0.068 C 
ATOM     16  C   LIG    1       21.738 -21.155   5.577  0.00  0.00    +0.025 C 
ATOM     17  N   LIG    1       20.883 -20.381   3.396  0.00  0.00    -0.310 NA
ATOM     18  H   LIG    1       21.122 -20.324   2.405  0.00  0.00    +0.122 HD
ATOM     19  C   LIG    1       20.504 -19.032   3.839  0.00  0.00    +0.100 C 
ATOM     20  C   LIG    1       21.624 -18.006   3.634  0.00  0.00    +0.120 C 
ENDBRANCH  12  13
BRANCH  11  21
ATOM     21  C   LIG    1       23.890 -13.099   3.020  0.00  0.00    +0.088 C 
ATOM     22  C   LIG    1       23.661 -11.599   3.033  0.00  0.00    +0.027 C 
ATOM     23  C   LIG    1       24.220 -12.259   1.812  0.00  0.00    +0.027 C 
ENDBRANCH  11  21
BRANCH   1  25
ATOM     24  C   LIG    1       22.371 -15.732   6.109  0.00  0.00    +0.277 C 
ATOM     25  O   LIG    1       22.722 -15.487   4.744  0.00  0.00    -0.491 OA
ENDBRANCH   1  25
BRANCH   5  26
ATOM     26  C   LIG    1       28.393 -12.522   4.369  0.00  0.00    +0.342 C 
ATOM     27  O   LIG    1       28.678 -12.148   5.513  0.00  0.00    -0.245 OA
BRANCH  26  28
ATOM     28  O   LIG    1       29.147 -12.197   3.301  0.00  0.00    -0.477 OA
ATOM     29  H   LIG    1       29.897 -11.611   3.523  0.00  0.00    +0.295 HD
ENDBRANCH  26  28
ENDBRANCH   5  26
TORSDOF 5
ENDMDL
