MODEL 1
REMARK VINA RESULT:      -9.4      0.000      0.000
REMARK  Name = *****
REMARK                            x       y       z     vdW  Elec       q    Type
REMARK                         _______ _______ _______ _____ _____    ______ ____
ROOT
ATOM      1  C   LIG    1       23.470 -20.563   5.654  0.00  0.00    +0.354 C 
ATOM      2  C   LIG    1       23.298 -21.235   6.998  0.00  0.00    +0.492 C 
ATOM      3  N   LIG    1       23.643 -22.648   6.745  0.00  0.00    -0.191 N 
ATOM      4  O   LIG    1       22.655 -23.460   6.728  0.00  0.00    -0.624 OA
ATOM      5  C   LIG    1       24.891 -23.045   6.519  0.00  0.00    +0.233 C 
ATOM      6  C   LIG    1       25.968 -22.008   6.510  0.00  0.00    +0.100 A 
ATOM      7  C   LIG    1       25.803 -20.782   5.829  0.00  0.00    +0.190 A 
ATOM      8  C   LIG    1       26.860 -19.863   5.839  0.00  0.00    +0.057 A 
ATOM      9  C   LIG    1       28.036 -20.123   6.545  0.00  0.00    +0.024 A 
ATOM     10  C   LIG    1       28.167 -21.318   7.246  0.00  0.00    +0.042 A 
ATOM     11 CL   LIG    1       29.602 -21.625   8.143  0.00  0.00    -0.084 Cl
ATOM     12  C   LIG    1       27.143 -22.263   7.233  0.00  0.00    +0.038 A 
ATOM     13  N   LIG    1       24.650 -20.395   5.124  0.00  0.00    -0.039 NA
ENDROOT
BRANCH   5  14
ATOM     14  C   LIG    1       25.235 -24.478   6.246  0.00  0.00    +0.048 A 
ATOM     15  C   LIG    1       25.118 -24.978   4.940  0.00  0.00    +0.014 A 
ATOM     16  C   LIG    1       25.446 -26.307   4.651  0.00  0.00    +0.001 A 
ATOM     17  C   LIG    1       25.873 -27.157   5.668  0.00  0.00    +0.000 A 
ATOM     18  C   LIG    1       25.989 -26.675   6.968  0.00  0.00    +0.001 A 
ATOM     19  C   LIG    1       25.689 -25.338   7.253  0.00  0.00    +0.014 A 
ENDBRANCH   5  14
BRANCH   1  21
ATOM     20  C   LIG    1       22.158 -18.816   4.503  0.00  0.00    +0.273 C 
ATOM     21  N   LIG    1       22.317 -20.161   5.010  0.00  0.00    -0.235 N 
ATOM     22  H   LIG    1       21.868 -20.864   4.429  0.00  0.00    +0.291 HD
ENDBRANCH   1  21
TORSDOF 2
ENDMDL
MODEL 2
REMARK VINA RESULT:      -9.2      2.392      4.822
REMARK  Name = *****
REMARK                            x       y       z     vdW  Elec       q    Type
REMARK                         _______ _______ _______ _____ _____    ______ ____
ROOT
ATOM      1  C   LIG    1       22.762 -20.227   4.710  0.00  0.00    +0.354 C 
ATOM      2  C   LIG    1       23.885 -20.529   3.745  0.00  0.00    +0.492 C 
ATOM      3  N   LIG    1       25.107 -20.127   4.471  0.00  0.00    -0.191 N 
ATOM      4  O   LIG    1       25.660 -19.049   4.060  0.00  0.00    -0.624 OA
ATOM      5  C   LIG    1       25.582 -20.820   5.500  0.00  0.00    +0.233 C 
ATOM      6  C   LIG    1       24.832 -22.038   5.934  0.00  0.00    +0.100 A 
ATOM      7  C   LIG    1       23.426 -22.028   6.066  0.00  0.00    +0.190 A 
ATOM      8  C   LIG    1       22.785 -23.195   6.500  0.00  0.00    +0.057 A 
ATOM      9  C   LIG    1       23.508 -24.364   6.752  0.00  0.00    +0.024 A 
ATOM     10  C   LIG    1       24.888 -24.370   6.576  0.00  0.00    +0.042 A 
ATOM     11 CL   LIG    1       25.774 -25.818   6.855  0.00  0.00    -0.084 Cl
ATOM     12  C   LIG    1       25.556 -23.216   6.172  0.00  0.00    +0.038 A 
ATOM     13  N   LIG    1       22.595 -20.926   5.799  0.00  0.00    -0.039 NA
ENDROOT
BRANCH   5  14
ATOM     14  C   LIG    1       26.813 -20.399   6.246  0.00  0.00    +0.048 A 
ATOM     15  C   LIG    1       26.813 -20.430   7.649  0.00  0.00    +0.014 A 
ATOM     16  C   LIG    1       27.953 -20.057   8.371  0.00  0.00    +0.001 A 
ATOM     17  C   LIG    1       29.095 -19.628   7.701  0.00  0.00    +0.000 A 
ATOM     18  C   LIG    1       29.105 -19.588   6.309  0.00  0.00    +0.001 A 
ATOM     19  C   LIG    1       27.977 -19.988   5.585  0.00  0.00    +0.014 A 
ENDBRANCH   5  14
BRANCH   1  21
ATOM     20  C   LIG    1       22.370 -17.792   4.576  0.00  0.00    +0.273 C 
ATOM     21  N   LIG    1       21.942 -19.162   4.395  0.00  0.00    -0.235 N 
ATOM     22  H   LIG    1       21.343 -19.291   3.584  0.00  0.00    +0.291 HD
ENDBRANCH   1  21
TORSDOF 2
ENDMDL
MODEL 3
REMARK VINA RESULT:      -7.3      2.613      5.045
REMARK  Name = *****
REMARK                            x       y       z     vdW  Elec       q    Type
REMARK                         _______ _______ _______ _____ _____    ______ ____
ROOT
ATOM      1  C   LIG    1       24.131 -23.126   6.421  0.00  0.00    +0.354 C 
ATOM      2  C   LIG    1       24.101 -22.010   7.441  0.00  0.00    +0.492 C 
ATOM      3  N   LIG    1       25.524 -21.698   7.680  0.00  0.00    -0.191 N 
ATOM      4  O   LIG    1       25.991 -22.092   8.803  0.00  0.00    -0.624 OA
ATOM      5  C   LIG    1       26.277 -21.077   6.777  0.00  0.00    +0.233 C 
ATOM      6  C   LIG    1       25.648 -20.704   5.474  0.00  0.00    +0.100 A 
ATOM      7  C   LIG    1       24.830 -21.611   4.765  0.00  0.00    +0.190 A 
ATOM      8  C   LIG    1       24.289 -21.208   3.538  0.00  0.00    +0.057 A 
ATOM      9  C   LIG    1       24.509 -19.921   3.040  0.00  0.00    +0.024 A 
ATOM     10  C   LIG    1       25.283 -19.025   3.771  0.00  0.00    +0.042 A 
ATOM     11 CL   LIG    1       25.527 -17.430   3.174  0.00  0.00    -0.084 Cl
ATOM     12  C   LIG    1       25.856 -19.407   4.982  0.00  0.00    +0.038 A 
ATOM     13  N   LIG    1       24.505 -22.911   5.190  0.00  0.00    -0.039 NA
ENDROOT
BRANCH   5  14
ATOM     14  C   LIG    1       27.726 -20.778   7.017  0.00  0.00    +0.048 A 
ATOM     15  C   LIG    1       28.335 -19.720   6.324  0.00  0.00    +0.014 A 
ATOM     16  C   LIG    1       29.682 -19.408   6.539  0.00  0.00    +0.001 A 
ATOM     17  C   LIG    1       30.441 -20.162   7.430  0.00  0.00    +0.000 A 
ATOM     18  C   LIG    1       29.849 -21.216   8.120  0.00  0.00    +0.001 A 
ATOM     19  C   LIG    1       28.495 -21.512   7.928  0.00  0.00    +0.014 A 
ENDBRANCH   5  14
BRANCH   1  21
ATOM     20  C   LIG    1       24.138 -25.580   6.143  0.00  0.00    +0.273 C 
ATOM     21  N   LIG    1       23.768 -24.381   6.864  0.00  0.00    -0.235 N 
ATOM     22  H   LIG    1       23.756 -24.508   7.872  0.00  0.00    +0.291 HD
ENDBRANCH   1  21
TORSDOF 2
ENDMDL
MODEL 4
REMARK VINA RESULT:      -7.0      4.980      8.307
REMARK  Name = *****
REMARK                            x       y       z     vdW  Elec       q    Type
REMARK                         _______ _______ _______ _____ _____    ______ ____
ROOT
ATOM      1  C   LIG    1       24.133 -31.343   6.552  0.00  0.00    +0.354 C 
ATOM      2  C   LIG    1       25.506 -30.972   6.039  0.00  0.00    +0.492 C 
ATOM      3  N   LIG    1       25.421 -29.518   5.790  0.00  0.00    -0.191 N 
ATOM      4  O   LIG    1       25.371 -29.175   4.559  0.00  0.00    -0.624 OA
ATOM      5  C   LIG    1       25.367 -28.630   6.777  0.00  0.00    +0.233 C 
ATOM      6  C   LIG    1       25.379 -29.139   8.182  0.00  0.00    +0.100 A 
ATOM      7  C   LIG    1       24.576 -30.232   8.576  0.00  0.00    +0.190 A 
ATOM      8  C   LIG    1       24.615 -30.646   9.913  0.00  0.00    +0.057 A 
ATOM      9  C   LIG    1       25.464 -30.028  10.835  0.00  0.00    +0.024 A 
ATOM     10  C   LIG    1       26.281 -28.980  10.422  0.00  0.00    +0.042 A 
ATOM     11 CL   LIG    1       27.350 -28.240  11.548  0.00  0.00    -0.084 Cl
ATOM     12  C   LIG    1       26.243 -28.529   9.103  0.00  0.00    +0.038 A 
ATOM     13  N   LIG    1       23.720 -30.956   7.727  0.00  0.00    -0.039 NA
ENDROOT
BRANCH   5  14
ATOM     14  C   LIG    1       25.263 -27.157   6.519  0.00  0.00    +0.048 A 
ATOM     15  C   LIG    1       23.996 -26.574   6.355  0.00  0.00    +0.014 A 
ATOM     16  C   LIG    1       23.867 -25.199   6.129  0.00  0.00    +0.001 A 
ATOM     17  C   LIG    1       25.001 -24.396   6.042  0.00  0.00    +0.000 A 
ATOM     18  C   LIG    1       26.263 -24.964   6.198  0.00  0.00    +0.001 A 
ATOM     19  C   LIG    1       26.393 -26.333   6.453  0.00  0.00    +0.014 A 
ENDBRANCH   5  14
BRANCH   1  21
ATOM     20  C   LIG    1       23.033 -33.476   5.972  0.00  0.00    +0.273 C 
ATOM     21  N   LIG    1       23.335 -32.087   5.707  0.00  0.00    -0.235 N 
ATOM     22  H   LIG    1       22.566 -31.586   5.270  0.00  0.00    +0.291 HD
ENDBRANCH   1  21
TORSDOF 2
ENDMDL
MODEL 5
REMARK VINA RESULT:      -6.6      1.778      5.166
REMARK  Name = *****
REMARK                            x       y       z     vdW  Elec       q    Type
REMARK                         _______ _______ _______ _____ _____    ______ ____
ROOT
ATOM      1  C   LIG    1       24.628 -24.081   6.294  0.00  0.00    +0.354 C 
ATOM      2  C   LIG    1       25.236 -23.755   4.948  0.00  0.00    +0.492 C 
ATOM      3  N   LIG    1       24.581 -22.493   4.549  0.00  0.00    -0.191 N 
ATOM      4  O   LIG    1       23.711 -22.597   3.617  0.00  0.00    -0.624 OA
ATOM      5  C   LIG    1       24.852 -21.334   5.140  0.00  0.00    +0.233 C 
ATOM      6  C   LIG    1       25.848 -21.328   6.255  0.00  0.00    +0.100 A 
ATOM      7  C   LIG    1       25.815 -22.305   7.275  0.00  0.00    +0.190 A 
ATOM      8  C   LIG    1       26.762 -22.230   8.304  0.00  0.00    +0.057 A 
ATOM      9  C   LIG    1       27.751 -21.244   8.305  0.00  0.00    +0.024 A 
ATOM     10  C   LIG    1       27.795 -20.315   7.270  0.00  0.00    +0.042 A 
ATOM     11 CL   LIG    1       29.033 -19.120   7.254  0.00  0.00    -0.084 Cl
ATOM     12  C   LIG    1       26.850 -20.347   6.247  0.00  0.00    +0.038 A 
ATOM     13  N   LIG    1       24.896 -23.366   7.351  0.00  0.00    -0.039 NA
ENDROOT
BRANCH   5  14
ATOM     14  C   LIG    1       24.172 -20.058   4.743  0.00  0.00    +0.048 A 
ATOM     15  C   LIG    1       22.897 -19.770   5.255  0.00  0.00    +0.014 A 
ATOM     16  C   LIG    1       22.244 -18.580   4.914  0.00  0.00    +0.001 A 
ATOM     17  C   LIG    1       22.846 -17.677   4.042  0.00  0.00    +0.000 A 
ATOM     18  C   LIG    1       24.108 -17.954   3.524  0.00  0.00    +0.001 A 
ATOM     19  C   LIG    1       24.775 -19.130   3.886  0.00  0.00    +0.014 A 
ENDBRANCH   5  14
BRANCH   1  21
ATOM     20  C   LIG    1       24.136 -26.458   5.838  0.00  0.00    +0.273 C 
ATOM     21  N   LIG    1       23.761 -25.154   6.339  0.00  0.00    -0.235 N 
ATOM     22  H   LIG    1       23.153 -25.196   7.153  0.00  0.00    +0.291 HD
ENDBRANCH   1  21
TORSDOF 2
ENDMDL
