MODEL 1
REMARK VINA RESULT:      -8.6      0.000      0.000
REMARK  Name = *****
REMARK                            x       y       z     vdW  Elec       q    Type
REMARK                         _______ _______ _______ _____ _____    ______ ____
ROOT
ATOM      1  C   LIG    1       29.984 -20.671   8.206  0.00  0.00    +0.164 A 
ATOM      2  C   LIG    1       30.617 -19.631   7.518  0.00  0.00    +0.162 A 
ATOM      3  C   LIG    1       29.954 -19.051   6.428  0.00  0.00    +0.062 A 
ATOM      4  C   LIG    1       28.637 -19.442   6.068  0.00  0.00    +0.044 A 
ATOM      5  C   LIG    1       28.010 -20.472   6.755  0.00  0.00    +0.082 A 
ATOM      6  N   LIG    1       26.755 -20.853   6.476  0.00  0.00    -0.214 NA
ATOM      7  C   LIG    1       26.060 -20.214   5.516  0.00  0.00    +0.220 A 
ATOM      8  N   LIG    1       26.602 -19.239   4.778  0.00  0.00    -0.199 NA
ATOM      9  C   LIG    1       27.859 -18.866   5.058  0.00  0.00    +0.129 A 
ATOM     10  C   LIG    1       28.708 -21.088   7.790  0.00  0.00    +0.078 A 
ENDROOT
BRANCH   9  11
ATOM     11  N   LIG    1       28.335 -17.800   4.280  0.00  0.00    -0.343 N 
ATOM     12  H   LIG    1       29.338 -17.702   4.390  0.00  0.00    +0.144 HD
ATOM     13  H   LIG    1       27.855 -16.970   4.625  0.00  0.00    +0.144 HD
ENDBRANCH   9  11
BRANCH   1  15
ATOM     14  C   LIG    1       31.503 -22.348   8.992  0.00  0.00    +0.277 C 
ATOM     15  O   LIG    1       30.477 -21.397   9.260  0.00  0.00    -0.491 OA
ENDBRANCH   1  15
BRANCH   2  16
ATOM     16  O   LIG    1       31.881 -19.260   7.890  0.00  0.00    -0.491 OA
ATOM     17  C   LIG    1       31.963 -18.161   8.794  0.00  0.00    +0.277 C 
ENDBRANCH   2  16
BRANCH   7  18
ATOM     18  N   LIG    1       24.721 -20.569   5.314  0.00  0.00    -0.303 N 
ATOM     19  C   LIG    1       24.533 -21.440   4.159  0.00  0.00    +0.132 C 
BRANCH  18  20
ATOM     20  C   LIG    1       23.902 -20.860   6.497  0.00  0.00    +0.109 C 
BRANCH  20  21
ATOM     21  C   LIG    1       22.767 -21.846   6.200  0.00  0.00    +0.037 C 
BRANCH  21  22
ATOM     22  C   LIG    1       22.870 -23.151   6.985  0.00  0.00    +0.105 C 
BRANCH  22  23
ATOM     23  N   LIG    1       23.497 -24.215   6.224  0.00  0.00    -0.313 N 
ATOM     24  H   LIG    1       22.919 -24.835   5.660  0.00  0.00    +0.149 HD
ATOM     25  C   LIG    1       24.823 -24.546   6.349  0.00  0.00    +0.242 C 
ATOM     26  O   LIG    1       25.618 -23.893   7.033  0.00  0.00    -0.273 OA
BRANCH  25  27
ATOM     27  C   LIG    1       25.244 -25.764   5.509  0.00  0.00    +0.204 C 
ATOM     28  O   LIG    1       24.161 -26.706   5.368  0.00  0.00    -0.367 OA
ATOM     29  C   LIG    1       24.500 -27.896   6.097  0.00  0.00    +0.161 C 
ATOM     30  C   LIG    1       25.688 -27.557   6.968  0.00  0.00    +0.031 C 
ATOM     31  C   LIG    1       26.402 -26.516   6.143  0.00  0.00    +0.043 C 
ENDBRANCH  25  27
ENDBRANCH  22  23
ENDBRANCH  21  22
ENDBRANCH  20  21
ENDBRANCH  18  20
ENDBRANCH   7  18
TORSDOF 9
ENDMDL
MODEL 2
REMARK VINA RESULT:      -8.0      1.330      2.800
REMARK  Name = *****
REMARK                            x       y       z     vdW  Elec       q    Type
REMARK                         _______ _______ _______ _____ _____    ______ ____
ROOT
ATOM      1  C   LIG    1       30.713 -19.516   7.353  0.00  0.00    +0.164 A 
ATOM      2  C   LIG    1       30.536 -20.653   8.145  0.00  0.00    +0.162 A 
ATOM      3  C   LIG    1       29.296 -21.307   8.108  0.00  0.00    +0.062 A 
ATOM      4  C   LIG    1       28.261 -20.884   7.231  0.00  0.00    +0.044 A 
ATOM      5  C   LIG    1       28.442 -19.757   6.442  0.00  0.00    +0.082 A 
ATOM      6  N   LIG    1       27.510 -19.340   5.573  0.00  0.00    -0.214 NA
ATOM      7  C   LIG    1       26.367 -20.037   5.434  0.00  0.00    +0.220 A 
ATOM      8  N   LIG    1       26.095 -21.110   6.183  0.00  0.00    -0.199 NA
ATOM      9  C   LIG    1       27.028 -21.520   7.054  0.00  0.00    +0.129 A 
ATOM     10  C   LIG    1       29.652 -19.075   6.543  0.00  0.00    +0.078 A 
ENDROOT
BRANCH   9  11
ATOM     11  N   LIG    1       26.692 -22.684   7.760  0.00  0.00    -0.343 N 
ATOM     12  H   LIG    1       27.520 -23.101   8.170  0.00  0.00    +0.144 HD
ATOM     13  H   LIG    1       26.278 -23.314   7.074  0.00  0.00    +0.144 HD
ENDBRANCH   9  11
BRANCH   1  15
ATOM     14  C   LIG    1       32.049 -17.793   8.345  0.00  0.00    +0.277 C 
ATOM     15  O   LIG    1       31.822 -18.711   7.281  0.00  0.00    -0.491 OA
ENDBRANCH   1  15
BRANCH   2  16
ATOM     16  O   LIG    1       31.549 -21.052   8.974  0.00  0.00    -0.491 OA
ATOM     17  C   LIG    1       31.445 -22.377   9.486  0.00  0.00    +0.277 C 
ENDBRANCH   2  16
BRANCH   7  18
ATOM     18  N   LIG    1       25.456 -19.633   4.450  0.00  0.00    -0.303 N 
ATOM     19  C   LIG    1       26.043 -18.725   3.471  0.00  0.00    +0.132 C 
BRANCH  18  20
ATOM     20  C   LIG    1       24.512 -20.633   3.937  0.00  0.00    +0.109 C 
BRANCH  20  21
ATOM     21  C   LIG    1       23.079 -20.395   4.425  0.00  0.00    +0.037 C 
BRANCH  21  22
ATOM     22  C   LIG    1       22.598 -21.431   5.438  0.00  0.00    +0.105 C 
BRANCH  22  23
ATOM     23  N   LIG    1       23.607 -22.426   5.744  0.00  0.00    -0.313 N 
ATOM     24  H   LIG    1       24.543 -22.326   5.357  0.00  0.00    +0.149 HD
ATOM     25  C   LIG    1       23.330 -23.600   6.398  0.00  0.00    +0.242 C 
ATOM     26  O   LIG    1       22.222 -23.856   6.882  0.00  0.00    -0.273 OA
BRANCH  25  27
ATOM     27  C   LIG    1       24.540 -24.540   6.533  0.00  0.00    +0.204 C 
ATOM     28  O   LIG    1       25.440 -24.403   5.415  0.00  0.00    -0.367 OA
ATOM     29  C   LIG    1       25.394 -25.615   4.646  0.00  0.00    +0.161 C 
ATOM     30  C   LIG    1       24.197 -26.400   5.130  0.00  0.00    +0.031 C 
ATOM     31  C   LIG    1       24.120 -26.000   6.582  0.00  0.00    +0.043 C 
ENDBRANCH  25  27
ENDBRANCH  22  23
ENDBRANCH  21  22
ENDBRANCH  20  21
ENDBRANCH  18  20
ENDBRANCH   7  18
TORSDOF 9
ENDMDL
MODEL 3
REMARK VINA RESULT:      -8.0      2.068      8.538
REMARK  Name = *****
REMARK                            x       y       z     vdW  Elec       q    Type
REMARK                         _______ _______ _______ _____ _____    ______ ____
ROOT
ATOM      1  C   LIG    1       25.924 -26.731   5.682  0.00  0.00    +0.164 A 
ATOM      2  C   LIG    1       24.538 -26.885   5.591  0.00  0.00    +0.162 A 
ATOM      3  C   LIG    1       23.719 -25.823   5.996  0.00  0.00    +0.062 A 
ATOM      4  C   LIG    1       24.269 -24.582   6.417  0.00  0.00    +0.044 A 
ATOM      5  C   LIG    1       25.646 -24.430   6.503  0.00  0.00    +0.082 A 
ATOM      6  N   LIG    1       26.213 -23.269   6.860  0.00  0.00    -0.214 NA
ATOM      7  C   LIG    1       25.438 -22.201   7.125  0.00  0.00    +0.220 A 
ATOM      8  N   LIG    1       24.103 -22.271   7.106  0.00  0.00    -0.199 NA
ATOM      9  C   LIG    1       23.541 -23.435   6.754  0.00  0.00    +0.129 A 
ATOM     10  C   LIG    1       26.446 -25.519   6.166  0.00  0.00    +0.078 A 
ENDROOT
BRANCH   9  11
ATOM     11  N   LIG    1       22.139 -23.412   6.701  0.00  0.00    -0.343 N 
ATOM     12  H   LIG    1       21.782 -22.569   7.135  0.00  0.00    +0.144 HD
ATOM     13  H   LIG    1       21.830 -24.236   7.215  0.00  0.00    +0.144 HD
ENDBRANCH   9  11
BRANCH   1  15
ATOM     14  C   LIG    1       28.056 -27.211   4.700  0.00  0.00    +0.277 C 
ATOM     15  O   LIG    1       26.890 -27.659   5.385  0.00  0.00    -0.491 OA
ENDBRANCH   1  15
BRANCH   2  16
ATOM     16  O   LIG    1       24.028 -28.084   5.170  0.00  0.00    -0.491 OA
ATOM     17  C   LIG    1       24.088 -29.148   6.116  0.00  0.00    +0.277 C 
ENDBRANCH   2  16
BRANCH   7  18
ATOM     18  N   LIG    1       26.061 -20.978   7.400  0.00  0.00    -0.303 N 
ATOM     19  C   LIG    1       25.894 -20.554   8.786  0.00  0.00    +0.132 C 
BRANCH  18  20
ATOM     20  C   LIG    1       27.370 -20.721   6.787  0.00  0.00    +0.109 C 
BRANCH  20  21
ATOM     21  C   LIG    1       28.533 -20.984   7.750  0.00  0.00    +0.037 C 
BRANCH  21  22
ATOM     22  C   LIG    1       29.883 -20.498   7.227  0.00  0.00    +0.105 C 
BRANCH  22  23
ATOM     23  N   LIG    1       30.308 -19.255   7.841  0.00  0.00    -0.313 N 
ATOM     24  H   LIG    1       29.886 -18.378   7.540  0.00  0.00    +0.149 HD
ATOM     25  C   LIG    1       31.377 -19.168   8.697  0.00  0.00    +0.242 C 
ATOM     26  O   LIG    1       31.994 -20.157   9.106  0.00  0.00    -0.273 OA
BRANCH  25  27
ATOM     27  C   LIG    1       31.695 -17.733   9.153  0.00  0.00    +0.204 C 
ATOM     28  O   LIG    1       32.553 -17.728  10.311  0.00  0.00    -0.367 OA
ATOM     29  C   LIG    1       31.800 -17.232  11.429  0.00  0.00    +0.161 C 
ATOM     30  C   LIG    1       30.347 -17.228  11.015  0.00  0.00    +0.031 C 
ATOM     31  C   LIG    1       30.438 -16.968   9.533  0.00  0.00    +0.043 C 
ENDBRANCH  25  27
ENDBRANCH  22  23
ENDBRANCH  21  22
ENDBRANCH  20  21
ENDBRANCH  18  20
ENDBRANCH   7  18
TORSDOF 9
ENDMDL
MODEL 4
REMARK VINA RESULT:      -7.9      1.757      2.647
REMARK  Name = *****
REMARK                            x       y       z     vdW  Elec       q    Type
REMARK                         _______ _______ _______ _____ _____    ______ ____
ROOT
ATOM      1  C   LIG    1       29.773 -20.540   8.012  0.00  0.00    +0.164 A 
ATOM      2  C   LIG    1       29.842 -19.574   7.005  0.00  0.00    +0.162 A 
ATOM      3  C   LIG    1       28.795 -19.499   6.076  0.00  0.00    +0.062 A 
ATOM      4  C   LIG    1       27.644 -20.326   6.189  0.00  0.00    +0.044 A 
ATOM      5  C   LIG    1       27.577 -21.282   7.193  0.00  0.00    +0.082 A 
ATOM      6  N   LIG    1       26.498 -22.060   7.363  0.00  0.00    -0.214 NA
ATOM      7  C   LIG    1       25.431 -21.908   6.557  0.00  0.00    +0.220 A 
ATOM      8  N   LIG    1       25.428 -21.039   5.540  0.00  0.00    -0.199 NA
ATOM      9  C   LIG    1       26.511 -20.268   5.371  0.00  0.00    +0.129 A 
ATOM     10  C   LIG    1       28.657 -21.393   8.065  0.00  0.00    +0.078 A 
ENDROOT
BRANCH   9  11
ATOM     11  N   LIG    1       26.409 -19.344   4.321  0.00  0.00    -0.343 N 
ATOM     12  H   LIG    1       27.286 -19.283   3.816  0.00  0.00    +0.144 HD
ATOM     13  H   LIG    1       26.186 -18.451   4.759  0.00  0.00    +0.144 HD
ENDBRANCH   9  11
BRANCH   1  15
ATOM     14  C   LIG    1       31.051 -22.168   9.219  0.00  0.00    +0.277 C 
ATOM     15  O   LIG    1       30.707 -20.806   8.981  0.00  0.00    -0.491 OA
ENDBRANCH   1  15
BRANCH   2  16
ATOM     16  O   LIG    1       30.953 -18.778   6.921  0.00  0.00    -0.491 OA
ATOM     17  C   LIG    1       31.279 -18.044   8.097  0.00  0.00    +0.277 C 
ENDBRANCH   2  16
BRANCH   7  18
ATOM     18  N   LIG    1       24.284 -22.667   6.819  0.00  0.00    -0.303 N 
ATOM     19  C   LIG    1       23.070 -22.066   6.278  0.00  0.00    +0.132 C 
BRANCH  18  20
ATOM     20  C   LIG    1       24.392 -24.128   6.727  0.00  0.00    +0.109 C 
BRANCH  20  21
ATOM     21  C   LIG    1       25.127 -24.586   5.462  0.00  0.00    +0.037 C 
BRANCH  21  22
ATOM     22  C   LIG    1       26.024 -25.801   5.682  0.00  0.00    +0.105 C 
BRANCH  22  23
ATOM     23  N   LIG    1       25.307 -27.057   5.567  0.00  0.00    -0.313 N 
ATOM     24  H   LIG    1       24.757 -27.244   4.731  0.00  0.00    +0.149 HD
ATOM     25  C   LIG    1       25.187 -27.950   6.601  0.00  0.00    +0.242 C 
ATOM     26  O   LIG    1       25.776 -27.815   7.679  0.00  0.00    -0.273 OA
BRANCH  25  27
ATOM     27  C   LIG    1       24.307 -29.169   6.274  0.00  0.00    +0.204 C 
ATOM     28  O   LIG    1       23.835 -29.815   7.473  0.00  0.00    -0.367 OA
ATOM     29  C   LIG    1       24.465 -31.102   7.571  0.00  0.00    +0.161 C 
ATOM     30  C   LIG    1       25.595 -31.118   6.566  0.00  0.00    +0.031 C 
ATOM     31  C   LIG    1       25.066 -30.218   5.478  0.00  0.00    +0.043 C 
ENDBRANCH  25  27
ENDBRANCH  22  23
ENDBRANCH  21  22
ENDBRANCH  20  21
ENDBRANCH  18  20
ENDBRANCH   7  18
TORSDOF 9
ENDMDL
MODEL 5
REMARK VINA RESULT:      -7.7      3.261      8.766
REMARK  Name = *****
REMARK                            x       y       z     vdW  Elec       q    Type
REMARK                         _______ _______ _______ _____ _____    ______ ____
ROOT
ATOM      1  C   LIG    1       26.609 -29.980   9.543  0.00  0.00    +0.164 A 
ATOM      2  C   LIG    1       25.774 -30.885   8.882  0.00  0.00    +0.162 A 
ATOM      3  C   LIG    1       25.000 -30.421   7.809  0.00  0.00    +0.062 A 
ATOM      4  C   LIG    1       25.112 -29.084   7.340  0.00  0.00    +0.044 A 
ATOM      5  C   LIG    1       25.945 -28.189   7.995  0.00  0.00    +0.082 A 
ATOM      6  N   LIG    1       26.111 -26.928   7.569  0.00  0.00    -0.214 NA
ATOM      7  C   LIG    1       25.473 -26.509   6.461  0.00  0.00    +0.220 A 
ATOM      8  N   LIG    1       24.620 -27.293   5.792  0.00  0.00    -0.199 NA
ATOM      9  C   LIG    1       24.454 -28.551   6.226  0.00  0.00    +0.129 A 
ATOM     10  C   LIG    1       26.652 -28.645   9.104  0.00  0.00    +0.078 A 
ENDROOT
BRANCH   9  11
ATOM     11  N   LIG    1       23.590 -29.327   5.440  0.00  0.00    -0.343 N 
ATOM     12  H   LIG    1       23.810 -29.217   4.456  0.00  0.00    +0.144 HD
ATOM     13  H   LIG    1       22.652 -28.981   5.636  0.00  0.00    +0.144 HD
ENDBRANCH   9  11
BRANCH   1  15
ATOM     14  C   LIG    1       27.821 -29.102  11.413  0.00  0.00    +0.277 C 
ATOM     15  O   LIG    1       27.403 -30.220  10.635  0.00  0.00    -0.491 OA
ENDBRANCH   1  15
BRANCH   2  16
ATOM     16  O   LIG    1       25.691 -32.172   9.342  0.00  0.00    -0.491 OA
ATOM     17  C   LIG    1       26.554 -33.112   8.709  0.00  0.00    +0.277 C 
ENDBRANCH   2  16
BRANCH   7  18
ATOM     18  N   LIG    1       25.741 -25.219   5.986  0.00  0.00    -0.303 N 
ATOM     19  C   LIG    1       24.982 -24.888   4.785  0.00  0.00    +0.132 C 
BRANCH  18  20
ATOM     20  C   LIG    1       25.912 -24.146   6.973  0.00  0.00    +0.109 C 
BRANCH  20  21
ATOM     21  C   LIG    1       24.759 -23.137   6.952  0.00  0.00    +0.037 C 
BRANCH  21  22
ATOM     22  C   LIG    1       25.206 -21.702   6.686  0.00  0.00    +0.105 C 
BRANCH  22  23
ATOM     23  N   LIG    1       26.647 -21.576   6.572  0.00  0.00    -0.313 N 
ATOM     24  H   LIG    1       27.131 -22.039   5.805  0.00  0.00    +0.149 HD
ATOM     25  C   LIG    1       27.429 -21.000   7.541  0.00  0.00    +0.242 C 
ATOM     26  O   LIG    1       26.962 -20.439   8.538  0.00  0.00    -0.273 OA
BRANCH  25  27
ATOM     27  C   LIG    1       28.937 -21.059   7.242  0.00  0.00    +0.204 C 
ATOM     28  O   LIG    1       29.716 -21.027   8.455  0.00  0.00    -0.367 OA
ATOM     29  C   LIG    1       30.425 -19.779   8.504  0.00  0.00    +0.161 C 
ATOM     30  C   LIG    1       29.821 -18.887   7.444  0.00  0.00    +0.031 C 
ATOM     31  C   LIG    1       29.392 -19.882   6.395  0.00  0.00    +0.043 C 
ENDBRANCH  25  27
ENDBRANCH  22  23
ENDBRANCH  21  22
ENDBRANCH  20  21
ENDBRANCH  18  20
ENDBRANCH   7  18
TORSDOF 9
ENDMDL
MODEL 6
REMARK VINA RESULT:      -7.4      3.789      8.708
REMARK  Name = *****
REMARK                            x       y       z     vdW  Elec       q    Type
REMARK                         _______ _______ _______ _____ _____    ______ ____
ROOT
ATOM      1  C   LIG    1       26.724 -29.960   9.488  0.00  0.00    +0.164 A 
ATOM      2  C   LIG    1       25.972 -30.931   8.822  0.00  0.00    +0.162 A 
ATOM      3  C   LIG    1       25.145 -30.528   7.764  0.00  0.00    +0.062 A 
ATOM      4  C   LIG    1       25.122 -29.180   7.314  0.00  0.00    +0.044 A 
ATOM      5  C   LIG    1       25.873 -28.218   7.976  0.00  0.00    +0.082 A 
ATOM      6  N   LIG    1       25.912 -26.941   7.568  0.00  0.00    -0.214 NA
ATOM      7  C   LIG    1       25.224 -26.569   6.473  0.00  0.00    +0.220 A 
ATOM      8  N   LIG    1       24.444 -27.422   5.801  0.00  0.00    -0.199 NA
ATOM      9  C   LIG    1       24.404 -28.695   6.216  0.00  0.00    +0.129 A 
ATOM     10  C   LIG    1       26.633 -28.621   9.070  0.00  0.00    +0.078 A 
ENDROOT
BRANCH   9  11
ATOM     11  N   LIG    1       23.609 -29.539   5.426  0.00  0.00    -0.343 N 
ATOM     12  H   LIG    1       24.190 -30.116   4.828  0.00  0.00    +0.144 HD
ATOM     13  H   LIG    1       23.023 -28.922   4.866  0.00  0.00    +0.144 HD
ENDBRANCH   9  11
BRANCH   1  15
ATOM     14  C   LIG    1       27.095 -29.679  11.838  0.00  0.00    +0.277 C 
ATOM     15  O   LIG    1       27.549 -30.138  10.569  0.00  0.00    -0.491 OA
ENDBRANCH   1  15
BRANCH   2  16
ATOM     16  O   LIG    1       26.018 -32.227   9.261  0.00  0.00    -0.491 OA
ATOM     17  C   LIG    1       27.069 -33.025   8.726  0.00  0.00    +0.277 C 
ENDBRANCH   2  16
BRANCH   7  18
ATOM     18  N   LIG    1       25.361 -25.253   6.016  0.00  0.00    -0.303 N 
ATOM     19  C   LIG    1       25.087 -25.115   4.590  0.00  0.00    +0.132 C 
BRANCH  18  20
ATOM     20  C   LIG    1       24.882 -24.171   6.885  0.00  0.00    +0.109 C 
BRANCH  20  21
ATOM     21  C   LIG    1       26.027 -23.350   7.489  0.00  0.00    +0.037 C 
BRANCH  21  22
ATOM     22  C   LIG    1       26.263 -22.017   6.782  0.00  0.00    +0.105 C 
BRANCH  22  23
ATOM     23  N   LIG    1       25.176 -21.654   5.893  0.00  0.00    -0.313 N 
ATOM     24  H   LIG    1       24.332 -22.223   5.876  0.00  0.00    +0.149 HD
ATOM     25  C   LIG    1       25.282 -20.674   4.939  0.00  0.00    +0.242 C 
ATOM     26  O   LIG    1       26.271 -19.940   4.834  0.00  0.00    -0.273 OA
BRANCH  25  27
ATOM     27  C   LIG    1       24.032 -20.526   4.055  0.00  0.00    +0.204 C 
ATOM     28  O   LIG    1       23.928 -19.196   3.509  0.00  0.00    -0.367 OA
ATOM     29  C   LIG    1       22.795 -18.548   4.109  0.00  0.00    +0.161 C 
ATOM     30  C   LIG    1       22.377 -19.395   5.289  0.00  0.00    +0.031 C 
ATOM     31  C   LIG    1       22.754 -20.783   4.835  0.00  0.00    +0.043 C 
ENDBRANCH  25  27
ENDBRANCH  22  23
ENDBRANCH  21  22
ENDBRANCH  20  21
ENDBRANCH  18  20
ENDBRANCH   7  18
TORSDOF 9
ENDMDL
MODEL 7
REMARK VINA RESULT:      -7.0      3.427      9.684
REMARK  Name = *****
REMARK                            x       y       z     vdW  Elec       q    Type
REMARK                         _______ _______ _______ _____ _____    ______ ____
ROOT
ATOM      1  C   LIG    1       23.987 -31.546   6.552  0.00  0.00    +0.164 A 
ATOM      2  C   LIG    1       24.413 -31.791   7.861  0.00  0.00    +0.162 A 
ATOM      3  C   LIG    1       25.158 -30.802   8.518  0.00  0.00    +0.062 A 
ATOM      4  C   LIG    1       25.413 -29.541   7.912  0.00  0.00    +0.044 A 
ATOM      5  C   LIG    1       24.985 -29.299   6.614  0.00  0.00    +0.082 A 
ATOM      6  N   LIG    1       25.170 -28.115   6.013  0.00  0.00    -0.214 NA
ATOM      7  C   LIG    1       25.769 -27.113   6.682  0.00  0.00    +0.220 A 
ATOM      8  N   LIG    1       26.248 -27.273   7.921  0.00  0.00    -0.199 NA
ATOM      9  C   LIG    1       26.065 -28.460   8.515  0.00  0.00    +0.129 A 
ATOM     10  C   LIG    1       24.309 -30.318   5.948  0.00  0.00    +0.078 A 
ENDROOT
BRANCH   9  11
ATOM     11  N   LIG    1       26.544 -28.531   9.831  0.00  0.00    -0.343 N 
ATOM     12  H   LIG    1       25.918 -29.084  10.407  0.00  0.00    +0.144 HD
ATOM     13  H   LIG    1       26.579 -27.569  10.165  0.00  0.00    +0.144 HD
ENDBRANCH   9  11
BRANCH   1  15
ATOM     14  C   LIG    1       24.045 -33.294   4.916  0.00  0.00    +0.277 C 
ATOM     15  O   LIG    1       23.295 -32.394   5.726  0.00  0.00    -0.491 OA
ENDBRANCH   1  15
BRANCH   2  16
ATOM     16  O   LIG    1       24.146 -33.006   8.431  0.00  0.00    -0.491 OA
ATOM     17  C   LIG    1       25.208 -33.582   9.186  0.00  0.00    +0.277 C 
ENDBRANCH   2  16
BRANCH   7  18
ATOM     18  N   LIG    1       25.861 -25.860   6.064  0.00  0.00    -0.303 N 
ATOM     19  C   LIG    1       25.158 -25.805   4.786  0.00  0.00    +0.132 C 
BRANCH  18  20
ATOM     20  C   LIG    1       25.773 -24.667   6.914  0.00  0.00    +0.109 C 
BRANCH  20  21
ATOM     21  C   LIG    1       24.758 -23.644   6.393  0.00  0.00    +0.037 C 
BRANCH  21  22
ATOM     22  C   LIG    1       25.109 -22.200   6.741  0.00  0.00    +0.105 C 
BRANCH  22  23
ATOM     23  N   LIG    1       26.525 -21.918   6.600  0.00  0.00    -0.313 N 
ATOM     24  H   LIG    1       26.983 -22.088   5.706  0.00  0.00    +0.149 HD
ATOM     25  C   LIG    1       27.334 -21.590   7.659  0.00  0.00    +0.242 C 
ATOM     26  O   LIG    1       26.903 -21.394   8.800  0.00  0.00    -0.273 OA
BRANCH  25  27
ATOM     27  C   LIG    1       28.816 -21.423   7.282  0.00  0.00    +0.204 C 
ATOM     28  O   LIG    1       29.615 -21.077   8.431  0.00  0.00    -0.367 OA
ATOM     29  C   LIG    1       30.083 -19.729   8.267  0.00  0.00    +0.161 C 
ATOM     30  C   LIG    1       29.291 -19.122   7.132  0.00  0.00    +0.031 C 
ATOM     31  C   LIG    1       29.019 -20.320   6.257  0.00  0.00    +0.043 C 
ENDBRANCH  25  27
ENDBRANCH  22  23
ENDBRANCH  21  22
ENDBRANCH  20  21
ENDBRANCH  18  20
ENDBRANCH   7  18
TORSDOF 9
ENDMDL
MODEL 8
REMARK VINA RESULT:      -6.6      4.721     10.002
REMARK  Name = *****
REMARK                            x       y       z     vdW  Elec       q    Type
REMARK                         _______ _______ _______ _____ _____    ______ ____
ROOT
ATOM      1  C   LIG    1       22.445 -30.846  11.243  0.00  0.00    +0.164 A 
ATOM      2  C   LIG    1       23.413 -30.482  12.183  0.00  0.00    +0.162 A 
ATOM      3  C   LIG    1       24.622 -29.942  11.723  0.00  0.00    +0.062 A 
ATOM      4  C   LIG    1       24.842 -29.688  10.341  0.00  0.00    +0.044 A 
ATOM      5  C   LIG    1       23.877 -30.047   9.411  0.00  0.00    +0.082 A 
ATOM      6  N   LIG    1       24.023 -29.797   8.102  0.00  0.00    -0.214 NA
ATOM      7  C   LIG    1       25.124 -29.160   7.662  0.00  0.00    +0.220 A 
ATOM      8  N   LIG    1       26.120 -28.815   8.485  0.00  0.00    -0.199 NA
ATOM      9  C   LIG    1       25.972 -29.073   9.792  0.00  0.00    +0.129 A 
ATOM     10  C   LIG    1       22.711 -30.649   9.877  0.00  0.00    +0.078 A 
ENDROOT
BRANCH   9  11
ATOM     11  N   LIG    1       27.033 -28.631  10.596  0.00  0.00    -0.343 N 
ATOM     12  H   LIG    1       26.823 -28.784  11.576  0.00  0.00    +0.144 HD
ATOM     13  H   LIG    1       27.129 -27.635  10.403  0.00  0.00    +0.144 HD
ENDBRANCH   9  11
BRANCH   1  15
ATOM     14  C   LIG    1       20.151 -31.109  10.604  0.00  0.00    +0.277 C 
ATOM     15  O   LIG    1       21.226 -31.430  11.481  0.00  0.00    -0.491 OA
ENDBRANCH   1  15
BRANCH   2  16
ATOM     16  O   LIG    1       23.176 -30.721  13.510  0.00  0.00    -0.491 OA
ATOM     17  C   LIG    1       22.553 -29.661  14.229  0.00  0.00    +0.277 C 
ENDBRANCH   2  16
BRANCH   7  18
ATOM     18  N   LIG    1       25.203 -28.826   6.305  0.00  0.00    -0.303 N 
ATOM     19  C   LIG    1       25.194 -29.994   5.432  0.00  0.00    +0.132 C 
BRANCH  18  20
ATOM     20  C   LIG    1       24.452 -27.653   5.842  0.00  0.00    +0.109 C 
BRANCH  20  21
ATOM     21  C   LIG    1       25.361 -26.558   5.272  0.00  0.00    +0.037 C 
BRANCH  21  22
ATOM     22  C   LIG    1       25.799 -25.527   6.309  0.00  0.00    +0.105 C 
BRANCH  22  23
ATOM     23  N   LIG    1       25.336 -24.188   5.998  0.00  0.00    -0.313 N 
ATOM     24  H   LIG    1       25.993 -23.503   5.629  0.00  0.00    +0.149 HD
ATOM     25  C   LIG    1       24.085 -23.730   6.329  0.00  0.00    +0.242 C 
ATOM     26  O   LIG    1       23.211 -24.454   6.816  0.00  0.00    -0.273 OA
BRANCH  25  27
ATOM     27  C   LIG    1       23.849 -22.251   5.979  0.00  0.00    +0.204 C 
ATOM     28  O   LIG    1       25.019 -21.659   5.378  0.00  0.00    -0.367 OA
ATOM     29  C   LIG    1       25.558 -20.693   6.294  0.00  0.00    +0.161 C 
ATOM     30  C   LIG    1       24.881 -20.922   7.626  0.00  0.00    +0.031 C 
ATOM     31  C   LIG    1       23.520 -21.423   7.210  0.00  0.00    +0.043 C 
ENDBRANCH  25  27
ENDBRANCH  22  23
ENDBRANCH  21  22
ENDBRANCH  20  21
ENDBRANCH  18  20
ENDBRANCH   7  18
TORSDOF 9
ENDMDL
MODEL 9
REMARK VINA RESULT:      -6.5      4.653      9.405
REMARK  Name = *****
REMARK                            x       y       z     vdW  Elec       q    Type
REMARK                         _______ _______ _______ _____ _____    ______ ____
ROOT
ATOM      1  C   LIG    1       26.214 -28.922  12.054  0.00  0.00    +0.164 A 
ATOM      2  C   LIG    1       25.220 -29.779  12.533  0.00  0.00    +0.162 A 
ATOM      3  C   LIG    1       24.319 -30.338  11.616  0.00  0.00    +0.062 A 
ATOM      4  C   LIG    1       24.450 -30.113  10.219  0.00  0.00    +0.044 A 
ATOM      5  C   LIG    1       25.441 -29.264   9.745  0.00  0.00    +0.082 A 
ATOM      6  N   LIG    1       25.627 -29.048   8.435  0.00  0.00    -0.214 NA
ATOM      7  C   LIG    1       24.850 -29.682   7.537  0.00  0.00    +0.220 A 
ATOM      8  N   LIG    1       23.847 -30.485   7.908  0.00  0.00    -0.199 NA
ATOM      9  C   LIG    1       23.662 -30.693   9.219  0.00  0.00    +0.129 A 
ATOM     10  C   LIG    1       26.283 -28.659  10.675  0.00  0.00    +0.078 A 
ENDROOT
BRANCH   9  11
ATOM     11  N   LIG    1       22.628 -31.590   9.525  0.00  0.00    -0.343 N 
ATOM     12  H   LIG    1       22.010 -31.194  10.223  0.00  0.00    +0.144 HD
ATOM     13  H   LIG    1       23.086 -32.426   9.887  0.00  0.00    +0.144 HD
ENDBRANCH   9  11
BRANCH   1  15
ATOM     14  C   LIG    1       26.877 -26.889  13.133  0.00  0.00    +0.277 C 
ATOM     15  O   LIG    1       27.155 -28.242  12.785  0.00  0.00    -0.491 OA
ENDBRANCH   1  15
BRANCH   2  16
ATOM     16  O   LIG    1       25.119 -29.994  13.881  0.00  0.00    -0.491 OA
ATOM     17  C   LIG    1       24.201 -29.154  14.575  0.00  0.00    +0.277 C 
ENDBRANCH   2  16
BRANCH   7  18
ATOM     18  N   LIG    1       25.131 -29.512   6.176  0.00  0.00    -0.303 N 
ATOM     19  C   LIG    1       25.501 -30.757   5.512  0.00  0.00    +0.132 C 
BRANCH  18  20
ATOM     20  C   LIG    1       24.287 -28.585   5.412  0.00  0.00    +0.109 C 
BRANCH  20  21
ATOM     21  C   LIG    1       24.392 -27.141   5.916  0.00  0.00    +0.037 C 
BRANCH  21  22
ATOM     22  C   LIG    1       25.312 -26.264   5.070  0.00  0.00    +0.105 C 
BRANCH  22  23
ATOM     23  N   LIG    1       24.853 -24.891   4.984  0.00  0.00    -0.313 N 
ATOM     24  H   LIG    1       24.361 -24.579   4.149  0.00  0.00    +0.149 HD
ATOM     25  C   LIG    1       25.192 -23.927   5.900  0.00  0.00    +0.242 C 
ATOM     26  O   LIG    1       25.820 -24.174   6.936  0.00  0.00    -0.273 OA
BRANCH  25  27
ATOM     27  C   LIG    1       24.663 -22.524   5.555  0.00  0.00    +0.204 C 
ATOM     28  O   LIG    1       25.577 -21.496   5.987  0.00  0.00    -0.367 OA
ATOM     29  C   LIG    1       24.961 -20.765   7.059  0.00  0.00    +0.161 C 
ATOM     30  C   LIG    1       23.761 -21.568   7.508  0.00  0.00    +0.031 C 
ATOM     31  C   LIG    1       23.331 -22.240   6.229  0.00  0.00    +0.043 C 
ENDBRANCH  25  27
ENDBRANCH  22  23
ENDBRANCH  21  22
ENDBRANCH  20  21
ENDBRANCH  18  20
ENDBRANCH   7  18
TORSDOF 9
ENDMDL
