MODEL 1
REMARK VINA RESULT:      -5.6      0.000      0.000
REMARK  Name = *****
REMARK                            x       y       z     vdW  Elec       q    Type
REMARK                         _______ _______ _______ _____ _____    ______ ____
ROOT
ATOM      1  O   LIG    1       31.810 -19.277   9.594  0.00  0.00    -0.279 OA
ENDROOT
BRANCH   1   3
ATOM      2  O   LIG    1       29.723 -20.511   8.622  0.00  0.00    -0.228 OA
ATOM      3  P   LIG    1       31.194 -20.320   8.547  0.00  0.00    +0.473 P 
BRANCH   3   4
ATOM      4  O   LIG    1       31.671 -19.814   7.110  0.00  0.00    -0.303 OA
ATOM      5  H   LIG    1       31.605 -18.846   7.030  0.00  0.00    +0.222 HD
ENDBRANCH   3   4
BRANCH   3   6
ATOM      6  O   LIG    1       32.018 -21.673   8.726  0.00  0.00    -0.303 OA
ATOM      7  H   LIG    1       31.654 -22.389   8.172  0.00  0.00    +0.222 HD
ENDBRANCH   3   6
ENDBRANCH   1   3
BRANCH   1   8
ATOM      8  C   LIG    1       31.380 -17.911   9.534  0.00  0.00    +0.181 C 
BRANCH   8   9
ATOM      9  C   LIG    1       32.560 -16.958   9.770  0.00  0.00    +0.190 C 
BRANCH   9  10
ATOM     10  O   LIG    1       32.586 -15.865   8.865  0.00  0.00    -0.392 OA
ATOM     11  H   LIG    1       32.178 -15.080   9.284  0.00  0.00    +0.209 HD
ENDBRANCH   9  10
ENDBRANCH   8   9
BRANCH   8  12
ATOM     12  C   LIG    1       30.366 -17.697  10.664  0.00  0.00    +0.190 C 
BRANCH  12  13
ATOM     13  O   LIG    1       30.325 -16.335  11.073  0.00  0.00    -0.392 OA
ATOM     14  H   LIG    1       31.192 -15.953  10.842  0.00  0.00    +0.209 HD
ENDBRANCH  12  13
ENDBRANCH   8  12
ENDBRANCH   1   8
TORSDOF 8
ENDMDL
MODEL 2
REMARK VINA RESULT:      -5.5      2.267      4.117
REMARK  Name = *****
REMARK                            x       y       z     vdW  Elec       q    Type
REMARK                         _______ _______ _______ _____ _____    ______ ____
ROOT
ATOM      1  O   LIG    1       32.097 -18.912   8.824  0.00  0.00    -0.279 OA
ENDROOT
BRANCH   1   3
ATOM      2  O   LIG    1       32.440 -17.463  10.971  0.00  0.00    -0.228 OA
ATOM      3  P   LIG    1       31.921 -17.511   9.580  0.00  0.00    +0.473 P 
BRANCH   3   4
ATOM      4  O   LIG    1       32.609 -16.426   8.633  0.00  0.00    -0.303 OA
ATOM      5  H   LIG    1       32.803 -16.789   7.752  0.00  0.00    +0.222 HD
ENDBRANCH   3   4
BRANCH   3   6
ATOM      6  O   LIG    1       30.375 -17.134   9.468  0.00  0.00    -0.303 OA
ATOM      7  H   LIG    1       30.245 -16.168   9.438  0.00  0.00    +0.222 HD
ENDBRANCH   3   6
ENDBRANCH   1   3
BRANCH   1   8
ATOM      8  C   LIG    1       30.921 -19.624   8.419  0.00  0.00    +0.181 C 
BRANCH   8   9
ATOM      9  C   LIG    1       31.050 -21.118   8.746  0.00  0.00    +0.190 C 
BRANCH   9  10
ATOM     10  O   LIG    1       32.215 -21.429   9.495  0.00  0.00    -0.392 OA
ATOM     11  H   LIG    1       32.048 -22.216  10.050  0.00  0.00    +0.209 HD
ENDBRANCH   9  10
ENDBRANCH   8   9
BRANCH   8  12
ATOM     12  C   LIG    1       30.797 -19.481   6.897  0.00  0.00    +0.190 C 
BRANCH  12  13
ATOM     13  O   LIG    1       30.106 -18.288   6.544  0.00  0.00    -0.392 OA
ATOM     14  H   LIG    1       30.558 -17.561   7.011  0.00  0.00    +0.209 HD
ENDBRANCH  12  13
ENDBRANCH   8  12
ENDBRANCH   1   8
TORSDOF 8
ENDMDL
MODEL 3
REMARK VINA RESULT:      -5.5      0.780      1.972
REMARK  Name = *****
REMARK                            x       y       z     vdW  Elec       q    Type
REMARK                         _______ _______ _______ _____ _____    ______ ____
ROOT
ATOM      1  O   LIG    1       31.546 -18.085   8.837  0.00  0.00    -0.279 OA
ENDROOT
BRANCH   1   3
ATOM      2  O   LIG    1       29.725 -19.948   8.641  0.00  0.00    -0.228 OA
ATOM      3  P   LIG    1       31.158 -19.595   8.474  0.00  0.00    +0.473 P 
BRANCH   3   4
ATOM      4  O   LIG    1       31.671 -19.819   6.979  0.00  0.00    -0.303 OA
ATOM      5  H   LIG    1       32.128 -19.032   6.635  0.00  0.00    +0.222 HD
ENDBRANCH   3   4
BRANCH   3   6
ATOM      6  O   LIG    1       32.142 -20.525   9.317  0.00  0.00    -0.303 OA
ATOM      7  H   LIG    1       32.909 -20.023   9.650  0.00  0.00    +0.222 HD
ENDBRANCH   3   6
ENDBRANCH   1   3
BRANCH   1   8
ATOM      8  C   LIG    1       31.930 -17.782  10.185  0.00  0.00    +0.181 C 
BRANCH   8   9
ATOM      9  C   LIG    1       30.693 -17.578  11.071  0.00  0.00    +0.190 C 
BRANCH   9  10
ATOM     10  O   LIG    1       30.296 -16.219  11.174  0.00  0.00    -0.392 OA
ATOM     11  H   LIG    1       30.168 -15.984  12.115  0.00  0.00    +0.209 HD
ENDBRANCH   9  10
ENDBRANCH   8   9
BRANCH   8  12
ATOM     12  C   LIG    1       32.713 -16.464  10.156  0.00  0.00    +0.190 C 
BRANCH  12  13
ATOM     13  O   LIG    1       32.561 -15.799   8.907  0.00  0.00    -0.392 OA
ATOM     14  H   LIG    1       33.460 -15.579   8.602  0.00  0.00    +0.209 HD
ENDBRANCH  12  13
ENDBRANCH   8  12
ENDBRANCH   1   8
TORSDOF 8
ENDMDL
MODEL 4
REMARK VINA RESULT:      -5.4      0.216      1.428
REMARK  Name = *****
REMARK                            x       y       z     vdW  Elec       q    Type
REMARK                         _______ _______ _______ _____ _____    ______ ____
ROOT
ATOM      1  O   LIG    1       31.735 -19.218   9.609  0.00  0.00    -0.279 OA
ENDROOT
BRANCH   1   3
ATOM      2  O   LIG    1       31.635 -19.594   7.026  0.00  0.00    -0.228 OA
ATOM      3  P   LIG    1       31.236 -20.096   8.366  0.00  0.00    +0.473 P 
BRANCH   3   4
ATOM      4  O   LIG    1       31.767 -21.574   8.648  0.00  0.00    -0.303 OA
ATOM      5  H   LIG    1       31.067 -22.238   8.517  0.00  0.00    +0.222 HD
ENDBRANCH   3   4
BRANCH   3   6
ATOM      6  O   LIG    1       29.658 -20.258   8.538  0.00  0.00    -0.303 OA
ATOM      7  H   LIG    1       29.396 -21.197   8.555  0.00  0.00    +0.222 HD
ENDBRANCH   3   6
ENDBRANCH   1   3
BRANCH   1   8
ATOM      8  C   LIG    1       31.353 -17.837   9.670  0.00  0.00    +0.181 C 
BRANCH   8   9
ATOM      9  C   LIG    1       32.589 -16.936   9.794  0.00  0.00    +0.190 C 
BRANCH   9  10
ATOM     10  O   LIG    1       32.567 -15.829   8.905  0.00  0.00    -0.392 OA
ATOM     11  H   LIG    1       33.063 -16.051   8.091  0.00  0.00    +0.209 HD
ENDBRANCH   9  10
ENDBRANCH   8   9
BRANCH   8  12
ATOM     12  C   LIG    1       30.502 -17.650  10.931  0.00  0.00    +0.190 C 
BRANCH  12  13
ATOM     13  O   LIG    1       30.360 -16.272  11.260  0.00  0.00    -0.392 OA
ATOM     14  H   LIG    1       29.497 -15.992  10.902  0.00  0.00    +0.209 HD
ENDBRANCH  12  13
ENDBRANCH   8  12
ENDBRANCH   1   8
TORSDOF 8
ENDMDL
MODEL 5
REMARK VINA RESULT:      -5.4      2.267      4.054
REMARK  Name = *****
REMARK                            x       y       z     vdW  Elec       q    Type
REMARK                         _______ _______ _______ _____ _____    ______ ____
ROOT
ATOM      1  O   LIG    1       30.539 -18.955   9.272  0.00  0.00    -0.279 OA
ENDROOT
BRANCH   1   3
ATOM      2  O   LIG    1       32.266 -17.769  10.833  0.00  0.00    -0.228 OA
ATOM      3  P   LIG    1       31.360 -17.637   9.663  0.00  0.00    +0.473 P 
BRANCH   3   4
ATOM      4  O   LIG    1       32.136 -17.208   8.336  0.00  0.00    -0.303 OA
ATOM      5  H   LIG    1       32.717 -17.918   8.014  0.00  0.00    +0.222 HD
ENDBRANCH   3   4
BRANCH   3   6
ATOM      6  O   LIG    1       30.283 -16.472   9.824  0.00  0.00    -0.303 OA
ATOM      7  H   LIG    1       29.373 -16.815   9.755  0.00  0.00    +0.222 HD
ENDBRANCH   3   6
ENDBRANCH   1   3
BRANCH   1   8
ATOM      8  C   LIG    1       31.062 -19.808   8.245  0.00  0.00    +0.181 C 
BRANCH   8   9
ATOM      9  C   LIG    1       30.179 -19.752   6.990  0.00  0.00    +0.190 C 
BRANCH   9  10
ATOM     10  O   LIG    1       30.363 -18.568   6.229  0.00  0.00    -0.392 OA
ATOM     11  H   LIG    1       29.555 -18.018   6.276  0.00  0.00    +0.209 HD
ENDBRANCH   9  10
ENDBRANCH   8   9
BRANCH   8  12
ATOM     12  C   LIG    1       31.034 -21.244   8.780  0.00  0.00    +0.190 C 
BRANCH  12  13
ATOM     13  O   LIG    1       32.210 -21.542   9.524  0.00  0.00    -0.392 OA
ATOM     14  H   LIG    1       32.489 -20.707   9.942  0.00  0.00    +0.209 HD
ENDBRANCH  12  13
ENDBRANCH   8  12
ENDBRANCH   1   8
TORSDOF 8
ENDMDL
MODEL 6
REMARK VINA RESULT:      -5.3      2.262      4.024
REMARK  Name = *****
REMARK                            x       y       z     vdW  Elec       q    Type
REMARK                         _______ _______ _______ _____ _____    ______ ____
ROOT
ATOM      1  O   LIG    1       30.541 -19.000   9.336  0.00  0.00    -0.279 OA
ENDROOT
BRANCH   1   3
ATOM      2  O   LIG    1       30.264 -16.457   9.863  0.00  0.00    -0.228 OA
ATOM      3  P   LIG    1       31.210 -17.565   9.575  0.00  0.00    +0.473 P 
BRANCH   3   4
ATOM      4  O   LIG    1       32.273 -17.780  10.747  0.00  0.00    -0.303 OA
ATOM      5  H   LIG    1       31.978 -18.456  11.380  0.00  0.00    +0.222 HD
ENDBRANCH   3   4
BRANCH   3   6
ATOM      6  O   LIG    1       32.143 -17.290   8.311  0.00  0.00    -0.303 OA
ATOM      7  H   LIG    1       32.882 -17.924   8.269  0.00  0.00    +0.222 HD
ENDBRANCH   3   6
ENDBRANCH   1   3
BRANCH   1   8
ATOM      8  C   LIG    1       31.040 -19.819   8.270  0.00  0.00    +0.181 C 
BRANCH   8   9
ATOM      9  C   LIG    1       30.113 -19.746   7.049  0.00  0.00    +0.190 C 
BRANCH   9  10
ATOM     10  O   LIG    1       30.411 -18.662   6.183  0.00  0.00    -0.392 OA
ATOM     11  H   LIG    1       30.998 -18.968   5.462  0.00  0.00    +0.209 HD
ENDBRANCH   9  10
ENDBRANCH   8   9
BRANCH   8  12
ATOM     12  C   LIG    1       31.053 -21.268   8.769  0.00  0.00    +0.190 C 
BRANCH  12  13
ATOM     13  O   LIG    1       32.218 -21.540   9.540  0.00  0.00    -0.392 OA
ATOM     14  H   LIG    1       32.018 -22.335  10.069  0.00  0.00    +0.209 HD
ENDBRANCH  12  13
ENDBRANCH   8  12
ENDBRANCH   1   8
TORSDOF 8
ENDMDL
MODEL 7
REMARK VINA RESULT:      -5.2      2.567      4.383
REMARK  Name = *****
REMARK                            x       y       z     vdW  Elec       q    Type
REMARK                         _______ _______ _______ _____ _____    ______ ____
ROOT
ATOM      1  O   LIG    1       30.071 -19.541   9.201  0.00  0.00    -0.279 OA
ENDROOT
BRANCH   1   3
ATOM      2  O   LIG    1       30.066 -16.950   9.538  0.00  0.00    -0.228 OA
ATOM      3  P   LIG    1       30.853 -18.145   9.138  0.00  0.00    +0.473 P 
BRANCH   3   4
ATOM      4  O   LIG    1       32.157 -18.346  10.036  0.00  0.00    -0.303 OA
ATOM      5  H   LIG    1       32.372 -19.287  10.151  0.00  0.00    +0.222 HD
ENDBRANCH   3   4
BRANCH   3   6
ATOM      6  O   LIG    1       31.461 -18.039   7.667  0.00  0.00    -0.303 OA
ATOM      7  H   LIG    1       32.051 -17.268   7.579  0.00  0.00    +0.222 HD
ENDBRANCH   3   6
ENDBRANCH   1   3
BRANCH   1   8
ATOM      8  C   LIG    1       30.390 -20.549   8.232  0.00  0.00    +0.181 C 
BRANCH   8   9
ATOM      9  C   LIG    1       29.122 -21.038   7.519  0.00  0.00    +0.190 C 
BRANCH   9  10
ATOM     10  O   LIG    1       28.015 -21.203   8.393  0.00  0.00    -0.392 OA
ATOM     11  H   LIG    1       27.263 -21.591   7.903  0.00  0.00    +0.209 HD
ENDBRANCH   9  10
ENDBRANCH   8   9
BRANCH   8  12
ATOM     12  C   LIG    1       30.997 -21.737   8.987  0.00  0.00    +0.190 C 
BRANCH  12  13
ATOM     13  O   LIG    1       32.282 -21.417   9.508  0.00  0.00    -0.392 OA
ATOM     14  H   LIG    1       32.843 -21.199   8.741  0.00  0.00    +0.209 HD
ENDBRANCH  12  13
ENDBRANCH   8  12
ENDBRANCH   1   8
TORSDOF 8
ENDMDL
MODEL 8
REMARK VINA RESULT:      -5.1      2.945      4.084
REMARK  Name = *****
REMARK                            x       y       z     vdW  Elec       q    Type
REMARK                         _______ _______ _______ _____ _____    ______ ____
ROOT
ATOM      1  O   LIG    1       30.078 -21.410   7.976  0.00  0.00    -0.279 OA
ENDROOT
BRANCH   1   3
ATOM      2  O   LIG    1       30.680 -22.121  10.417  0.00  0.00    -0.228 OA
ATOM      3  P   LIG    1       31.188 -21.632   9.110  0.00  0.00    +0.473 P 
BRANCH   3   4
ATOM      4  O   LIG    1       32.265 -22.618   8.465  0.00  0.00    -0.303 OA
ATOM      5  H   LIG    1       33.084 -22.646   8.988  0.00  0.00    +0.222 HD
ENDBRANCH   3   4
BRANCH   3   6
ATOM      6  O   LIG    1       31.997 -20.261   9.217  0.00  0.00    -0.303 OA
ATOM      7  H   LIG    1       32.960 -20.414   9.201  0.00  0.00    +0.222 HD
ENDBRANCH   3   6
ENDBRANCH   1   3
BRANCH   1   8
ATOM      8  C   LIG    1       29.465 -20.120   7.861  0.00  0.00    +0.181 C 
BRANCH   8   9
ATOM      9  C   LIG    1       27.971 -20.254   7.534  0.00  0.00    +0.190 C 
BRANCH   9  10
ATOM     10  O   LIG    1       27.142 -20.238   8.686  0.00  0.00    -0.392 OA
ATOM     11  H   LIG    1       26.360 -20.807   8.536  0.00  0.00    +0.209 HD
ENDBRANCH   9  10
ENDBRANCH   8   9
BRANCH   8  12
ATOM     12  C   LIG    1       30.141 -19.390   6.694  0.00  0.00    +0.190 C 
BRANCH  12  13
ATOM     13  O   LIG    1       30.982 -18.341   7.158  0.00  0.00    -0.392 OA
ATOM     14  H   LIG    1       30.938 -18.363   8.132  0.00  0.00    +0.209 HD
ENDBRANCH  12  13
ENDBRANCH   8  12
ENDBRANCH   1   8
TORSDOF 8
ENDMDL
MODEL 9
REMARK VINA RESULT:      -5.1      2.787      4.056
REMARK  Name = *****
REMARK                            x       y       z     vdW  Elec       q    Type
REMARK                         _______ _______ _______ _____ _____    ______ ____
ROOT
ATOM      1  O   LIG    1       29.774 -19.471   8.459  0.00  0.00    -0.279 OA
ENDROOT
BRANCH   1   3
ATOM      2  O   LIG    1       31.817 -17.866   8.190  0.00  0.00    -0.228 OA
ATOM      3  P   LIG    1       31.184 -18.938   9.000  0.00  0.00    +0.473 P 
BRANCH   3   4
ATOM      4  O   LIG    1       30.919 -18.489  10.508  0.00  0.00    -0.303 OA
ATOM      5  H   LIG    1       30.007 -18.681  10.785  0.00  0.00    +0.222 HD
ENDBRANCH   3   4
BRANCH   3   6
ATOM      6  O   LIG    1       32.108 -20.225   9.181  0.00  0.00    -0.303 OA
ATOM      7  H   LIG    1       31.614 -20.967   9.577  0.00  0.00    +0.222 HD
ENDBRANCH   3   6
ENDBRANCH   1   3
BRANCH   1   8
ATOM      8  C   LIG    1       29.722 -20.071   7.157  0.00  0.00    +0.181 C 
BRANCH   8   9
ATOM      9  C   LIG    1       29.118 -19.099   6.134  0.00  0.00    +0.190 C 
BRANCH   9  10
ATOM     10  O   LIG    1       30.073 -18.210   5.575  0.00  0.00    -0.392 OA
ATOM     11  H   LIG    1       30.117 -18.341   4.606  0.00  0.00    +0.209 HD
ENDBRANCH   9  10
ENDBRANCH   8   9
BRANCH   8  12
ATOM     12  C   LIG    1       28.802 -21.293   7.249  0.00  0.00    +0.190 C 
BRANCH  12  13
ATOM     13  O   LIG    1       27.922 -21.196   8.364  0.00  0.00    -0.392 OA
ATOM     14  H   LIG    1       27.050 -21.503   8.053  0.00  0.00    +0.209 HD
ENDBRANCH  12  13
ENDBRANCH   8  12
ENDBRANCH   1   8
TORSDOF 8
ENDMDL
