MODEL 1
REMARK VINA RESULT:      20.7      0.000      0.000
REMARK  Name = *****
REMARK                            x       y       z     vdW  Elec       q    Type
REMARK                         _______ _______ _______ _____ _____    ______ ____
ROOT
ATOM      1  C   LIG    1       25.070 -12.405   5.785  0.00  0.00    +0.299 A 
ATOM      2  N   LIG    1       25.217 -13.207   4.638  0.00  0.00    -0.289 N 
ATOM      3  C   LIG    1       26.590 -13.500   4.582  0.00  0.00    +0.086 A 
ATOM      4  C   LIG    1       27.151 -12.469   5.333  0.00  0.00    +0.093 A 
ATOM      5  C   LIG    1       28.537 -12.245   5.294  0.00  0.00    +0.030 A 
ATOM      6  C   LIG    1       29.363 -13.109   4.575  0.00  0.00    +0.003 A 
ATOM      7  C   LIG    1       28.835 -14.234   3.976  0.00  0.00    +0.017 A 
ATOM      8  C   LIG    1       27.459 -14.470   4.010  0.00  0.00    +0.085 A 
ATOM      9  N   LIG    1       26.215 -11.841   6.094  0.00  0.00    -0.195 NA
ENDROOT
BRANCH   8  10
ATOM     10  C   LIG    1       27.009 -15.694   3.401  0.00  0.00    +0.342 C 
ATOM     11  O   LIG    1       26.211 -15.572   2.567  0.00  0.00    -0.245 OA
BRANCH  10  12
ATOM     12  O   LIG    1       27.575 -16.820   3.895  0.00  0.00    -0.453 OA
BRANCH  12  13
ATOM     13  C   LIG    1       26.868 -18.090   3.921  0.00  0.00    +0.310 C 
BRANCH  13  14
ATOM     14  C   LIG    1       27.181 -19.115   4.982  0.00  0.00    +0.187 A 
ATOM     15  C   LIG    1       26.485 -19.715   5.934  0.00  0.00    +0.151 A 
ATOM     16  C   LIG    1       25.067 -19.701   6.337  0.00  0.00    +0.090 C 
ATOM     17  O   LIG    1       27.241 -20.626   6.638  0.00  0.00    -0.396 OA
ATOM     18  C   LIG    1       28.474 -20.487   6.049  0.00  0.00    +0.521 A 
ATOM     19  O   LIG    1       29.447 -21.142   6.395  0.00  0.00    -0.202 OA
ATOM     20  O   LIG    1       28.510 -19.531   5.048  0.00  0.00    -0.392 OA
ENDBRANCH  13  14
ENDBRANCH  12  13
ENDBRANCH  10  12
ENDBRANCH   8  10
BRANCH   1  21
ATOM     21  O   LIG    1       23.987 -12.152   6.543  0.00  0.00    -0.464 OA
BRANCH  21  23
ATOM     22  C   LIG    1       21.504 -11.751   6.486  0.00  0.00    +0.048 C 
ATOM     23  C   LIG    1       22.767 -12.264   5.861  0.00  0.00    +0.229 C 
ENDBRANCH  21  23
ENDBRANCH   1  21
BRANCH   2  24
ATOM     24  C   LIG    1       24.196 -13.539   3.621  0.00  0.00    +0.162 C 
BRANCH  24  25
ATOM     25  C   LIG    1       23.522 -14.897   3.744  0.00  0.00    -0.028 A 
ATOM     26  C   LIG    1       22.199 -15.059   4.119  0.00  0.00    +0.006 A 
ATOM     27  C   LIG    1       21.598 -16.337   4.071  0.00  0.00    +0.009 A 
ATOM     28  C   LIG    1       22.312 -17.554   3.960  0.00  0.00    -0.017 A 
ATOM     29  C   LIG    1       23.669 -17.374   3.707  0.00  0.00    +0.009 A 
ATOM     30  C   LIG    1       24.234 -16.083   3.553  0.00  0.00    +0.006 A 
BRANCH  28  31
ATOM     31  C   LIG    1       21.609 -18.874   4.218  0.00  0.00    -0.007 A 
ATOM     32  C   LIG    1       22.147 -20.196   4.224  0.00  0.00    +0.028 A 
ATOM     33  C   LIG    1       21.300 -21.310   4.500  0.00  0.00    +0.012 A 
ATOM     34  C   LIG    1       19.928 -21.178   4.687  0.00  0.00    +0.001 A 
ATOM     35  C   LIG    1       19.371 -19.919   4.643  0.00  0.00    +0.001 A 
ATOM     36  C   LIG    1       20.197 -18.802   4.447  0.00  0.00    +0.009 A 
BRANCH  32  37
ATOM     37  C   LIG    1       23.545 -20.592   3.916  0.00  0.00    +0.183 C 
ATOM     38  N   LIG    1       24.185 -20.071   2.848  0.00  0.00    -0.271 N 
ATOM     39  H   LIG    1       23.888 -19.392   2.171  0.00  0.00    +0.174 HD
ATOM     40  C   LIG    1       25.368 -20.695   2.753  0.00  0.00    +0.440 C 
ATOM     41  O   LIG    1       26.175 -20.555   1.849  0.00  0.00    -0.221 OA
ATOM     42  O   LIG    1       25.497 -21.536   3.824  0.00  0.00    -0.295 OA
ATOM     43  N   LIG    1       24.263 -21.460   4.540  0.00  0.00    -0.054 NA
ENDBRANCH  32  37
ENDBRANCH  28  31
ENDBRANCH  24  25
ENDBRANCH   2  24
TORSDOF 10
ENDMDL
MODEL 2
REMARK VINA RESULT:      22.8      1.192      1.994
REMARK  Name = *****
REMARK                            x       y       z     vdW  Elec       q    Type
REMARK                         _______ _______ _______ _____ _____    ______ ____
ROOT
ATOM      1  C   LIG    1       25.218 -12.941   5.883  0.00  0.00    +0.299 A 
ATOM      2  N   LIG    1       25.459 -13.508   4.618  0.00  0.00    -0.289 N 
ATOM      3  C   LIG    1       26.856 -13.477   4.474  0.00  0.00    +0.086 A 
ATOM      4  C   LIG    1       27.231 -12.473   5.364  0.00  0.00    +0.093 A 
ATOM      5  C   LIG    1       28.530 -11.943   5.320  0.00  0.00    +0.030 A 
ATOM      6  C   LIG    1       29.474 -12.484   4.446  0.00  0.00    +0.003 A 
ATOM      7  C   LIG    1       29.162 -13.594   3.690  0.00  0.00    +0.017 A 
ATOM      8  C   LIG    1       27.874 -14.133   3.727  0.00  0.00    +0.085 A 
ATOM      9  N   LIG    1       26.233 -12.190   6.245  0.00  0.00    -0.195 NA
ENDROOT
BRANCH   8  10
ATOM     10  C   LIG    1       27.659 -15.320   2.943  0.00  0.00    +0.342 C 
ATOM     11  O   LIG    1       27.234 -15.143   1.877  0.00  0.00    -0.245 OA
BRANCH  10  12
ATOM     12  O   LIG    1       27.974 -16.480   3.564  0.00  0.00    -0.453 OA
BRANCH  12  13
ATOM     13  C   LIG    1       26.994 -17.238   4.324  0.00  0.00    +0.310 C 
BRANCH  13  14
ATOM     14  C   LIG    1       26.873 -18.730   4.141  0.00  0.00    +0.187 A 
ATOM     15  C   LIG    1       27.614 -19.774   4.473  0.00  0.00    +0.151 A 
ATOM     16  C   LIG    1       28.861 -19.951   5.239  0.00  0.00    +0.090 C 
ATOM     17  O   LIG    1       27.033 -20.967   4.098  0.00  0.00    -0.396 OA
ATOM     18  C   LIG    1       25.891 -20.540   3.467  0.00  0.00    +0.521 A 
ATOM     19  O   LIG    1       25.078 -21.314   2.983  0.00  0.00    -0.202 OA
ATOM     20  O   LIG    1       25.760 -19.162   3.420  0.00  0.00    -0.392 OA
ENDBRANCH  13  14
ENDBRANCH  12  13
ENDBRANCH  10  12
ENDBRANCH   8  10
BRANCH   1  21
ATOM     21  O   LIG    1       24.158 -13.052   6.704  0.00  0.00    -0.464 OA
BRANCH  21  23
ATOM     22  C   LIG    1       23.079 -11.504   5.039  0.00  0.00    +0.048 C 
ATOM     23  C   LIG    1       23.031 -12.325   6.294  0.00  0.00    +0.229 C 
ENDBRANCH  21  23
ENDBRANCH   1  21
BRANCH   2  24
ATOM     24  C   LIG    1       24.469 -13.902   3.592  0.00  0.00    +0.162 C 
BRANCH  24  25
ATOM     25  C   LIG    1       23.785 -15.248   3.780  0.00  0.00    -0.028 A 
ATOM     26  C   LIG    1       22.482 -15.383   4.226  0.00  0.00    +0.006 A 
ATOM     27  C   LIG    1       21.863 -16.654   4.237  0.00  0.00    +0.009 A 
ATOM     28  C   LIG    1       22.555 -17.882   4.117  0.00  0.00    -0.017 A 
ATOM     29  C   LIG    1       23.899 -17.726   3.789  0.00  0.00    +0.009 A 
ATOM     30  C   LIG    1       24.471 -16.448   3.578  0.00  0.00    +0.006 A 
BRANCH  28  31
ATOM     31  C   LIG    1       21.849 -19.187   4.439  0.00  0.00    -0.007 A 
ATOM     32  C   LIG    1       22.302 -20.286   5.228  0.00  0.00    +0.028 A 
ATOM     33  C   LIG    1       21.467 -21.427   5.410  0.00  0.00    +0.012 A 
ATOM     34  C   LIG    1       20.236 -21.561   4.776  0.00  0.00    +0.001 A 
ATOM     35  C   LIG    1       19.789 -20.536   3.971  0.00  0.00    +0.001 A 
ATOM     36  C   LIG    1       20.561 -19.372   3.838  0.00  0.00    +0.009 A 
BRANCH  32  37
ATOM     37  C   LIG    1       23.628 -20.427   5.884  0.00  0.00    +0.183 C 
ATOM     38  N   LIG    1       24.415 -19.348   6.075  0.00  0.00    -0.271 N 
ATOM     39  H   LIG    1       24.264 -18.378   5.864  0.00  0.00    +0.174 HD
ATOM     40  C   LIG    1       25.580 -19.791   6.569  0.00  0.00    +0.440 C 
ATOM     41  O   LIG    1       26.572 -19.111   6.773  0.00  0.00    -0.221 OA
ATOM     42  O   LIG    1       25.474 -21.139   6.774  0.00  0.00    -0.295 OA
ATOM     43  N   LIG    1       24.189 -21.517   6.279  0.00  0.00    -0.054 NA
ENDBRANCH  32  37
ENDBRANCH  28  31
ENDBRANCH  24  25
ENDBRANCH   2  24
TORSDOF 10
ENDMDL
