MODEL 1
REMARK VINA RESULT:      -7.6      0.000      0.000
REMARK  Name = *****
REMARK                            x       y       z     vdW  Elec       q    Type
REMARK                         _______ _______ _______ _____ _____    ______ ____
ROOT
ATOM      1  O   LIG    1       28.688 -20.101   8.235  0.00  0.00    -0.489 OA
ENDROOT
BRANCH   1   5
ATOM      2  C   LIG    1       24.845 -20.925   6.755  0.00  0.00    -0.045 A 
ATOM      3  C   LIG    1       25.059 -20.873   8.135  0.00  0.00    +0.007 A 
ATOM      4  C   LIG    1       26.330 -20.595   8.640  0.00  0.00    +0.046 A 
ATOM      5  C   LIG    1       27.415 -20.362   7.788  0.00  0.00    +0.121 A 
ATOM      6  C   LIG    1       27.202 -20.386   6.408  0.00  0.00    +0.046 A 
ATOM      7  C   LIG    1       25.923 -20.675   5.900  0.00  0.00    +0.007 A 
BRANCH   2   8
ATOM      8  C   LIG    1       23.462 -21.224   6.231  0.00  0.00    +0.063 C 
BRANCH   8   9
ATOM      9  C   LIG    1       23.094 -20.391   5.004  0.00  0.00    +0.164 C 
BRANCH   9  11
ATOM     10  C   LIG    1       22.135 -18.339   4.352  0.00  0.00    +0.193 C 
ATOM     11  O   LIG    1       22.455 -19.190   5.444  0.00  0.00    -0.383 OA
ENDBRANCH   9  11
ENDBRANCH   8   9
ENDBRANCH   2   8
ENDBRANCH   1   5
BRANCH   1  12
ATOM     12  C   LIG    1       29.444 -19.247   7.352  0.00  0.00    +0.261 C 
BRANCH  12  13
ATOM     13  C   LIG    1       30.923 -19.658   7.311  0.00  0.00    +0.166 C 
BRANCH  13  14
ATOM     14  O   LIG    1       31.078 -20.901   8.014  0.00  0.00    -0.387 OA
ATOM     15  H   LIG    1       30.269 -20.997   8.551  0.00  0.00    +0.210 HD
ENDBRANCH  13  14
BRANCH  13  16
ATOM     16  C   LIG    1       31.770 -18.571   8.013  0.00  0.00    +0.115 C 
BRANCH  16  17
ATOM     17  N   LIG    1       31.888 -18.796   9.460  0.00  0.00    -0.311 NA
ATOM     18  H   LIG    1       31.158 -19.462   9.732  0.00  0.00    +0.122 HD
BRANCH  17  19
ATOM     19  C   LIG    1       31.784 -17.562  10.251  0.00  0.00    +0.048 C 
ATOM     20  C   LIG    1       30.330 -17.388  10.700  0.00  0.00    +0.024 C 
ATOM     21  C   LIG    1       32.252 -16.308   9.504  0.00  0.00    +0.024 C 
ENDBRANCH  17  19
ENDBRANCH  16  17
ENDBRANCH  13  16
ENDBRANCH  12  13
ENDBRANCH   1  12
TORSDOF 10
ENDMDL
MODEL 2
REMARK VINA RESULT:      -7.5      1.346      2.242
REMARK  Name = *****
REMARK                            x       y       z     vdW  Elec       q    Type
REMARK                         _______ _______ _______ _____ _____    ______ ____
ROOT
ATOM      1  O   LIG    1       28.872 -20.156   8.126  0.00  0.00    -0.489 OA
ENDROOT
BRANCH   1   5
ATOM      2  C   LIG    1       24.950 -20.722   6.734  0.00  0.00    -0.045 A 
ATOM      3  C   LIG    1       25.982 -20.491   5.821  0.00  0.00    +0.007 A 
ATOM      4  C   LIG    1       27.291 -20.307   6.270  0.00  0.00    +0.046 A 
ATOM      5  C   LIG    1       27.604 -20.348   7.632  0.00  0.00    +0.121 A 
ATOM      6  C   LIG    1       26.581 -20.605   8.548  0.00  0.00    +0.046 A 
ATOM      7  C   LIG    1       25.261 -20.781   8.096  0.00  0.00    +0.007 A 
BRANCH   2   8
ATOM      8  C   LIG    1       23.544 -20.921   6.225  0.00  0.00    +0.063 C 
BRANCH   8   9
ATOM      9  C   LIG    1       22.989 -22.312   6.531  0.00  0.00    +0.164 C 
BRANCH   9  11
ATOM     10  C   LIG    1       23.687 -24.563   6.589  0.00  0.00    +0.193 C 
ATOM     11  O   LIG    1       23.884 -23.288   5.993  0.00  0.00    -0.383 OA
ENDBRANCH   9  11
ENDBRANCH   8   9
ENDBRANCH   2   8
ENDBRANCH   1   5
BRANCH   1  12
ATOM     12  C   LIG    1       29.602 -19.115   7.447  0.00  0.00    +0.261 C 
BRANCH  12  13
ATOM     13  C   LIG    1       31.099 -19.446   7.368  0.00  0.00    +0.166 C 
BRANCH  13  14
ATOM     14  O   LIG    1       31.323 -20.728   7.976  0.00  0.00    -0.387 OA
ATOM     15  H   LIG    1       31.323 -21.366   7.238  0.00  0.00    +0.210 HD
ENDBRANCH  13  14
BRANCH  13  16
ATOM     16  C   LIG    1       31.897 -18.371   8.143  0.00  0.00    +0.115 C 
BRANCH  16  17
ATOM     17  N   LIG    1       31.980 -18.661   9.581  0.00  0.00    -0.311 NA
ATOM     18  H   LIG    1       31.225 -19.314   9.812  0.00  0.00    +0.122 HD
BRANCH  17  19
ATOM     19  C   LIG    1       31.901 -17.458  10.423  0.00  0.00    +0.048 C 
ATOM     20  C   LIG    1       30.425 -17.124  10.662  0.00  0.00    +0.024 C 
ATOM     21  C   LIG    1       32.621 -16.242   9.831  0.00  0.00    +0.024 C 
ENDBRANCH  17  19
ENDBRANCH  16  17
ENDBRANCH  13  16
ENDBRANCH  12  13
ENDBRANCH   1  12
TORSDOF 10
ENDMDL
MODEL 3
REMARK VINA RESULT:      -7.5      3.168      7.790
REMARK  Name = *****
REMARK                            x       y       z     vdW  Elec       q    Type
REMARK                         _______ _______ _______ _____ _____    ______ ____
ROOT
ATOM      1  O   LIG    1       24.405 -20.997   7.468  0.00  0.00    -0.489 OA
ENDROOT
BRANCH   1   5
ATOM      2  C   LIG    1       28.413 -19.942   6.786  0.00  0.00    -0.045 A 
ATOM      3  C   LIG    1       27.526 -20.022   5.710  0.00  0.00    +0.007 A 
ATOM      4  C   LIG    1       26.190 -20.366   5.923  0.00  0.00    +0.046 A 
ATOM      5  C   LIG    1       25.706 -20.637   7.207  0.00  0.00    +0.121 A 
ATOM      6  C   LIG    1       26.582 -20.533   8.290  0.00  0.00    +0.046 A 
ATOM      7  C   LIG    1       27.930 -20.196   8.074  0.00  0.00    +0.007 A 
BRANCH   2   8
ATOM      8  C   LIG    1       29.852 -19.565   6.532  0.00  0.00    +0.063 C 
BRANCH   8   9
ATOM      9  C   LIG    1       30.797 -20.033   7.638  0.00  0.00    +0.164 C 
BRANCH   9  11
ATOM     10  C   LIG    1       31.644 -18.025   8.537  0.00  0.00    +0.193 C 
ATOM     11  O   LIG    1       31.910 -19.137   7.694  0.00  0.00    -0.383 OA
ENDBRANCH   9  11
ENDBRANCH   8   9
ENDBRANCH   2   8
ENDBRANCH   1   5
BRANCH   1  12
ATOM     12  C   LIG    1       23.495 -20.680   6.396  0.00  0.00    +0.261 C 
BRANCH  12  13
ATOM     13  C   LIG    1       22.995 -21.953   5.696  0.00  0.00    +0.166 C 
BRANCH  13  14
ATOM     14  O   LIG    1       21.746 -21.665   5.049  0.00  0.00    -0.387 OA
ATOM     15  H   LIG    1       21.216 -21.186   5.713  0.00  0.00    +0.210 HD
ENDBRANCH  13  14
BRANCH  13  16
ATOM     16  C   LIG    1       22.775 -23.059   6.755  0.00  0.00    +0.115 C 
BRANCH  16  17
ATOM     17  N   LIG    1       23.364 -24.344   6.356  0.00  0.00    -0.311 NA
ATOM     18  H   LIG    1       23.313 -24.974   7.163  0.00  0.00    +0.122 HD
BRANCH  17  19
ATOM     19  C   LIG    1       24.748 -24.227   5.877  0.00  0.00    +0.048 C 
ATOM     20  C   LIG    1       25.026 -25.370   4.896  0.00  0.00    +0.024 C 
ATOM     21  C   LIG    1       25.793 -24.237   6.998  0.00  0.00    +0.024 C 
ENDBRANCH  17  19
ENDBRANCH  16  17
ENDBRANCH  13  16
ENDBRANCH  12  13
ENDBRANCH   1  12
TORSDOF 10
ENDMDL
MODEL 4
REMARK VINA RESULT:      -7.2      3.018      7.560
REMARK  Name = *****
REMARK                            x       y       z     vdW  Elec       q    Type
REMARK                         _______ _______ _______ _____ _____    ______ ____
ROOT
ATOM      1  O   LIG    1       25.141 -21.074   7.427  0.00  0.00    -0.489 OA
ENDROOT
BRANCH   1   5
ATOM      2  C   LIG    1       29.009 -19.612   6.691  0.00  0.00    -0.045 A 
ATOM      3  C   LIG    1       28.120 -19.784   5.627  0.00  0.00    +0.007 A 
ATOM      4  C   LIG    1       26.830 -20.263   5.858  0.00  0.00    +0.046 A 
ATOM      5  C   LIG    1       26.394 -20.582   7.148  0.00  0.00    +0.121 A 
ATOM      6  C   LIG    1       27.269 -20.388   8.219  0.00  0.00    +0.046 A 
ATOM      7  C   LIG    1       28.572 -19.913   7.985  0.00  0.00    +0.007 A 
BRANCH   2   8
ATOM      8  C   LIG    1       30.397 -19.088   6.418  0.00  0.00    +0.063 C 
BRANCH   8   9
ATOM      9  C   LIG    1       31.331 -19.211   7.622  0.00  0.00    +0.164 C 
BRANCH   9  11
ATOM     10  C   LIG    1       31.908 -17.673   9.312  0.00  0.00    +0.193 C 
ATOM     11  O   LIG    1       31.870 -17.919   7.913  0.00  0.00    -0.383 OA
ENDBRANCH   9  11
ENDBRANCH   8   9
ENDBRANCH   2   8
ENDBRANCH   1   5
BRANCH   1  12
ATOM     12  C   LIG    1       25.033 -22.501   7.259  0.00  0.00    +0.261 C 
BRANCH  12  13
ATOM     13  C   LIG    1       24.024 -22.857   6.157  0.00  0.00    +0.166 C 
BRANCH  13  14
ATOM     14  O   LIG    1       24.725 -22.978   4.909  0.00  0.00    -0.387 OA
ATOM     15  H   LIG    1       25.472 -23.578   5.090  0.00  0.00    +0.210 HD
ENDBRANCH  13  14
BRANCH  13  16
ATOM     16  C   LIG    1       22.978 -21.723   6.042  0.00  0.00    +0.115 C 
BRANCH  16  17
ATOM     17  N   LIG    1       22.918 -21.147   4.692  0.00  0.00    -0.311 NA
ATOM     18  H   LIG    1       23.464 -21.752   4.071  0.00  0.00    +0.122 HD
BRANCH  17  19
ATOM     19  C   LIG    1       23.406 -19.762   4.627  0.00  0.00    +0.048 C 
ATOM     20  C   LIG    1       22.199 -18.821   4.566  0.00  0.00    +0.024 C 
ATOM     21  C   LIG    1       24.339 -19.490   3.443  0.00  0.00    +0.024 C 
ENDBRANCH  17  19
ENDBRANCH  16  17
ENDBRANCH  13  16
ENDBRANCH  12  13
ENDBRANCH   1  12
TORSDOF 10
ENDMDL
MODEL 5
REMARK VINA RESULT:      -7.2      3.105      7.593
REMARK  Name = *****
REMARK                            x       y       z     vdW  Elec       q    Type
REMARK                         _______ _______ _______ _____ _____    ______ ____
ROOT
ATOM      1  O   LIG    1       26.151 -21.495   6.661  0.00  0.00    -0.489 OA
ENDROOT
BRANCH   1   5
ATOM      2  C   LIG    1       29.985 -19.824   7.051  0.00  0.00    -0.045 A 
ATOM      3  C   LIG    1       29.604 -20.885   7.877  0.00  0.00    +0.007 A 
ATOM      4  C   LIG    1       28.335 -21.453   7.754  0.00  0.00    +0.046 A 
ATOM      5  C   LIG    1       27.417 -20.982   6.810  0.00  0.00    +0.121 A 
ATOM      6  C   LIG    1       27.801 -19.939   5.964  0.00  0.00    +0.046 A 
ATOM      7  C   LIG    1       29.076 -19.361   6.094  0.00  0.00    +0.007 A 
BRANCH   2   8
ATOM      8  C   LIG    1       31.363 -19.228   7.199  0.00  0.00    +0.063 C 
BRANCH   8   9
ATOM      9  C   LIG    1       31.587 -18.572   8.561  0.00  0.00    +0.164 C 
BRANCH   9  11
ATOM     10  C   LIG    1       32.356 -16.593   9.584  0.00  0.00    +0.193 C 
ATOM     11  O   LIG    1       32.100 -17.254   8.353  0.00  0.00    -0.383 OA
ENDBRANCH   9  11
ENDBRANCH   8   9
ENDBRANCH   2   8
ENDBRANCH   1   5
BRANCH   1  12
ATOM     12  C   LIG    1       26.042 -22.879   7.047  0.00  0.00    +0.261 C 
BRANCH  12  13
ATOM     13  C   LIG    1       24.843 -23.554   6.366  0.00  0.00    +0.166 C 
BRANCH  13  14
ATOM     14  O   LIG    1       25.305 -24.251   5.198  0.00  0.00    -0.387 OA
ATOM     15  H   LIG    1       24.497 -24.515   4.719  0.00  0.00    +0.210 HD
ENDBRANCH  13  14
BRANCH  13  16
ATOM     16  C   LIG    1       23.826 -22.469   5.940  0.00  0.00    +0.115 C 
BRANCH  16  17
ATOM     17  N   LIG    1       24.077 -21.966   4.582  0.00  0.00    -0.311 NA
ATOM     18  H   LIG    1       25.090 -21.980   4.426  0.00  0.00    +0.122 HD
BRANCH  17  19
ATOM     19  C   LIG    1       23.537 -20.618   4.352  0.00  0.00    +0.048 C 
ATOM     20  C   LIG    1       24.674 -19.710   3.872  0.00  0.00    +0.024 C 
ATOM     21  C   LIG    1       22.864 -20.003   5.584  0.00  0.00    +0.024 C 
ENDBRANCH  17  19
ENDBRANCH  16  17
ENDBRANCH  13  16
ENDBRANCH  12  13
ENDBRANCH   1  12
TORSDOF 10
ENDMDL
MODEL 6
REMARK VINA RESULT:      -7.2      3.812      7.972
REMARK  Name = *****
REMARK                            x       y       z     vdW  Elec       q    Type
REMARK                         _______ _______ _______ _____ _____    ______ ____
ROOT
ATOM      1  O   LIG    1       24.643 -20.937   6.603  0.00  0.00    -0.489 OA
ENDROOT
BRANCH   1   5
ATOM      2  C   LIG    1       28.697 -19.990   7.159  0.00  0.00    -0.045 A 
ATOM      3  C   LIG    1       27.926 -20.404   8.249  0.00  0.00    +0.007 A 
ATOM      4  C   LIG    1       26.580 -20.727   8.077  0.00  0.00    +0.046 A 
ATOM      5  C   LIG    1       25.968 -20.647   6.822  0.00  0.00    +0.121 A 
ATOM      6  C   LIG    1       26.739 -20.258   5.724  0.00  0.00    +0.046 A 
ATOM      7  C   LIG    1       28.094 -19.924   5.899  0.00  0.00    +0.007 A 
BRANCH   2   8
ATOM      8  C   LIG    1       30.151 -19.649   7.369  0.00  0.00    +0.063 C 
BRANCH   8   9
ATOM      9  C   LIG    1       30.829 -20.535   8.413  0.00  0.00    +0.164 C 
BRANCH   9  11
ATOM     10  C   LIG    1       31.549 -18.423   9.174  0.00  0.00    +0.193 C 
ATOM     11  O   LIG    1       31.891 -19.794   9.018  0.00  0.00    -0.383 OA
ENDBRANCH   9  11
ENDBRANCH   8   9
ENDBRANCH   2   8
ENDBRANCH   1   5
BRANCH   1  12
ATOM     12  C   LIG    1       24.218 -22.176   7.204  0.00  0.00    +0.261 C 
BRANCH  12  13
ATOM     13  C   LIG    1       23.845 -23.214   6.134  0.00  0.00    +0.166 C 
BRANCH  13  14
ATOM     14  O   LIG    1       22.850 -24.097   6.674  0.00  0.00    -0.387 OA
ATOM     15  H   LIG    1       23.188 -24.363   7.550  0.00  0.00    +0.210 HD
ENDBRANCH  13  14
BRANCH  13  16
ATOM     16  C   LIG    1       25.103 -24.034   5.763  0.00  0.00    +0.115 C 
BRANCH  16  17
ATOM     17  N   LIG    1       24.829 -25.051   4.739  0.00  0.00    -0.311 NA
ATOM     18  H   LIG    1       23.813 -25.110   4.621  0.00  0.00    +0.122 HD
BRANCH  17  19
ATOM     19  C   LIG    1       25.390 -26.370   5.065  0.00  0.00    +0.048 C 
ATOM     20  C   LIG    1       24.270 -27.254   5.623  0.00  0.00    +0.024 C 
ATOM     21  C   LIG    1       26.556 -26.318   6.057  0.00  0.00    +0.024 C 
ENDBRANCH  17  19
ENDBRANCH  16  17
ENDBRANCH  13  16
ENDBRANCH  12  13
ENDBRANCH   1  12
TORSDOF 10
ENDMDL
MODEL 7
REMARK VINA RESULT:      -7.2      2.988      7.681
REMARK  Name = *****
REMARK                            x       y       z     vdW  Elec       q    Type
REMARK                         _______ _______ _______ _____ _____    ______ ____
ROOT
ATOM      1  O   LIG    1       26.254 -20.659   5.906  0.00  0.00    -0.489 OA
ENDROOT
BRANCH   1   5
ATOM      2  C   LIG    1       30.159 -19.667   7.090  0.00  0.00    -0.045 A 
ATOM      3  C   LIG    1       29.490 -20.718   7.722  0.00  0.00    +0.007 A 
ATOM      4  C   LIG    1       28.194 -21.062   7.335  0.00  0.00    +0.046 A 
ATOM      5  C   LIG    1       27.535 -20.372   6.313  0.00  0.00    +0.121 A 
ATOM      6  C   LIG    1       28.208 -19.337   5.659  0.00  0.00    +0.046 A 
ATOM      7  C   LIG    1       29.510 -18.985   6.056  0.00  0.00    +0.007 A 
BRANCH   2   8
ATOM      8  C   LIG    1       31.561 -19.316   7.523  0.00  0.00    +0.063 C 
BRANCH   8   9
ATOM      9  C   LIG    1       31.599 -18.448   8.781  0.00  0.00    +0.164 C 
BRANCH   9  11
ATOM     10  C   LIG    1       32.399 -16.373   9.561  0.00  0.00    +0.193 C 
ATOM     11  O   LIG    1       32.047 -17.140   8.418  0.00  0.00    -0.383 OA
ENDBRANCH   9  11
ENDBRANCH   8   9
ENDBRANCH   2   8
ENDBRANCH   1   5
BRANCH   1  12
ATOM     12  C   LIG    1       25.869 -19.979   4.695  0.00  0.00    +0.261 C 
BRANCH  12  13
ATOM     13  C   LIG    1       24.636 -20.635   4.056  0.00  0.00    +0.166 C 
BRANCH  13  14
ATOM     14  O   LIG    1       23.635 -19.627   3.839  0.00  0.00    -0.387 OA
ATOM     15  H   LIG    1       23.283 -19.419   4.724  0.00  0.00    +0.210 HD
ENDBRANCH  13  14
BRANCH  13  16
ATOM     16  C   LIG    1       24.075 -21.705   5.021  0.00  0.00    +0.115 C 
BRANCH  16  17
ATOM     17  N   LIG    1       24.778 -22.990   4.906  0.00  0.00    -0.311 NA
ATOM     18  H   LIG    1       24.472 -23.436   4.036  0.00  0.00    +0.122 HD
BRANCH  17  19
ATOM     19  C   LIG    1       24.552 -23.882   6.052  0.00  0.00    +0.048 C 
ATOM     20  C   LIG    1       23.293 -23.419   6.793  0.00  0.00    +0.024 C 
ATOM     21  C   LIG    1       25.733 -23.949   7.025  0.00  0.00    +0.024 C 
ENDBRANCH  17  19
ENDBRANCH  16  17
ENDBRANCH  13  16
ENDBRANCH  12  13
ENDBRANCH   1  12
TORSDOF 10
ENDMDL
MODEL 8
REMARK VINA RESULT:      -7.1      6.625      9.733
REMARK  Name = *****
REMARK                            x       y       z     vdW  Elec       q    Type
REMARK                         _______ _______ _______ _____ _____    ______ ____
ROOT
ATOM      1  O   LIG    1       23.551 -25.504   6.126  0.00  0.00    -0.489 OA
ENDROOT
BRANCH   1   5
ATOM      2  C   LIG    1       25.161 -21.928   7.629  0.00  0.00    -0.045 A 
ATOM      3  C   LIG    1       26.000 -23.021   7.396  0.00  0.00    +0.007 A 
ATOM      4  C   LIG    1       25.479 -24.213   6.891  0.00  0.00    +0.046 A 
ATOM      5  C   LIG    1       24.116 -24.347   6.607  0.00  0.00    +0.121 A 
ATOM      6  C   LIG    1       23.277 -23.250   6.813  0.00  0.00    +0.046 A 
ATOM      7  C   LIG    1       23.800 -22.052   7.330  0.00  0.00    +0.007 A 
BRANCH   2   8
ATOM      8  C   LIG    1       25.747 -20.648   8.171  0.00  0.00    +0.063 C 
BRANCH   8   9
ATOM      9  C   LIG    1       27.038 -20.235   7.466  0.00  0.00    +0.164 C 
BRANCH   9  11
ATOM     10  C   LIG    1       29.205 -21.117   7.750  0.00  0.00    +0.193 C 
ATOM     11  O   LIG    1       28.130 -20.424   8.368  0.00  0.00    -0.383 OA
ENDBRANCH   9  11
ENDBRANCH   8   9
ENDBRANCH   2   8
ENDBRANCH   1   5
BRANCH   1  12
ATOM     12  C   LIG    1       24.512 -26.430   5.580  0.00  0.00    +0.261 C 
BRANCH  12  13
ATOM     13  C   LIG    1       24.427 -27.795   6.278  0.00  0.00    +0.166 C 
BRANCH  13  14
ATOM     14  O   LIG    1       25.649 -28.025   6.997  0.00  0.00    -0.387 OA
ATOM     15  H   LIG    1       26.349 -28.041   6.317  0.00  0.00    +0.210 HD
ENDBRANCH  13  14
BRANCH  13  16
ATOM     16  C   LIG    1       24.253 -28.900   5.209  0.00  0.00    +0.115 C 
BRANCH  16  17
ATOM     17  N   LIG    1       23.419 -30.013   5.681  0.00  0.00    -0.311 NA
ATOM     18  H   LIG    1       22.849 -29.668   6.460  0.00  0.00    +0.122 HD
BRANCH  17  19
ATOM     19  C   LIG    1       24.197 -31.191   6.090  0.00  0.00    +0.048 C 
ATOM     20  C   LIG    1       25.460 -31.268   5.227  0.00  0.00    +0.024 C 
ATOM     21  C   LIG    1       23.421 -32.508   5.996  0.00  0.00    +0.024 C 
ENDBRANCH  17  19
ENDBRANCH  16  17
ENDBRANCH  13  16
ENDBRANCH  12  13
ENDBRANCH   1  12
TORSDOF 10
ENDMDL
MODEL 9
REMARK VINA RESULT:      -7.0      3.736      7.828
REMARK  Name = *****
REMARK                            x       y       z     vdW  Elec       q    Type
REMARK                         _______ _______ _______ _____ _____    ______ ____
ROOT
ATOM      1  O   LIG    1       24.246 -21.037   6.690  0.00  0.00    -0.489 OA
ENDROOT
BRANCH   1   5
ATOM      2  C   LIG    1       28.309 -19.981   6.838  0.00  0.00    -0.045 A 
ATOM      3  C   LIG    1       27.637 -19.981   5.613  0.00  0.00    +0.007 A 
ATOM      4  C   LIG    1       26.286 -20.324   5.550  0.00  0.00    +0.046 A 
ATOM      5  C   LIG    1       25.572 -20.675   6.700  0.00  0.00    +0.121 A 
ATOM      6  C   LIG    1       26.231 -20.652   7.932  0.00  0.00    +0.046 A 
ATOM      7  C   LIG    1       27.594 -20.315   7.993  0.00  0.00    +0.007 A 
BRANCH   2   8
ATOM      8  C   LIG    1       29.768 -19.603   6.882  0.00  0.00    +0.063 C 
BRANCH   8   9
ATOM      9  C   LIG    1       30.377 -19.728   8.279  0.00  0.00    +0.164 C 
BRANCH   9  11
ATOM     10  C   LIG    1       31.165 -21.788   9.112  0.00  0.00    +0.193 C 
ATOM     11  O   LIG    1       31.424 -20.701   8.234  0.00  0.00    -0.383 OA
ENDBRANCH   9  11
ENDBRANCH   8   9
ENDBRANCH   2   8
ENDBRANCH   1   5
BRANCH   1  12
ATOM     12  C   LIG    1       23.980 -22.265   7.397  0.00  0.00    +0.261 C 
BRANCH  12  13
ATOM     13  C   LIG    1       24.079 -23.479   6.462  0.00  0.00    +0.166 C 
BRANCH  13  14
ATOM     14  O   LIG    1       22.893 -24.275   6.609  0.00  0.00    -0.387 OA
ATOM     15  H   LIG    1       22.974 -24.698   7.484  0.00  0.00    +0.210 HD
ENDBRANCH  13  14
BRANCH  13  16
ATOM     16  C   LIG    1       25.311 -24.325   6.860  0.00  0.00    +0.115 C 
BRANCH  16  17
ATOM     17  N   LIG    1       26.035 -24.849   5.694  0.00  0.00    -0.311 NA
ATOM     18  H   LIG    1       25.444 -24.704   4.869  0.00  0.00    +0.122 HD
BRANCH  17  19
ATOM     19  C   LIG    1       26.402 -26.267   5.825  0.00  0.00    +0.048 C 
ATOM     20  C   LIG    1       25.875 -27.024   4.602  0.00  0.00    +0.024 C 
ATOM     21  C   LIG    1       25.883 -26.923   7.108  0.00  0.00    +0.024 C 
ENDBRANCH  17  19
ENDBRANCH  16  17
ENDBRANCH  13  16
ENDBRANCH  12  13
ENDBRANCH   1  12
TORSDOF 10
ENDMDL
