MODEL 1
REMARK VINA RESULT:       2.3      0.000      0.000
REMARK  Name = *****
REMARK                            x       y       z     vdW  Elec       q    Type
REMARK                         _______ _______ _______ _____ _____    ______ ____
ROOT
ATOM      1  C   LIG    1       27.374 -16.557   3.951  0.00  0.00    -0.021 C 
ATOM      2  C   LIG    1       26.995 -17.820   4.282  0.00  0.00    -0.035 C 
ATOM      3  C   LIG    1       25.799 -18.489   3.617  0.00  0.00    +0.059 C 
ATOM      4  C   LIG    1       26.037 -19.923   3.090  0.00  0.00    +0.085 C 
ATOM      5  C   LIG    1       24.734 -20.511   2.579  0.00  0.00    -0.011 C 
ATOM      6  C   LIG    1       23.545 -20.110   3.033  0.00  0.00    +0.009 C 
ATOM      7  C   LIG    1       23.424 -19.104   4.090  0.00  0.00    +0.051 C 
ATOM      8  S   LIG    1       26.663 -21.092   4.334  0.00  0.00    -0.116 S 
ATOM      9  C   LIG    1       27.753 -20.053   5.290  0.00  0.00    +0.016 A 
ATOM     10  C   LIG    1       28.579 -20.770   6.183  0.00  0.00    +0.015 A 
ATOM     11  C   LIG    1       29.443 -20.117   7.054  0.00  0.00    +0.001 A 
ATOM     12  C   LIG    1       29.471 -18.733   7.062  0.00  0.00    +0.001 A 
ATOM     13  C   LIG    1       28.660 -18.013   6.177  0.00  0.00    +0.009 A 
ATOM     14  C   LIG    1       24.508 -18.362   4.408  0.00  0.00    -0.005 C 
ATOM     15  C   LIG    1       27.807 -18.645   5.242  0.00  0.00    -0.008 A 
ENDROOT
BRANCH   7  16
ATOM     16  C   LIG    1       22.078 -18.886   4.737  0.00  0.00    +0.417 C 
ATOM     17  F   LIG    1       22.214 -18.559   6.051  0.00  0.00    -0.166 F 
ATOM     18  F   LIG    1       21.300 -19.996   4.690  0.00  0.00    -0.166 F 
ATOM     19  F   LIG    1       21.367 -17.877   4.169  0.00  0.00    -0.166 F 
ENDBRANCH   7  16
BRANCH   1  20
ATOM     20  C   LIG    1       26.705 -15.571   3.003  0.00  0.00    +0.043 C 
BRANCH  20  21
ATOM     21  C   LIG    1       27.597 -14.395   2.519  0.00  0.00    +0.088 C 
BRANCH  21  25
ATOM     22  N   LIG    1       24.247 -13.048   3.776  0.00  0.00    -0.298 NA
ATOM     23  C   LIG    1       24.726 -12.938   2.380  0.00  0.00    +0.100 C 
ATOM     24  C   LIG    1       26.168 -12.392   2.214  0.00  0.00    +0.100 C 
ATOM     25  N   LIG    1       27.209 -13.059   3.014  0.00  0.00    -0.300 NA
ATOM     26  C   LIG    1       26.734 -13.093   4.418  0.00  0.00    +0.100 C 
ATOM     27  C   LIG    1       25.293 -13.626   4.648  0.00  0.00    +0.100 C 
BRANCH  22  28
ATOM     28  C   LIG    1       23.007 -13.871   3.810  0.00  0.00    +0.112 C 
BRANCH  28  29
ATOM     29  C   LIG    1       23.137 -15.208   4.565  0.00  0.00    +0.171 C 
BRANCH  29  30
ATOM     30  O   LIG    1       22.287 -15.246   5.708  0.00  0.00    -0.394 OA
ATOM     31  H   LIG    1       21.392 -15.018   5.392  0.00  0.00    +0.209 HD
ENDBRANCH  29  30
ENDBRANCH  28  29
ENDBRANCH  22  28
ENDBRANCH  21  25
ENDBRANCH  20  21
ENDBRANCH   1  20
TORSDOF 7
ENDMDL
MODEL 2
REMARK VINA RESULT:       3.7      1.317      1.810
REMARK  Name = *****
REMARK                            x       y       z     vdW  Elec       q    Type
REMARK                         _______ _______ _______ _____ _____    ______ ____
ROOT
ATOM      1  C   LIG    1       27.515 -16.561   3.345  0.00  0.00    -0.021 C 
ATOM      2  C   LIG    1       27.003 -17.687   3.910  0.00  0.00    -0.035 C 
ATOM      3  C   LIG    1       25.708 -18.309   3.406  0.00  0.00    +0.059 C 
ATOM      4  C   LIG    1       25.750 -19.832   3.146  0.00  0.00    +0.085 C 
ATOM      5  C   LIG    1       24.365 -20.335   2.780  0.00  0.00    -0.011 C 
ATOM      6  C   LIG    1       23.253 -19.714   3.179  0.00  0.00    +0.009 C 
ATOM      7  C   LIG    1       23.300 -18.527   4.036  0.00  0.00    +0.051 C 
ATOM      8  S   LIG    1       26.287 -20.828   4.570  0.00  0.00    -0.116 S 
ATOM      9  C   LIG    1       27.534 -19.779   5.294  0.00  0.00    +0.016 A 
ATOM     10  C   LIG    1       28.308 -20.422   6.285  0.00  0.00    +0.015 A 
ATOM     11  C   LIG    1       29.281 -19.737   7.003  0.00  0.00    +0.001 A 
ATOM     12  C   LIG    1       29.474 -18.388   6.756  0.00  0.00    +0.001 A 
ATOM     13  C   LIG    1       28.716 -17.743   5.771  0.00  0.00    +0.009 A 
ATOM     14  C   LIG    1       24.477 -17.882   4.188  0.00  0.00    -0.005 C 
ATOM     15  C   LIG    1       27.754 -18.420   4.987  0.00  0.00    -0.008 A 
ENDROOT
BRANCH   7  16
ATOM     16  C   LIG    1       22.019 -18.030   4.662  0.00  0.00    +0.417 C 
ATOM     17  F   LIG    1       22.001 -18.276   6.000  0.00  0.00    -0.166 F 
ATOM     18  F   LIG    1       20.924 -18.635   4.139  0.00  0.00    -0.166 F 
ATOM     19  F   LIG    1       21.839 -16.691   4.522  0.00  0.00    -0.166 F 
ENDBRANCH   7  16
BRANCH   1  20
ATOM     20  C   LIG    1       26.926 -15.685   2.247  0.00  0.00    +0.043 C 
BRANCH  20  21
ATOM     21  C   LIG    1       26.360 -14.315   2.713  0.00  0.00    +0.088 C 
BRANCH  21  25
ATOM     22  N   LIG    1       23.632 -12.161   4.305  0.00  0.00    -0.298 NA
ATOM     23  C   LIG    1       23.785 -13.617   4.521  0.00  0.00    +0.100 C 
ATOM     24  C   LIG    1       23.941 -14.467   3.233  0.00  0.00    +0.100 C 
ATOM     25  N   LIG    1       24.978 -14.022   2.286  0.00  0.00    -0.300 NA
ATOM     26  C   LIG    1       24.758 -12.578   2.034  0.00  0.00    +0.100 C 
ATOM     27  C   LIG    1       24.589 -11.676   3.287  0.00  0.00    +0.100 C 
BRANCH  22  28
ATOM     28  C   LIG    1       23.819 -11.447   5.598  0.00  0.00    +0.112 C 
BRANCH  28  29
ATOM     29  C   LIG    1       25.201 -11.639   6.251  0.00  0.00    +0.171 C 
BRANCH  29  30
ATOM     30  O   LIG    1       25.828 -12.837   5.802  0.00  0.00    -0.394 OA
ATOM     31  H   LIG    1       26.595 -12.980   6.388  0.00  0.00    +0.209 HD
ENDBRANCH  29  30
ENDBRANCH  28  29
ENDBRANCH  22  28
ENDBRANCH  21  25
ENDBRANCH  20  21
ENDBRANCH   1  20
TORSDOF 7
ENDMDL
