MODEL 1
REMARK VINA RESULT:      -8.8      0.000      0.000
REMARK  Name = *****
REMARK                            x       y       z     vdW  Elec       q    Type
REMARK                         _______ _______ _______ _____ _____    ______ ____
ROOT
ATOM      1  C   LIG    1       21.814 -21.052   4.812  0.00  0.00    +0.086 C 
ATOM      2  C   LIG    1       23.269 -20.956   5.038  0.00  0.00    +0.103 A 
ATOM      3  O   LIG    1       23.839 -21.803   5.947  0.00  0.00    -0.460 OA
ATOM      4  C   LIG    1       25.160 -21.446   6.058  0.00  0.00    +0.142 A 
ATOM      5  C   LIG    1       25.422 -20.394   5.190  0.00  0.00    +0.021 A 
ATOM      6  C   LIG    1       26.702 -19.824   5.161  0.00  0.00    +0.023 A 
ATOM      7  C   LIG    1       27.665 -20.241   6.083  0.00  0.00    +0.022 A 
ATOM      8  C   LIG    1       27.356 -21.326   6.923  0.00  0.00    +0.146 A 
ATOM      9  O   LIG    1       28.314 -21.764   7.876  0.00  0.00    -0.422 OA
ATOM     10  C   LIG    1       29.511 -21.096   8.085  0.00  0.00    +0.338 C 
ATOM     11  O   LIG    1       30.306 -21.419   8.952  0.00  0.00    -0.245 OA
ATOM     12  C   LIG    1       29.789 -19.962   7.194  0.00  0.00    +0.096 C 
ATOM     13  C   LIG    1       28.954 -19.546   6.233  0.00  0.00    -0.033 C 
ATOM     14  C   LIG    1       29.330 -18.354   5.395  0.00  0.00    +0.045 C 
ATOM     15  C   LIG    1       26.115 -22.013   6.916  0.00  0.00    +0.035 A 
ATOM     16  C   LIG    1       25.840 -23.221   7.756  0.00  0.00    +0.051 C 
ATOM     17  C   LIG    1       24.217 -20.113   4.510  0.00  0.00    +0.053 A 
ENDROOT
TORSDOF 0
ENDMDL
MODEL 2
REMARK VINA RESULT:      -8.1      1.951      3.212
REMARK  Name = *****
REMARK                            x       y       z     vdW  Elec       q    Type
REMARK                         _______ _______ _______ _____ _____    ______ ____
ROOT
ATOM      1  C   LIG    1       23.304 -24.444   6.506  0.00  0.00    +0.086 C 
ATOM      2  C   LIG    1       24.407 -23.490   6.731  0.00  0.00    +0.103 A 
ATOM      3  O   LIG    1       24.484 -22.389   5.924  0.00  0.00    -0.460 OA
ATOM      4  C   LIG    1       25.641 -21.728   6.253  0.00  0.00    +0.142 A 
ATOM      5  C   LIG    1       26.270 -22.401   7.292  0.00  0.00    +0.021 A 
ATOM      6  C   LIG    1       27.502 -21.936   7.770  0.00  0.00    +0.023 A 
ATOM      7  C   LIG    1       28.139 -20.874   7.123  0.00  0.00    +0.022 A 
ATOM      8  C   LIG    1       27.447 -20.213   6.092  0.00  0.00    +0.146 A 
ATOM      9  O   LIG    1       28.075 -19.136   5.411  0.00  0.00    -0.422 OA
ATOM     10  C   LIG    1       29.392 -18.772   5.653  0.00  0.00    +0.338 C 
ATOM     11  O   LIG    1       29.963 -17.899   5.021  0.00  0.00    -0.245 OA
ATOM     12  C   LIG    1       30.080 -19.495   6.730  0.00  0.00    +0.096 C 
ATOM     13  C   LIG    1       29.516 -20.473   7.452  0.00  0.00    -0.033 C 
ATOM     14  C   LIG    1       30.325 -21.164   8.516  0.00  0.00    +0.045 C 
ATOM     15  C   LIG    1       26.150 -20.571   5.644  0.00  0.00    +0.035 A 
ATOM     16  C   LIG    1       25.397 -19.798   4.605  0.00  0.00    +0.051 C 
ATOM     17  C   LIG    1       25.453 -23.504   7.621  0.00  0.00    +0.053 A 
ENDROOT
TORSDOF 0
ENDMDL
MODEL 3
REMARK VINA RESULT:      -8.1      1.095      5.239
REMARK  Name = *****
REMARK                            x       y       z     vdW  Elec       q    Type
REMARK                         _______ _______ _______ _____ _____    ______ ____
ROOT
ATOM      1  C   LIG    1       30.936 -21.433   8.643  0.00  0.00    +0.086 C 
ATOM      2  C   LIG    1       29.700 -21.010   7.957  0.00  0.00    +0.103 A 
ATOM      3  O   LIG    1       28.506 -21.476   8.430  0.00  0.00    -0.460 OA
ATOM      4  C   LIG    1       27.531 -21.038   7.568  0.00  0.00    +0.142 A 
ATOM      5  C   LIG    1       28.117 -20.267   6.572  0.00  0.00    +0.021 A 
ATOM      6  C   LIG    1       27.322 -19.746   5.544  0.00  0.00    +0.023 A 
ATOM      7  C   LIG    1       25.972 -20.101   5.465  0.00  0.00    +0.022 A 
ATOM      8  C   LIG    1       25.424 -20.864   6.512  0.00  0.00    +0.146 A 
ATOM      9  O   LIG    1       24.057 -21.246   6.454  0.00  0.00    -0.422 OA
ATOM     10  C   LIG    1       23.261 -20.984   5.349  0.00  0.00    +0.338 C 
ATOM     11  O   LIG    1       22.109 -21.374   5.257  0.00  0.00    -0.245 OA
ATOM     12  C   LIG    1       23.876 -20.195   4.273  0.00  0.00    +0.096 C 
ATOM     13  C   LIG    1       25.139 -19.749   4.305  0.00  0.00    -0.033 C 
ATOM     14  C   LIG    1       25.674 -18.971   3.134  0.00  0.00    +0.045 C 
ATOM     15  C   LIG    1       26.159 -21.322   7.635  0.00  0.00    +0.035 A 
ATOM     16  C   LIG    1       25.535 -22.057   8.782  0.00  0.00    +0.051 C 
ATOM     17  C   LIG    1       29.501 -20.219   6.851  0.00  0.00    +0.053 A 
ENDROOT
TORSDOF 0
ENDMDL
MODEL 4
REMARK VINA RESULT:      -7.7      1.830      6.069
REMARK  Name = *****
REMARK                            x       y       z     vdW  Elec       q    Type
REMARK                         _______ _______ _______ _____ _____    ______ ____
ROOT
ATOM      1  C   LIG    1       32.186 -18.049   8.783  0.00  0.00    +0.086 C 
ATOM      2  C   LIG    1       31.093 -18.840   8.187  0.00  0.00    +0.103 A 
ATOM      3  O   LIG    1       30.470 -18.348   7.074  0.00  0.00    -0.460 OA
ATOM      4  C   LIG    1       29.431 -19.198   6.784  0.00  0.00    +0.142 A 
ATOM      5  C   LIG    1       29.427 -20.242   7.700  0.00  0.00    +0.021 A 
ATOM      6  C   LIG    1       28.422 -21.216   7.633  0.00  0.00    +0.023 A 
ATOM      7  C   LIG    1       27.373 -21.065   6.723  0.00  0.00    +0.022 A 
ATOM      8  C   LIG    1       27.438 -20.003   5.802  0.00  0.00    +0.146 A 
ATOM      9  O   LIG    1       26.380 -19.822   4.872  0.00  0.00    -0.422 OA
ATOM     10  C   LIG    1       25.227 -20.591   4.902  0.00  0.00    +0.338 C 
ATOM     11  O   LIG    1       24.282 -20.394   4.157  0.00  0.00    -0.245 OA
ATOM     12  C   LIG    1       25.195 -21.681   5.886  0.00  0.00    +0.096 C 
ATOM     13  C   LIG    1       26.192 -21.943   6.742  0.00  0.00    -0.033 C 
ATOM     14  C   LIG    1       26.041 -23.071   7.726  0.00  0.00    +0.045 C 
ATOM     15  C   LIG    1       28.491 -19.054   5.753  0.00  0.00    +0.035 A 
ATOM     16  C   LIG    1       28.585 -17.986   4.707  0.00  0.00    +0.051 C 
ATOM     17  C   LIG    1       30.519 -20.029   8.570  0.00  0.00    +0.053 A 
ENDROOT
TORSDOF 0
ENDMDL
MODEL 5
REMARK VINA RESULT:      -7.1      1.897      6.057
REMARK  Name = *****
REMARK                            x       y       z     vdW  Elec       q    Type
REMARK                         _______ _______ _______ _____ _____    ______ ____
ROOT
ATOM      1  C   LIG    1       30.642 -19.283   6.599  0.00  0.00    +0.086 C 
ATOM      2  C   LIG    1       29.267 -19.746   6.336  0.00  0.00    +0.103 A 
ATOM      3  O   LIG    1       28.550 -19.119   5.355  0.00  0.00    -0.460 OA
ATOM      4  C   LIG    1       27.283 -19.648   5.380  0.00  0.00    +0.142 A 
ATOM      5  C   LIG    1       27.220 -20.632   6.358  0.00  0.00    +0.021 A 
ATOM      6  C   LIG    1       26.005 -21.286   6.602  0.00  0.00    +0.023 A 
ATOM      7  C   LIG    1       24.847 -20.863   5.944  0.00  0.00    +0.022 A 
ATOM      8  C   LIG    1       24.971 -19.879   4.947  0.00  0.00    +0.146 A 
ATOM      9  O   LIG    1       23.809 -19.424   4.269  0.00  0.00    -0.422 OA
ATOM     10  C   LIG    1       22.534 -19.838   4.624  0.00  0.00    +0.338 C 
ATOM     11  O   LIG    1       21.526 -19.396   4.098  0.00  0.00    -0.245 OA
ATOM     12  C   LIG    1       22.449 -20.858   5.677  0.00  0.00    +0.096 C 
ATOM     13  C   LIG    1       23.515 -21.373   6.304  0.00  0.00    -0.033 C 
ATOM     14  C   LIG    1       23.308 -22.396   7.388  0.00  0.00    +0.045 C 
ATOM     15  C   LIG    1       26.196 -19.264   4.581  0.00  0.00    +0.035 A 
ATOM     16  C   LIG    1       26.318 -18.283   3.455  0.00  0.00    +0.051 C 
ATOM     17  C   LIG    1       28.505 -20.719   6.937  0.00  0.00    +0.053 A 
ENDROOT
TORSDOF 0
ENDMDL
MODEL 6
REMARK VINA RESULT:      -6.9      1.566      2.045
REMARK  Name = *****
REMARK                            x       y       z     vdW  Elec       q    Type
REMARK                         _______ _______ _______ _____ _____    ______ ____
ROOT
ATOM      1  C   LIG    1       20.903 -18.659   3.624  0.00  0.00    +0.086 C 
ATOM      2  C   LIG    1       22.226 -19.143   4.062  0.00  0.00    +0.103 A 
ATOM      3  O   LIG    1       22.274 -20.071   5.065  0.00  0.00    -0.460 OA
ATOM      4  C   LIG    1       23.599 -20.274   5.364  0.00  0.00    +0.142 A 
ATOM      5  C   LIG    1       24.380 -19.493   4.521  0.00  0.00    +0.021 A 
ATOM      6  C   LIG    1       25.773 -19.497   4.670  0.00  0.00    +0.023 A 
ATOM      7  C   LIG    1       26.353 -20.191   5.735  0.00  0.00    +0.022 A 
ATOM      8  C   LIG    1       25.519 -20.984   6.544  0.00  0.00    +0.146 A 
ATOM      9  O   LIG    1       26.081 -21.693   7.639  0.00  0.00    -0.422 OA
ATOM     10  C   LIG    1       27.410 -21.554   8.009  0.00  0.00    +0.338 C 
ATOM     11  O   LIG    1       27.883 -22.099   8.992  0.00  0.00    -0.245 OA
ATOM     12  C   LIG    1       28.243 -20.708   7.144  0.00  0.00    +0.096 C 
ATOM     13  C   LIG    1       27.783 -20.070   6.060  0.00  0.00    -0.033 C 
ATOM     14  C   LIG    1       28.721 -19.207   5.260  0.00  0.00    +0.045 C 
ATOM     15  C   LIG    1       24.117 -21.106   6.367  0.00  0.00    +0.035 A 
ATOM     16  C   LIG    1       23.262 -22.025   7.185  0.00  0.00    +0.051 C 
ATOM     17  C   LIG    1       23.496 -18.804   3.662  0.00  0.00    +0.053 A 
ENDROOT
TORSDOF 0
ENDMDL
MODEL 7
REMARK VINA RESULT:      -6.3      1.849      3.458
REMARK  Name = *****
REMARK                            x       y       z     vdW  Elec       q    Type
REMARK                         _______ _______ _______ _____ _____    ______ ____
ROOT
ATOM      1  C   LIG    1       24.244 -21.469   4.271  0.00  0.00    +0.086 C 
ATOM      2  C   LIG    1       25.374 -21.164   5.170  0.00  0.00    +0.103 A 
ATOM      3  O   LIG    1       26.154 -20.080   4.882  0.00  0.00    -0.460 OA
ATOM      4  C   LIG    1       27.188 -20.075   5.786  0.00  0.00    +0.142 A 
ATOM      5  C   LIG    1       27.031 -21.142   6.662  0.00  0.00    +0.021 A 
ATOM      6  C   LIG    1       27.997 -21.371   7.650  0.00  0.00    +0.023 A 
ATOM      7  C   LIG    1       29.161 -20.599   7.672  0.00  0.00    +0.022 A 
ATOM      8  C   LIG    1       29.258 -19.517   6.779  0.00  0.00    +0.146 A 
ATOM      9  O   LIG    1       30.435 -18.721   6.774  0.00  0.00    -0.422 OA
ATOM     10  C   LIG    1       31.543 -19.031   7.548  0.00  0.00    +0.338 C 
ATOM     11  O   LIG    1       32.584 -18.398   7.495  0.00  0.00    -0.245 OA
ATOM     12  C   LIG    1       31.403 -20.175   8.458  0.00  0.00    +0.096 C 
ATOM     13  C   LIG    1       30.294 -20.920   8.555  0.00  0.00    -0.033 C 
ATOM     14  C   LIG    1       30.271 -22.087   9.505  0.00  0.00    +0.045 C 
ATOM     15  C   LIG    1       28.259 -19.171   5.833  0.00  0.00    +0.035 A 
ATOM     16  C   LIG    1       28.344 -17.962   4.954  0.00  0.00    +0.051 C 
ATOM     17  C   LIG    1       25.845 -21.810   6.287  0.00  0.00    +0.053 A 
ENDROOT
TORSDOF 0
ENDMDL
MODEL 8
REMARK VINA RESULT:      -6.1      3.052      5.216
REMARK  Name = *****
REMARK                            x       y       z     vdW  Elec       q    Type
REMARK                         _______ _______ _______ _____ _____    ______ ____
ROOT
ATOM      1  C   LIG    1       25.121 -27.890   6.645  0.00  0.00    +0.086 C 
ATOM      2  C   LIG    1       25.099 -26.415   6.611  0.00  0.00    +0.103 A 
ATOM      3  O   LIG    1       23.886 -25.786   6.645  0.00  0.00    -0.460 OA
ATOM      4  C   LIG    1       24.123 -24.443   6.490  0.00  0.00    +0.142 A 
ATOM      5  C   LIG    1       25.492 -24.231   6.392  0.00  0.00    +0.021 A 
ATOM      6  C   LIG    1       25.977 -22.934   6.180  0.00  0.00    +0.023 A 
ATOM      7  C   LIG    1       25.078 -21.888   5.953  0.00  0.00    +0.022 A 
ATOM      8  C   LIG    1       23.703 -22.152   6.088  0.00  0.00    +0.146 A 
ATOM      9  O   LIG    1       22.768 -21.109   5.855  0.00  0.00    -0.422 OA
ATOM     10  C   LIG    1       23.151 -19.858   5.396  0.00  0.00    +0.338 C 
ATOM     11  O   LIG    1       22.349 -18.981   5.121  0.00  0.00    -0.245 OA
ATOM     12  C   LIG    1       24.595 -19.628   5.259  0.00  0.00    +0.096 C 
ATOM     13  C   LIG    1       25.526 -20.552   5.530  0.00  0.00    -0.033 C 
ATOM     14  C   LIG    1       26.979 -20.215   5.328  0.00  0.00    +0.045 C 
ATOM     15  C   LIG    1       23.163 -23.423   6.413  0.00  0.00    +0.035 A 
ATOM     16  C   LIG    1       21.702 -23.661   6.638  0.00  0.00    +0.051 C 
ATOM     17  C   LIG    1       26.113 -25.494   6.512  0.00  0.00    +0.053 A 
ENDROOT
TORSDOF 0
ENDMDL
MODEL 9
REMARK VINA RESULT:      -5.9      7.464      9.892
REMARK  Name = *****
REMARK                            x       y       z     vdW  Elec       q    Type
REMARK                         _______ _______ _______ _____ _____    ______ ____
ROOT
ATOM      1  C   LIG    1       25.517 -24.934   5.652  0.00  0.00    +0.086 C 
ATOM      2  C   LIG    1       25.212 -26.294   6.138  0.00  0.00    +0.103 A 
ATOM      3  O   LIG    1       25.814 -26.719   7.289  0.00  0.00    -0.460 OA
ATOM      4  C   LIG    1       25.462 -28.034   7.466  0.00  0.00    +0.142 A 
ATOM      5  C   LIG    1       24.611 -28.420   6.438  0.00  0.00    +0.021 A 
ATOM      6  C   LIG    1       24.155 -29.743   6.380  0.00  0.00    +0.023 A 
ATOM      7  C   LIG    1       24.650 -30.686   7.285  0.00  0.00    +0.022 A 
ATOM      8  C   LIG    1       25.490 -30.238   8.319  0.00  0.00    +0.146 A 
ATOM      9  O   LIG    1       26.015 -31.177   9.247  0.00  0.00    -0.422 OA
ATOM     10  C   LIG    1       25.815 -32.542   9.114  0.00  0.00    +0.338 C 
ATOM     11  O   LIG    1       26.323 -33.361   9.861  0.00  0.00    -0.245 OA
ATOM     12  C   LIG    1       24.940 -32.969   8.013  0.00  0.00    +0.096 C 
ATOM     13  C   LIG    1       24.363 -32.123   7.149  0.00  0.00    -0.033 C 
ATOM     14  C   LIG    1       23.505 -32.674   6.042  0.00  0.00    +0.045 C 
ATOM     15  C   LIG    1       25.893 -28.889   8.492  0.00  0.00    +0.035 A 
ATOM     16  C   LIG    1       26.716 -28.419   9.652  0.00  0.00    +0.051 C 
ATOM     17  C   LIG    1       24.422 -27.289   5.615  0.00  0.00    +0.053 A 
ENDROOT
TORSDOF 0
ENDMDL
