MODEL 1
REMARK VINA RESULT:      10.9      0.000      0.000
REMARK  Name = *****
REMARK                            x       y       z     vdW  Elec       q    Type
REMARK                         _______ _______ _______ _____ _____    ______ ____
ROOT
ATOM      1  C   LIG    1       24.985 -14.487   4.251  0.00  0.00    +0.064 A 
ATOM      2  C   LIG    1       26.271 -14.938   4.584  0.00  0.00    +0.049 A 
ATOM      3  I   LIG    1       26.668 -14.215   6.759  0.00  0.00    -0.041 I 
ATOM      4  C   LIG    1       26.671 -16.272   4.281  0.00  0.00    +0.065 A 
ATOM      5  C   LIG    1       25.587 -17.165   3.928  0.00  0.00    +0.040 A 
ATOM      6  I   LIG    1       25.383 -18.850   2.218  0.00  0.00    -0.042 I 
ATOM      7  C   LIG    1       24.270 -16.816   4.240  0.00  0.00    +0.065 A 
ATOM      8  C   LIG    1       23.998 -15.463   4.479  0.00  0.00    +0.049 A 
ATOM      9  I   LIG    1       22.446 -14.878   5.774  0.00  0.00    -0.041 I 
ENDROOT
BRANCH   7  10
ATOM     10  C   LIG    1       23.184 -17.851   4.149  0.00  0.00    +0.246 C 
ATOM     11  N   LIG    1       23.070 -18.738   5.233  0.00  0.00    -0.309 N 
ATOM     12  H   LIG    1       23.708 -18.683   6.005  0.00  0.00    +0.149 HD
ATOM     13  O   LIG    1       22.547 -17.964   3.140  0.00  0.00    -0.270 OA
BRANCH  11  14
ATOM     14  C   LIG    1       22.133 -19.855   5.180  0.00  0.00    +0.132 C 
BRANCH  14  15
ATOM     15  C   LIG    1       22.675 -21.290   5.351  0.00  0.00    +0.174 C 
BRANCH  15  16
ATOM     16  O   LIG    1       23.185 -21.459   6.680  0.00  0.00    -0.394 OA
ATOM     17  H   LIG    1       24.145 -21.315   6.657  0.00  0.00    +0.209 HD
ENDBRANCH  15  16
ENDBRANCH  14  15
ENDBRANCH  11  14
ENDBRANCH   7  10
BRANCH   1  20
ATOM     18  C   LIG    1       23.676 -11.734   1.853  0.00  0.00    +0.110 C 
ATOM     19  C   LIG    1       23.913 -12.557   3.093  0.00  0.00    +0.217 C 
ATOM     20  N   LIG    1       24.871 -13.595   3.073  0.00  0.00    -0.267 N 
ATOM     21  O   LIG    1       23.226 -12.275   4.073  0.00  0.00    -0.276 OA
BRANCH  20  22
ATOM     22  C   LIG    1       25.656 -13.941   1.848  0.00  0.00    +0.147 C 
BRANCH  22  23
ATOM     23  C   LIG    1       27.128 -13.433   1.822  0.00  0.00    +0.158 C 
BRANCH  23  24
ATOM     24  O   LIG    1       28.050 -14.524   1.841  0.00  0.00    -0.388 OA
ATOM     25  H   LIG    1       28.952 -14.159   1.833  0.00  0.00    +0.210 HD
ENDBRANCH  23  24
BRANCH  23  26
ATOM     26  C   LIG    1       27.478 -12.428   2.921  0.00  0.00    +0.188 C 
BRANCH  26  27
ATOM     27  O   LIG    1       28.617 -12.874   3.650  0.00  0.00    -0.392 OA
ATOM     28  H   LIG    1       28.353 -13.681   4.132  0.00  0.00    +0.209 HD
ENDBRANCH  26  27
ENDBRANCH  23  26
ENDBRANCH  22  23
ENDBRANCH  20  22
ENDBRANCH   1  20
BRANCH   4  29
ATOM     29  C   LIG    1       28.144 -16.576   4.533  0.00  0.00    +0.246 C 
ATOM     30  N   LIG    1       28.604 -17.827   4.827  0.00  0.00    -0.309 N 
ATOM     31  H   LIG    1       29.529 -17.855   5.240  0.00  0.00    +0.149 HD
ATOM     32  O   LIG    1       29.039 -15.696   4.435  0.00  0.00    -0.270 OA
BRANCH  30  33
ATOM     33  C   LIG    1       27.724 -18.920   5.005  0.00  0.00    +0.138 C 
BRANCH  33  34
ATOM     34  C   LIG    1       27.803 -19.841   6.198  0.00  0.00    +0.157 C 
BRANCH  34  35
ATOM     35  O   LIG    1       28.758 -20.888   5.943  0.00  0.00    -0.388 OA
ATOM     36  H   LIG    1       29.571 -20.454   5.610  0.00  0.00    +0.210 HD
ENDBRANCH  34  35
BRANCH  34  37
ATOM     37  C   LIG    1       26.468 -20.481   6.484  0.00  0.00    +0.188 C 
BRANCH  37  38
ATOM     38  O   LIG    1       26.019 -21.204   5.337  0.00  0.00    -0.392 OA
ATOM     39  H   LIG    1       26.572 -22.006   5.292  0.00  0.00    +0.209 HD
ENDBRANCH  37  38
ENDBRANCH  34  37
ENDBRANCH  33  34
ENDBRANCH  30  33
ENDBRANCH   4  29
TORSDOF 16
ENDMDL
