MODEL 1
REMARK VINA RESULT:      -7.2      0.000      0.000
REMARK  Name = *****
REMARK                            x       y       z     vdW  Elec       q    Type
REMARK                         _______ _______ _______ _____ _____    ______ ____
ROOT
ATOM      1  C   LIG    1       28.693 -20.446   6.546  0.00  0.00    +0.008 C 
ATOM      2  C   LIG    1       27.334 -20.401   7.255  0.00  0.00    -0.008 C 
ATOM      3  C   LIG    1       26.087 -20.400   6.318  0.00  0.00    +0.032 C 
ATOM      4  C   LIG    1       25.131 -21.683   6.166  0.00  0.00    +0.161 C 
ATOM      5  C   LIG    1       24.639 -22.258   4.764  0.00  0.00    +0.292 C 
ATOM      6  O   LIG    1       23.785 -21.387   4.012  0.00  0.00    -0.314 OA
ATOM      7  C   LIG    1       23.901 -20.046   4.422  0.00  0.00    +0.203 C 
ATOM      8  O   LIG    1       23.603 -19.868   5.824  0.00  0.00    -0.199 OA
ATOM      9  C   LIG    1       25.306 -19.619   3.976  0.00  0.00    +0.068 C 
ATOM     10  C   LIG    1       22.903 -19.185   3.646  0.00  0.00    +0.077 C 
ATOM     11  O   LIG    1       23.787 -23.417   4.850  0.00  0.00    -0.320 OA
ATOM     12  C   LIG    1       24.141 -24.445   5.731  0.00  0.00    +0.253 C 
ATOM     13  C   LIG    1       25.522 -24.255   6.336  0.00  0.00    +0.048 C 
ATOM     14  C   LIG    1       25.897 -25.493   7.158  0.00  0.00    +0.013 C 
ATOM     15  C   LIG    1       25.561 -22.895   7.102  0.00  0.00    +0.037 C 
ATOM     16  C   LIG    1       26.962 -22.793   7.723  0.00  0.00    +0.007 C 
ATOM     17  O   LIG    1       23.826 -21.149   6.597  0.00  0.00    -0.220 OA
ATOM     18  C   LIG    1       26.357 -19.580   5.053  0.00  0.00    +0.012 C 
ATOM     19  C   LIG    1       27.231 -21.450   8.342  0.00  0.00    +0.004 C 
ENDROOT
BRANCH  12  20
ATOM     20  O   LIG    1       23.163 -24.509   6.750  0.00  0.00    -0.367 OA
ATOM     21  H   LIG    1       22.622 -25.301   6.511  0.00  0.00    +0.212 HD
ENDBRANCH  12  20
TORSDOF 1
ENDMDL
MODEL 2
REMARK VINA RESULT:      -7.1      1.645      4.183
REMARK  Name = *****
REMARK                            x       y       z     vdW  Elec       q    Type
REMARK                         _______ _______ _______ _____ _____    ______ ____
ROOT
ATOM      1  C   LIG    1       27.671 -19.998   8.281  0.00  0.00    +0.008 C 
ATOM      2  C   LIG    1       27.571 -20.975   7.104  0.00  0.00    -0.008 C 
ATOM      3  C   LIG    1       26.140 -21.511   6.794  0.00  0.00    +0.032 C 
ATOM      4  C   LIG    1       25.309 -21.032   5.504  0.00  0.00    +0.161 C 
ATOM      5  C   LIG    1       23.782 -20.579   5.555  0.00  0.00    +0.292 C 
ATOM      6  O   LIG    1       22.851 -21.606   5.918  0.00  0.00    -0.314 OA
ATOM      7  C   LIG    1       23.475 -22.675   6.588  0.00  0.00    +0.203 C 
ATOM      8  O   LIG    1       24.529 -23.279   5.806  0.00  0.00    -0.199 OA
ATOM      9  C   LIG    1       23.896 -22.096   7.946  0.00  0.00    +0.068 C 
ATOM     10  C   LIG    1       22.448 -23.774   6.868  0.00  0.00    +0.077 C 
ATOM     11  O   LIG    1       23.225 -20.186   4.286  0.00  0.00    -0.320 OA
ATOM     12  C   LIG    1       23.980 -19.355   3.450  0.00  0.00    +0.253 C 
ATOM     13  C   LIG    1       25.232 -18.822   4.124  0.00  0.00    +0.048 C 
ATOM     14  C   LIG    1       25.914 -17.801   3.207  0.00  0.00    +0.013 C 
ATOM     15  C   LIG    1       26.119 -20.024   4.579  0.00  0.00    +0.037 C 
ATOM     16  C   LIG    1       27.381 -19.413   5.205  0.00  0.00    +0.007 C 
ATOM     17  O   LIG    1       25.084 -22.304   4.792  0.00  0.00    -0.220 OA
ATOM     18  C   LIG    1       25.351 -21.735   8.087  0.00  0.00    +0.012 C 
ATOM     19  C   LIG    1       28.260 -20.437   5.867  0.00  0.00    +0.004 C 
ENDROOT
BRANCH  12  20
ATOM     20  O   LIG    1       24.320 -20.087   2.290  0.00  0.00    -0.367 OA
ATOM     21  H   LIG    1       23.720 -20.872   2.319  0.00  0.00    +0.212 HD
ENDBRANCH  12  20
TORSDOF 1
ENDMDL
MODEL 3
REMARK VINA RESULT:      -6.4      2.836      4.854
REMARK  Name = *****
REMARK                            x       y       z     vdW  Elec       q    Type
REMARK                         _______ _______ _______ _____ _____    ______ ____
ROOT
ATOM      1  C   LIG    1       26.123 -17.900   3.766  0.00  0.00    +0.008 C 
ATOM      2  C   LIG    1       26.592 -19.352   3.919  0.00  0.00    -0.008 C 
ATOM      3  C   LIG    1       27.547 -19.627   5.120  0.00  0.00    +0.032 C 
ATOM      4  C   LIG    1       27.064 -20.426   6.429  0.00  0.00    +0.161 C 
ATOM      5  C   LIG    1       27.349 -19.935   7.919  0.00  0.00    +0.292 C 
ATOM      6  O   LIG    1       28.730 -19.909   8.301  0.00  0.00    -0.314 OA
ATOM      7  C   LIG    1       29.588 -19.883   7.186  0.00  0.00    +0.203 C 
ATOM      8  O   LIG    1       29.386 -21.009   6.305  0.00  0.00    -0.199 OA
ATOM      9  C   LIG    1       29.378 -18.497   6.561  0.00  0.00    +0.068 C 
ATOM     10  C   LIG    1       31.042 -19.946   7.658  0.00  0.00    +0.077 C 
ATOM     11  O   LIG    1       26.829 -20.798   8.949  0.00  0.00    -0.320 OA
ATOM     12  C   LIG    1       25.529 -21.299   8.813  0.00  0.00    +0.253 C 
ATOM     13  C   LIG    1       24.775 -20.673   7.652  0.00  0.00    +0.048 C 
ATOM     14  C   LIG    1       23.320 -21.152   7.667  0.00  0.00    +0.013 C 
ATOM     15  C   LIG    1       25.562 -20.938   6.329  0.00  0.00    +0.037 C 
ATOM     16  C   LIG    1       24.722 -20.322   5.200  0.00  0.00    +0.007 C 
ATOM     17  O   LIG    1       27.990 -21.573   6.450  0.00  0.00    -0.220 OA
ATOM     18  C   LIG    1       28.504 -18.451   5.336  0.00  0.00    +0.012 C 
ATOM     19  C   LIG    1       25.433 -20.325   3.875  0.00  0.00    +0.004 C 
ENDROOT
BRANCH  12  20
ATOM     20  O   LIG    1       25.611 -22.699   8.647  0.00  0.00    -0.367 OA
ATOM     21  H   LIG    1       24.724 -22.949   8.289  0.00  0.00    +0.212 HD
ENDBRANCH  12  20
TORSDOF 1
ENDMDL
MODEL 4
REMARK VINA RESULT:      -6.1      1.406      4.280
REMARK  Name = *****
REMARK                            x       y       z     vdW  Elec       q    Type
REMARK                         _______ _______ _______ _____ _____    ______ ____
ROOT
ATOM      1  C   LIG    1       27.393 -20.337   7.511  0.00  0.00    +0.008 C 
ATOM      2  C   LIG    1       27.088 -20.954   6.140  0.00  0.00    -0.008 C 
ATOM      3  C   LIG    1       26.119 -22.175   6.153  0.00  0.00    +0.032 C 
ATOM      4  C   LIG    1       24.607 -22.071   5.615  0.00  0.00    +0.161 C 
ATOM      5  C   LIG    1       23.347 -22.640   6.407  0.00  0.00    +0.292 C 
ATOM      6  O   LIG    1       23.316 -24.064   6.567  0.00  0.00    -0.314 OA
ATOM      7  C   LIG    1       24.588 -24.643   6.403  0.00  0.00    +0.203 C 
ATOM      8  O   LIG    1       25.170 -24.348   5.115  0.00  0.00    -0.199 OA
ATOM      9  C   LIG    1       25.391 -24.177   7.625  0.00  0.00    +0.068 C 
ATOM     10  C   LIG    1       24.472 -26.166   6.497  0.00  0.00    +0.077 C 
ATOM     11  O   LIG    1       22.080 -22.443   5.748  0.00  0.00    -0.320 OA
ATOM     12  C   LIG    1       21.808 -21.195   5.176  0.00  0.00    +0.253 C 
ATOM     13  C   LIG    1       22.851 -20.147   5.523  0.00  0.00    +0.048 C 
ATOM     14  C   LIG    1       22.401 -18.780   4.997  0.00  0.00    +0.013 C 
ATOM     15  C   LIG    1       24.250 -20.636   5.030  0.00  0.00    +0.037 C 
ATOM     16  C   LIG    1       25.241 -19.513   5.370  0.00  0.00    +0.007 C 
ATOM     17  O   LIG    1       24.595 -23.075   4.535  0.00  0.00    -0.220 OA
ATOM     18  C   LIG    1       26.360 -23.049   7.387  0.00  0.00    +0.012 C 
ATOM     19  C   LIG    1       26.673 -19.905   5.131  0.00  0.00    +0.004 C 
ENDROOT
BRANCH  12  20
ATOM     20  O   LIG    1       21.725 -21.360   3.775  0.00  0.00    -0.367 OA
ATOM     21  H   LIG    1       22.545 -21.861   3.545  0.00  0.00    +0.212 HD
ENDBRANCH  12  20
TORSDOF 1
ENDMDL
MODEL 5
REMARK VINA RESULT:      -6.1      6.853      9.234
REMARK  Name = *****
REMARK                            x       y       z     vdW  Elec       q    Type
REMARK                         _______ _______ _______ _____ _____    ______ ____
ROOT
ATOM      1  C   LIG    1       26.662 -27.613   4.745  0.00  0.00    +0.008 C 
ATOM      2  C   LIG    1       25.335 -27.894   5.459  0.00  0.00    -0.008 C 
ATOM      3  C   LIG    1       25.061 -29.389   5.806  0.00  0.00    +0.032 C 
ATOM      4  C   LIG    1       25.135 -29.943   7.314  0.00  0.00    +0.161 C 
ATOM      5  C   LIG    1       25.904 -31.275   7.729  0.00  0.00    +0.292 C 
ATOM      6  O   LIG    1       25.365 -32.487   7.186  0.00  0.00    -0.314 OA
ATOM      7  C   LIG    1       24.561 -32.250   6.056  0.00  0.00    +0.203 C 
ATOM      8  O   LIG    1       23.463 -31.355   6.334  0.00  0.00    -0.199 OA
ATOM      9  C   LIG    1       25.540 -31.791   4.967  0.00  0.00    +0.068 C 
ATOM     10  C   LIG    1       23.947 -33.568   5.579  0.00  0.00    +0.077 C 
ATOM     11  O   LIG    1       25.847 -31.594   9.133  0.00  0.00    -0.320 OA
ATOM     12  C   LIG    1       26.057 -30.569  10.063  0.00  0.00    +0.253 C 
ATOM     13  C   LIG    1       26.521 -29.273   9.418  0.00  0.00    +0.048 C 
ATOM     14  C   LIG    1       26.879 -28.257  10.507  0.00  0.00    +0.013 C 
ATOM     15  C   LIG    1       25.450 -28.807   8.381  0.00  0.00    +0.037 C 
ATOM     16  C   LIG    1       25.959 -27.477   7.807  0.00  0.00    +0.007 C 
ATOM     17  O   LIG    1       23.771 -30.465   7.518  0.00  0.00    -0.220 OA
ATOM     18  C   LIG    1       25.584 -30.310   4.701  0.00  0.00    +0.012 C 
ATOM     19  C   LIG    1       25.134 -26.984   6.652  0.00  0.00    +0.004 C 
ENDROOT
BRANCH  12  20
ATOM     20  O   LIG    1       24.851 -30.360  10.770  0.00  0.00    -0.367 OA
ATOM     21  H   LIG    1       25.105 -30.489  11.716  0.00  0.00    +0.212 HD
ENDBRANCH  12  20
TORSDOF 1
ENDMDL
MODEL 6
REMARK VINA RESULT:      -5.7      6.745     10.011
REMARK  Name = *****
REMARK                            x       y       z     vdW  Elec       q    Type
REMARK                         _______ _______ _______ _____ _____    ______ ____
ROOT
ATOM      1  C   LIG    1       25.460 -28.655  12.562  0.00  0.00    +0.008 C 
ATOM      2  C   LIG    1       26.216 -29.624  11.646  0.00  0.00    -0.008 C 
ATOM      3  C   LIG    1       25.324 -30.565  10.779  0.00  0.00    +0.032 C 
ATOM      4  C   LIG    1       25.160 -30.363   9.192  0.00  0.00    +0.161 C 
ATOM      5  C   LIG    1       23.756 -30.386   8.439  0.00  0.00    +0.292 C 
ATOM      6  O   LIG    1       23.066 -31.642   8.469  0.00  0.00    -0.314 OA
ATOM      7  C   LIG    1       23.520 -32.472   9.511  0.00  0.00    +0.203 C 
ATOM      8  O   LIG    1       24.937 -32.739   9.429  0.00  0.00    -0.199 OA
ATOM      9  C   LIG    1       23.041 -31.785  10.798  0.00  0.00    +0.068 C 
ATOM     10  C   LIG    1       22.810 -33.825   9.434  0.00  0.00    +0.077 C 
ATOM     11  O   LIG    1       23.830 -30.185   7.015  0.00  0.00    -0.320 OA
ATOM     12  C   LIG    1       24.661 -29.172   6.522  0.00  0.00    +0.253 C 
ATOM     13  C   LIG    1       25.223 -28.285   7.620  0.00  0.00    +0.048 C 
ATOM     14  C   LIG    1       25.986 -27.113   6.993  0.00  0.00    +0.013 C 
ATOM     15  C   LIG    1       26.036 -29.165   8.622  0.00  0.00    +0.037 C 
ATOM     16  C   LIG    1       26.611 -28.202   9.671  0.00  0.00    +0.007 C 
ATOM     17  O   LIG    1       25.655 -31.649   8.665  0.00  0.00    -0.220 OA
ATOM     18  C   LIG    1       24.081 -31.006  11.557  0.00  0.00    +0.012 C 
ATOM     19  C   LIG    1       27.268 -28.914  10.820  0.00  0.00    +0.004 C 
ENDROOT
BRANCH  12  20
ATOM     20  O   LIG    1       25.710 -29.776   5.794  0.00  0.00    -0.367 OA
ATOM     21  H   LIG    1       26.188 -30.317   6.468  0.00  0.00    +0.212 HD
ENDBRANCH  12  20
TORSDOF 1
ENDMDL
MODEL 7
REMARK VINA RESULT:      -5.6      2.004      4.546
REMARK  Name = *****
REMARK                            x       y       z     vdW  Elec       q    Type
REMARK                         _______ _______ _______ _____ _____    ______ ____
ROOT
ATOM      1  C   LIG    1       25.935 -24.929   6.665  0.00  0.00    +0.008 C 
ATOM      2  C   LIG    1       25.286 -23.687   7.289  0.00  0.00    -0.008 C 
ATOM      3  C   LIG    1       26.137 -22.382   7.231  0.00  0.00    +0.032 C 
ATOM      4  C   LIG    1       25.769 -21.166   6.246  0.00  0.00    +0.161 C 
ATOM      5  C   LIG    1       26.834 -20.426   5.319  0.00  0.00    +0.292 C 
ATOM      6  O   LIG    1       27.857 -19.704   6.018  0.00  0.00    -0.314 OA
ATOM      7  C   LIG    1       27.999 -20.142   7.348  0.00  0.00    +0.203 C 
ATOM      8  O   LIG    1       26.774 -20.030   8.103  0.00  0.00    -0.199 OA
ATOM      9  C   LIG    1       28.591 -21.554   7.235  0.00  0.00    +0.068 C 
ATOM     10  C   LIG    1       29.040 -19.277   8.062  0.00  0.00    +0.077 C 
ATOM     11  O   LIG    1       26.297 -19.361   4.511  0.00  0.00    -0.320 OA
ATOM     12  C   LIG    1       25.089 -19.575   3.837  0.00  0.00    +0.253 C 
ATOM     13  C   LIG    1       24.619 -21.018   3.911  0.00  0.00    +0.048 C 
ATOM     14  C   LIG    1       23.386 -21.203   3.021  0.00  0.00    +0.013 C 
ATOM     15  C   LIG    1       24.441 -21.420   5.410  0.00  0.00    +0.037 C 
ATOM     16  C   LIG    1       23.923 -22.866   5.407  0.00  0.00    +0.007 C 
ATOM     17  O   LIG    1       25.567 -20.053   7.192  0.00  0.00    -0.220 OA
ATOM     18  C   LIG    1       27.624 -22.692   7.429  0.00  0.00    +0.012 C 
ATOM     19  C   LIG    1       23.876 -23.473   6.781  0.00  0.00    +0.004 C 
ENDROOT
BRANCH  12  20
ATOM     20  O   LIG    1       24.116 -18.713   4.390  0.00  0.00    -0.367 OA
ATOM     21  H   LIG    1       23.802 -19.193   5.194  0.00  0.00    +0.212 HD
ENDBRANCH  12  20
TORSDOF 1
ENDMDL
MODEL 8
REMARK VINA RESULT:      -5.2      9.284     10.694
REMARK  Name = *****
REMARK                            x       y       z     vdW  Elec       q    Type
REMARK                         _______ _______ _______ _____ _____    ______ ____
ROOT
ATOM      1  C   LIG    1       23.284 -30.284   9.385  0.00  0.00    +0.008 C 
ATOM      2  C   LIG    1       23.659 -30.730  10.803  0.00  0.00    -0.008 C 
ATOM      3  C   LIG    1       25.001 -30.158  11.355  0.00  0.00    +0.032 C 
ATOM      4  C   LIG    1       25.041 -29.029  12.499  0.00  0.00    +0.161 C 
ATOM      5  C   LIG    1       25.954 -27.725  12.421  0.00  0.00    +0.292 C 
ATOM      6  O   LIG    1       27.366 -27.964  12.444  0.00  0.00    -0.314 OA
ATOM      7  C   LIG    1       27.686 -29.285  12.080  0.00  0.00    +0.203 C 
ATOM      8  O   LIG    1       27.051 -30.264  12.931  0.00  0.00    -0.199 OA
ATOM      9  C   LIG    1       27.346 -29.375  10.586  0.00  0.00    +0.068 C 
ATOM     10  C   LIG    1       29.195 -29.501  12.209  0.00  0.00    +0.077 C 
ATOM     11  O   LIG    1       25.840 -26.839  13.552  0.00  0.00    -0.320 OA
ATOM     12  C   LIG    1       24.566 -26.546  14.050  0.00  0.00    +0.253 C 
ATOM     13  C   LIG    1       23.450 -27.074  13.163  0.00  0.00    +0.048 C 
ATOM     14  C   LIG    1       22.099 -26.577  13.688  0.00  0.00    +0.013 C 
ATOM     15  C   LIG    1       23.597 -28.622  13.026  0.00  0.00    +0.037 C 
ATOM     16  C   LIG    1       22.417 -29.090  12.161  0.00  0.00    +0.007 C 
ATOM     17  O   LIG    1       25.800 -29.702  13.570  0.00  0.00    -0.220 OA
ATOM     18  C   LIG    1       26.050 -30.061  10.245  0.00  0.00    +0.012 C 
ATOM     19  C   LIG    1       22.514 -30.539  11.774  0.00  0.00    +0.004 C 
ENDROOT
BRANCH  12  20
ATOM     20  O   LIG    1       24.462 -27.094  15.348  0.00  0.00    -0.367 OA
ATOM     21  H   LIG    1       23.897 -26.446  15.836  0.00  0.00    +0.212 HD
ENDBRANCH  12  20
TORSDOF 1
ENDMDL
MODEL 9
REMARK VINA RESULT:      -5.2      9.019     10.715
REMARK  Name = *****
REMARK                            x       y       z     vdW  Elec       q    Type
REMARK                         _______ _______ _______ _____ _____    ______ ____
ROOT
ATOM      1  C   LIG    1       22.090 -27.153  13.112  0.00  0.00    +0.008 C 
ATOM      2  C   LIG    1       22.693 -28.521  13.451  0.00  0.00    -0.008 C 
ATOM      3  C   LIG    1       22.408 -29.656  12.420  0.00  0.00    +0.032 C 
ATOM      4  C   LIG    1       23.548 -30.225  11.440  0.00  0.00    +0.161 C 
ATOM      5  C   LIG    1       23.337 -30.449   9.876  0.00  0.00    +0.292 C 
ATOM      6  O   LIG    1       22.373 -31.450   9.526  0.00  0.00    -0.314 OA
ATOM      7  C   LIG    1       21.484 -31.721  10.582  0.00  0.00    +0.203 C 
ATOM      8  O   LIG    1       22.162 -32.152  11.781  0.00  0.00    -0.199 OA
ATOM      9  C   LIG    1       20.630 -30.452  10.714  0.00  0.00    +0.068 C 
ATOM     10  C   LIG    1       20.540 -32.855  10.177  0.00  0.00    +0.077 C 
ATOM     11  O   LIG    1       24.487 -30.968   9.179  0.00  0.00    -0.320 OA
ATOM     12  C   LIG    1       25.744 -30.417   9.455  0.00  0.00    +0.253 C 
ATOM     13  C   LIG    1       25.666 -29.181  10.335  0.00  0.00    +0.048 C 
ATOM     14  C   LIG    1       27.056 -28.549  10.458  0.00  0.00    +0.013 C 
ATOM     15  C   LIG    1       24.970 -29.556  11.682  0.00  0.00    +0.037 C 
ATOM     16  C   LIG    1       24.968 -28.279  12.535  0.00  0.00    +0.007 C 
ATOM     17  O   LIG    1       23.590 -31.652  11.811  0.00  0.00    -0.220 OA
ATOM     18  C   LIG    1       20.996 -29.526  11.843  0.00  0.00    +0.012 C 
ATOM     19  C   LIG    1       24.163 -28.419  13.796  0.00  0.00    +0.004 C 
ENDROOT
BRANCH  12  20
ATOM     20  O   LIG    1       26.536 -31.410  10.074  0.00  0.00    -0.367 OA
ATOM     21  H   LIG    1       27.288 -30.905  10.467  0.00  0.00    +0.212 HD
ENDBRANCH  12  20
TORSDOF 1
ENDMDL
