MODEL 1
REMARK VINA RESULT:      -6.5      0.000      0.000
REMARK  Name = *****
REMARK                            x       y       z     vdW  Elec       q    Type
REMARK                         _______ _______ _______ _____ _____    ______ ____
ROOT
ATOM      1  C   LIG    1       22.910 -24.114   6.700  0.00  0.00    +0.048 C 
ATOM      2  C   LIG    1       23.815 -22.946   6.974  0.00  0.00    -0.009 A 
ATOM      3  C   LIG    1       25.216 -23.024   7.139  0.00  0.00    +0.126 A 
ATOM      4  C   LIG    1       25.939 -21.848   7.450  0.00  0.00    -0.009 A 
ATOM      5  C   LIG    1       27.432 -21.869   7.636  0.00  0.00    +0.048 C 
ATOM      6  C   LIG    1       25.273 -20.616   7.564  0.00  0.00    +0.007 A 
ATOM      7  C   LIG    1       23.896 -20.540   7.385  0.00  0.00    +0.001 A 
ATOM      8  C   LIG    1       23.183 -21.691   7.090  0.00  0.00    +0.007 A 
ENDROOT
BRANCH   3   9
ATOM      9  O   LIG    1       25.972 -24.171   7.128  0.00  0.00    -0.490 OA
BRANCH   9  10
ATOM     10  C   LIG    1       25.967 -24.978   5.949  0.00  0.00    +0.247 C 
BRANCH  10  11
ATOM     11  C   LIG    1       26.260 -26.455   6.299  0.00  0.00    +0.085 C 
ATOM     12  C   LIG    1       24.974 -27.279   6.396  0.00  0.00    +0.027 C 
BRANCH  11  13
ATOM     13  N   LIG    1       27.140 -27.060   5.285  0.00  0.00    -0.325 NA
ATOM     14  H   LIG    1       28.031 -26.562   5.269  0.00  0.00    +0.119 HD
ATOM     15  H   LIG    1       27.369 -28.017   5.559  0.00  0.00    +0.119 HD
ENDBRANCH  11  13
ENDBRANCH  10  11
ENDBRANCH   9  10
ENDBRANCH   3   9
TORSDOF 4
ENDMDL
MODEL 2
REMARK VINA RESULT:      -6.4      3.839      4.991
REMARK  Name = *****
REMARK                            x       y       z     vdW  Elec       q    Type
REMARK                         _______ _______ _______ _____ _____    ______ ____
ROOT
ATOM      1  C   LIG    1       25.475 -19.897   3.630  0.00  0.00    +0.048 C 
ATOM      2  C   LIG    1       24.927 -20.240   4.986  0.00  0.00    -0.009 A 
ATOM      3  C   LIG    1       25.696 -20.679   6.087  0.00  0.00    +0.126 A 
ATOM      4  C   LIG    1       25.041 -21.022   7.293  0.00  0.00    -0.009 A 
ATOM      5  C   LIG    1       25.808 -21.494   8.498  0.00  0.00    +0.048 C 
ATOM      6  C   LIG    1       23.645 -20.901   7.400  0.00  0.00    +0.007 A 
ATOM      7  C   LIG    1       22.891 -20.453   6.320  0.00  0.00    +0.001 A 
ATOM      8  C   LIG    1       23.529 -20.124   5.134  0.00  0.00    +0.007 A 
ENDROOT
BRANCH   3   9
ATOM      9  O   LIG    1       27.051 -20.911   6.089  0.00  0.00    -0.490 OA
BRANCH   9  10
ATOM     10  C   LIG    1       27.934 -19.788   6.050  0.00  0.00    +0.247 C 
BRANCH  10  11
ATOM     11  C   LIG    1       29.172 -20.038   6.943  0.00  0.00    +0.085 C 
ATOM     12  C   LIG    1       30.370 -19.196   6.497  0.00  0.00    +0.027 C 
BRANCH  11  13
ATOM     13  N   LIG    1       28.863 -19.724   8.348  0.00  0.00    -0.325 NA
ATOM     14  H   LIG    1       29.079 -18.744   8.531  0.00  0.00    +0.119 HD
ATOM     15  H   LIG    1       27.858 -19.815   8.506  0.00  0.00    +0.119 HD
ENDBRANCH  11  13
ENDBRANCH  10  11
ENDBRANCH   9  10
ENDBRANCH   3   9
TORSDOF 4
ENDMDL
MODEL 3
REMARK VINA RESULT:      -6.4      2.648      3.268
REMARK  Name = *****
REMARK                            x       y       z     vdW  Elec       q    Type
REMARK                         _______ _______ _______ _____ _____    ______ ____
ROOT
ATOM      1  C   LIG    1       22.011 -20.875   5.034  0.00  0.00    +0.048 C 
ATOM      2  C   LIG    1       23.474 -20.544   4.954  0.00  0.00    -0.009 A 
ATOM      3  C   LIG    1       24.443 -20.900   5.918  0.00  0.00    +0.126 A 
ATOM      4  C   LIG    1       25.780 -20.472   5.742  0.00  0.00    -0.009 A 
ATOM      5  C   LIG    1       26.855 -20.822   6.735  0.00  0.00    +0.048 C 
ATOM      6  C   LIG    1       26.142 -19.725   4.609  0.00  0.00    +0.007 A 
ATOM      7  C   LIG    1       25.189 -19.388   3.652  0.00  0.00    +0.001 A 
ATOM      8  C   LIG    1       23.876 -19.799   3.825  0.00  0.00    +0.007 A 
ENDROOT
BRANCH   3   9
ATOM      9  O   LIG    1       24.207 -21.558   7.101  0.00  0.00    -0.490 OA
BRANCH   9  10
ATOM     10  C   LIG    1       23.541 -22.822   7.056  0.00  0.00    +0.247 C 
BRANCH  10  11
ATOM     11  C   LIG    1       24.390 -23.857   6.280  0.00  0.00    +0.085 C 
ATOM     12  C   LIG    1       25.675 -24.212   7.033  0.00  0.00    +0.027 C 
BRANCH  11  13
ATOM     13  N   LIG    1       23.616 -25.088   6.050  0.00  0.00    -0.325 NA
ATOM     14  H   LIG    1       22.889 -24.906   5.357  0.00  0.00    +0.119 HD
ATOM     15  H   LIG    1       24.219 -25.797   5.630  0.00  0.00    +0.119 HD
ENDBRANCH  11  13
ENDBRANCH  10  11
ENDBRANCH   9  10
ENDBRANCH   3   9
TORSDOF 4
ENDMDL
MODEL 4
REMARK VINA RESULT:      -6.4      2.792      4.116
REMARK  Name = *****
REMARK                            x       y       z     vdW  Elec       q    Type
REMARK                         _______ _______ _______ _____ _____    ______ ____
ROOT
ATOM      1  C   LIG    1       26.777 -20.537   6.989  0.00  0.00    +0.048 C 
ATOM      2  C   LIG    1       25.738 -20.351   5.919  0.00  0.00    -0.009 A 
ATOM      3  C   LIG    1       24.372 -20.688   6.044  0.00  0.00    +0.126 A 
ATOM      4  C   LIG    1       23.515 -20.510   4.933  0.00  0.00    -0.009 A 
ATOM      5  C   LIG    1       22.051 -20.852   5.007  0.00  0.00    +0.048 C 
ATOM      6  C   LIG    1       24.012 -19.979   3.731  0.00  0.00    +0.007 A 
ATOM      7  C   LIG    1       25.355 -19.632   3.617  0.00  0.00    +0.001 A 
ATOM      8  C   LIG    1       26.200 -19.813   4.700  0.00  0.00    +0.007 A 
ENDROOT
BRANCH   3   9
ATOM      9  O   LIG    1       23.779 -21.283   7.131  0.00  0.00    -0.490 OA
BRANCH   9  10
ATOM     10  C   LIG    1       24.303 -22.529   7.597  0.00  0.00    +0.247 C 
BRANCH  10  11
ATOM     11  C   LIG    1       24.259 -23.591   6.474  0.00  0.00    +0.085 C 
ATOM     12  C   LIG    1       25.468 -24.529   6.535  0.00  0.00    +0.027 C 
BRANCH  11  13
ATOM     13  N   LIG    1       23.027 -24.391   6.571  0.00  0.00    -0.325 NA
ATOM     14  H   LIG    1       23.195 -25.320   6.183  0.00  0.00    +0.119 HD
ATOM     15  H   LIG    1       22.797 -24.546   7.554  0.00  0.00    +0.119 HD
ENDBRANCH  11  13
ENDBRANCH  10  11
ENDBRANCH   9  10
ENDBRANCH   3   9
TORSDOF 4
ENDMDL
MODEL 5
REMARK VINA RESULT:      -6.4      4.184      5.584
REMARK  Name = *****
REMARK                            x       y       z     vdW  Elec       q    Type
REMARK                         _______ _______ _______ _____ _____    ______ ____
ROOT
ATOM      1  C   LIG    1       26.120 -21.633   8.722  0.00  0.00    +0.048 C 
ATOM      2  C   LIG    1       26.559 -20.942   7.462  0.00  0.00    -0.009 A 
ATOM      3  C   LIG    1       27.809 -20.310   7.274  0.00  0.00    +0.126 A 
ATOM      4  C   LIG    1       28.068 -19.647   6.051  0.00  0.00    -0.009 A 
ATOM      5  C   LIG    1       29.381 -18.957   5.794  0.00  0.00    +0.048 C 
ATOM      6  C   LIG    1       27.105 -19.642   5.029  0.00  0.00    +0.007 A 
ATOM      7  C   LIG    1       25.882 -20.279   5.211  0.00  0.00    +0.001 A 
ATOM      8  C   LIG    1       25.620 -20.923   6.410  0.00  0.00    +0.007 A 
ENDROOT
BRANCH   3   9
ATOM      9  O   LIG    1       28.801 -20.177   8.215  0.00  0.00    -0.490 OA
BRANCH   9  10
ATOM     10  C   LIG    1       29.782 -21.212   8.321  0.00  0.00    +0.247 C 
BRANCH  10  11
ATOM     11  C   LIG    1       31.191 -20.607   8.519  0.00  0.00    +0.085 C 
ATOM     12  C   LIG    1       31.123 -19.194   9.104  0.00  0.00    +0.027 C 
BRANCH  11  13
ATOM     13  N   LIG    1       31.994 -21.457   9.415  0.00  0.00    -0.325 NA
ATOM     14  H   LIG    1       32.639 -22.019   8.859  0.00  0.00    +0.119 HD
ATOM     15  H   LIG    1       32.586 -20.868  10.004  0.00  0.00    +0.119 HD
ENDBRANCH  11  13
ENDBRANCH  10  11
ENDBRANCH   9  10
ENDBRANCH   3   9
TORSDOF 4
ENDMDL
MODEL 6
REMARK VINA RESULT:      -6.4      4.214      5.951
REMARK  Name = *****
REMARK                            x       y       z     vdW  Elec       q    Type
REMARK                         _______ _______ _______ _____ _____    ______ ____
ROOT
ATOM      1  C   LIG    1       29.453 -18.834   5.691  0.00  0.00    +0.048 C 
ATOM      2  C   LIG    1       28.166 -19.544   6.006  0.00  0.00    -0.009 A 
ATOM      3  C   LIG    1       27.873 -20.192   7.226  0.00  0.00    +0.126 A 
ATOM      4  C   LIG    1       26.640 -20.871   7.367  0.00  0.00    -0.009 A 
ATOM      5  C   LIG    1       26.273 -21.578   8.644  0.00  0.00    +0.048 C 
ATOM      6  C   LIG    1       25.709 -20.876   6.314  0.00  0.00    +0.007 A 
ATOM      7  C   LIG    1       25.994 -20.224   5.119  0.00  0.00    +0.001 A 
ATOM      8  C   LIG    1       27.205 -19.564   4.975  0.00  0.00    +0.007 A 
ENDROOT
BRANCH   3   9
ATOM      9  O   LIG    1       28.721 -20.325   8.299  0.00  0.00    -0.490 OA
BRANCH   9  10
ATOM     10  C   LIG    1       29.798 -21.260   8.204  0.00  0.00    +0.247 C 
BRANCH  10  11
ATOM     11  C   LIG    1       31.147 -20.569   8.513  0.00  0.00    +0.085 C 
ATOM     12  C   LIG    1       30.944 -19.198   9.164  0.00  0.00    +0.027 C 
BRANCH  11  13
ATOM     13  N   LIG    1       31.961 -21.407   9.410  0.00  0.00    -0.325 NA
ATOM     14  H   LIG    1       32.504 -22.068   8.854  0.00  0.00    +0.119 HD
ATOM     15  H   LIG    1       32.649 -20.825   9.890  0.00  0.00    +0.119 HD
ENDBRANCH  11  13
ENDBRANCH  10  11
ENDBRANCH   9  10
ENDBRANCH   3   9
TORSDOF 4
ENDMDL
MODEL 7
REMARK VINA RESULT:      -6.3      5.557      7.746
REMARK  Name = *****
REMARK                            x       y       z     vdW  Elec       q    Type
REMARK                         _______ _______ _______ _____ _____    ______ ____
ROOT
ATOM      1  C   LIG    1       29.525 -18.230   5.595  0.00  0.00    +0.048 C 
ATOM      2  C   LIG    1       29.267 -19.427   6.466  0.00  0.00    -0.009 A 
ATOM      3  C   LIG    1       30.194 -19.987   7.374  0.00  0.00    +0.126 A 
ATOM      4  C   LIG    1       29.836 -21.153   8.092  0.00  0.00    -0.009 A 
ATOM      5  C   LIG    1       30.782 -21.793   9.072  0.00  0.00    +0.048 C 
ATOM      6  C   LIG    1       28.566 -21.728   7.922  0.00  0.00    +0.007 A 
ATOM      7  C   LIG    1       27.650 -21.165   7.040  0.00  0.00    +0.001 A 
ATOM      8  C   LIG    1       27.999 -20.028   6.328  0.00  0.00    +0.007 A 
ENDROOT
BRANCH   3   9
ATOM      9  O   LIG    1       31.487 -19.569   7.575  0.00  0.00    -0.490 OA
BRANCH   9  10
ATOM     10  C   LIG    1       31.804 -18.900   8.797  0.00  0.00    +0.247 C 
BRANCH  10  11
ATOM     11  C   LIG    1       31.317 -17.433   8.757  0.00  0.00    +0.085 C 
ATOM     12  C   LIG    1       30.409 -17.106   9.946  0.00  0.00    +0.027 C 
BRANCH  11  13
ATOM     13  N   LIG    1       32.464 -16.509   8.764  0.00  0.00    -0.325 NA
ATOM     14  H   LIG    1       33.128 -16.790   8.042  0.00  0.00    +0.119 HD
ATOM     15  H   LIG    1       32.151 -15.575   8.496  0.00  0.00    +0.119 HD
ENDBRANCH  11  13
ENDBRANCH  10  11
ENDBRANCH   9  10
ENDBRANCH   3   9
TORSDOF 4
ENDMDL
MODEL 8
REMARK VINA RESULT:      -6.3      3.372      4.870
REMARK  Name = *****
REMARK                            x       y       z     vdW  Elec       q    Type
REMARK                         _______ _______ _______ _____ _____    ______ ____
ROOT
ATOM      1  C   LIG    1       25.760 -18.740   3.454  0.00  0.00    +0.048 C 
ATOM      2  C   LIG    1       24.607 -19.332   4.212  0.00  0.00    -0.009 A 
ATOM      3  C   LIG    1       24.708 -20.363   5.172  0.00  0.00    +0.126 A 
ATOM      4  C   LIG    1       23.528 -20.866   5.770  0.00  0.00    -0.009 A 
ATOM      5  C   LIG    1       23.575 -21.964   6.799  0.00  0.00    +0.048 C 
ATOM      6  C   LIG    1       22.276 -20.326   5.432  0.00  0.00    +0.007 A 
ATOM      7  C   LIG    1       22.181 -19.299   4.498  0.00  0.00    +0.001 A 
ATOM      8  C   LIG    1       23.333 -18.810   3.904  0.00  0.00    +0.007 A 
ENDROOT
BRANCH   3   9
ATOM      9  O   LIG    1       25.856 -21.026   5.534  0.00  0.00    -0.490 OA
BRANCH   9  10
ATOM     10  C   LIG    1       26.732 -20.404   6.477  0.00  0.00    +0.247 C 
BRANCH  10  11
ATOM     11  C   LIG    1       27.411 -21.468   7.372  0.00  0.00    +0.085 C 
ATOM     12  C   LIG    1       28.920 -21.236   7.480  0.00  0.00    +0.027 C 
BRANCH  11  13
ATOM     13  N   LIG    1       26.827 -21.452   8.724  0.00  0.00    -0.325 NA
ATOM     14  H   LIG    1       27.125 -20.607   9.211  0.00  0.00    +0.119 HD
ATOM     15  H   LIG    1       25.810 -21.380   8.655  0.00  0.00    +0.119 HD
ENDBRANCH  11  13
ENDBRANCH  10  11
ENDBRANCH   9  10
ENDBRANCH   3   9
TORSDOF 4
ENDMDL
MODEL 9
REMARK VINA RESULT:      -6.3      0.264      2.433
REMARK  Name = *****
REMARK                            x       y       z     vdW  Elec       q    Type
REMARK                         _______ _______ _______ _____ _____    ______ ____
ROOT
ATOM      1  C   LIG    1       27.450 -21.844   7.557  0.00  0.00    +0.048 C 
ATOM      2  C   LIG    1       25.967 -21.878   7.320  0.00  0.00    -0.009 A 
ATOM      3  C   LIG    1       25.191 -23.051   7.186  0.00  0.00    +0.126 A 
ATOM      4  C   LIG    1       23.809 -22.935   6.908  0.00  0.00    -0.009 A 
ATOM      5  C   LIG    1       22.933 -24.150   6.756  0.00  0.00    +0.048 C 
ATOM      6  C   LIG    1       23.213 -21.669   6.794  0.00  0.00    +0.007 A 
ATOM      7  C   LIG    1       23.975 -20.515   6.942  0.00  0.00    +0.001 A 
ATOM      8  C   LIG    1       25.331 -20.624   7.206  0.00  0.00    +0.007 A 
ENDROOT
BRANCH   3   9
ATOM      9  O   LIG    1       25.663 -24.342   7.200  0.00  0.00    -0.490 OA
BRANCH   9  10
ATOM     10  C   LIG    1       25.938 -24.980   5.951  0.00  0.00    +0.247 C 
BRANCH  10  11
ATOM     11  C   LIG    1       26.115 -26.504   6.147  0.00  0.00    +0.085 C 
ATOM     12  C   LIG    1       24.803 -27.259   5.919  0.00  0.00    +0.027 C 
BRANCH  11  13
ATOM     13  N   LIG    1       27.134 -27.026   5.220  0.00  0.00    -0.325 NA
ATOM     14  H   LIG    1       28.031 -26.585   5.421  0.00  0.00    +0.119 HD
ATOM     15  H   LIG    1       27.276 -28.022   5.396  0.00  0.00    +0.119 HD
ENDBRANCH  11  13
ENDBRANCH  10  11
ENDBRANCH   9  10
ENDBRANCH   3   9
TORSDOF 4
ENDMDL
