MODEL 1
REMARK VINA RESULT:      -4.1      0.000      0.000
REMARK  Name = *****
REMARK                            x       y       z     vdW  Elec       q    Type
REMARK                         _______ _______ _______ _____ _____    ______ ____
ROOT
ATOM      1  P   LIG    1       27.156 -14.190   3.381  0.00  0.00    +0.434 P 
ATOM      2  O   LIG    1       26.606 -14.299   1.993  0.00  0.00    -0.247 OA
ENDROOT
BRANCH   1   4
ATOM      3  O   LIG    1       24.994 -13.132   4.502  0.00  0.00    -0.237 OA
ATOM      4  C   LIG    1       26.164 -13.427   4.709  0.00  0.00    +0.418 C 
BRANCH   4   5
ATOM      5  O   LIG    1       26.775 -13.214   5.917  0.00  0.00    -0.472 OA
ATOM      6  H   LIG    1       27.672 -13.619   5.889  0.00  0.00    +0.296 HD
ENDBRANCH   4   5
ENDBRANCH   1   4
BRANCH   1   7
ATOM      7  O   LIG    1       27.789 -15.594   3.849  0.00  0.00    -0.317 OA
ATOM      8  H   LIG    1       28.742 -15.656   3.653  0.00  0.00    +0.220 HD
ENDBRANCH   1   7
BRANCH   1   9
ATOM      9  O   LIG    1       28.527 -13.324   3.316  0.00  0.00    -0.317 OA
ATOM     10  H   LIG    1       29.010 -13.375   4.165  0.00  0.00    +0.220 HD
ENDBRANCH   1   9
TORSDOF 4
ENDMDL
MODEL 2
REMARK VINA RESULT:      -3.8      0.435      1.760
REMARK  Name = *****
REMARK                            x       y       z     vdW  Elec       q    Type
REMARK                         _______ _______ _______ _____ _____    ______ ____
ROOT
ATOM      1  P   LIG    1       27.463 -14.030   3.550  0.00  0.00    +0.434 P 
ATOM      2  O   LIG    1       28.780 -13.324   3.643  0.00  0.00    -0.247 OA
ENDROOT
BRANCH   1   4
ATOM      3  O   LIG    1       24.941 -13.867   4.364  0.00  0.00    -0.237 OA
ATOM      4  C   LIG    1       26.090 -13.571   4.661  0.00  0.00    +0.418 C 
BRANCH   4   5
ATOM      5  O   LIG    1       26.404 -12.906   5.818  0.00  0.00    -0.472 OA
ATOM      6  H   LIG    1       25.615 -12.913   6.407  0.00  0.00    +0.296 HD
ENDBRANCH   4   5
ENDBRANCH   1   4
BRANCH   1   7
ATOM      7  O   LIG    1       26.978 -14.123   2.019  0.00  0.00    -0.317 OA
ATOM      8  H   LIG    1       27.026 -15.030   1.668  0.00  0.00    +0.220 HD
ENDBRANCH   1   7
BRANCH   1   9
ATOM      9  O   LIG    1       27.717 -15.612   3.812  0.00  0.00    -0.317 OA
ATOM     10  H   LIG    1       27.008 -16.149   3.406  0.00  0.00    +0.220 HD
ENDBRANCH   1   9
TORSDOF 4
ENDMDL
MODEL 3
REMARK VINA RESULT:      -3.8      1.025      2.058
REMARK  Name = *****
REMARK                            x       y       z     vdW  Elec       q    Type
REMARK                         _______ _______ _______ _____ _____    ______ ____
ROOT
ATOM      1  P   LIG    1       26.403 -14.501   3.354  0.00  0.00    +0.434 P 
ATOM      2  O   LIG    1       24.928 -14.332   3.544  0.00  0.00    -0.247 OA
ENDROOT
BRANCH   1   4
ATOM      3  O   LIG    1       28.664 -13.220   3.901  0.00  0.00    -0.237 OA
ATOM      4  C   LIG    1       27.578 -13.540   4.367  0.00  0.00    +0.418 C 
BRANCH   4   5
ATOM      5  O   LIG    1       27.191 -13.197   5.636  0.00  0.00    -0.472 OA
ATOM      6  H   LIG    1       27.712 -12.412   5.921  0.00  0.00    +0.296 HD
ENDBRANCH   4   5
ENDBRANCH   1   4
BRANCH   1   7
ATOM      7  O   LIG    1       26.793 -16.061   3.316  0.00  0.00    -0.317 OA
ATOM      8  H   LIG    1       26.336 -16.542   2.602  0.00  0.00    +0.220 HD
ENDBRANCH   1   7
BRANCH   1   9
ATOM      9  O   LIG    1       26.761 -14.132   1.814  0.00  0.00    -0.317 OA
ATOM     10  H   LIG    1       27.464 -14.719   1.472  0.00  0.00    +0.220 HD
ENDBRANCH   1   9
TORSDOF 4
ENDMDL
MODEL 4
REMARK VINA RESULT:      -3.8      1.140      1.710
REMARK  Name = *****
REMARK                            x       y       z     vdW  Elec       q    Type
REMARK                         _______ _______ _______ _____ _____    ______ ____
ROOT
ATOM      1  P   LIG    1       26.527 -14.829   3.248  0.00  0.00    +0.434 P 
ATOM      2  O   LIG    1       26.728 -14.283   1.869  0.00  0.00    -0.247 OA
ENDROOT
BRANCH   1   4
ATOM      3  O   LIG    1       25.933 -13.143   5.212  0.00  0.00    -0.237 OA
ATOM      4  C   LIG    1       25.451 -13.958   4.437  0.00  0.00    +0.418 C 
BRANCH   4   5
ATOM      5  O   LIG    1       24.111 -14.248   4.411  0.00  0.00    -0.472 OA
ATOM      6  H   LIG    1       23.678 -13.667   3.745  0.00  0.00    +0.296 HD
ENDBRANCH   4   5
ENDBRANCH   1   4
BRANCH   1   7
ATOM      7  O   LIG    1       26.193 -16.402   3.190  0.00  0.00    -0.317 OA
ATOM      8  H   LIG    1       26.929 -16.926   2.826  0.00  0.00    +0.220 HD
ENDBRANCH   1   7
BRANCH   1   9
ATOM      9  O   LIG    1       27.978 -14.924   3.971  0.00  0.00    -0.317 OA
ATOM     10  H   LIG    1       28.163 -15.841   4.257  0.00  0.00    +0.220 HD
ENDBRANCH   1   9
TORSDOF 4
ENDMDL
MODEL 5
REMARK VINA RESULT:      -3.8      0.979      1.399
REMARK  Name = *****
REMARK                            x       y       z     vdW  Elec       q    Type
REMARK                         _______ _______ _______ _____ _____    ______ ____
ROOT
ATOM      1  P   LIG    1       26.638 -14.796   3.394  0.00  0.00    +0.434 P 
ATOM      2  O   LIG    1       26.180 -16.205   3.173  0.00  0.00    -0.247 OA
ENDROOT
BRANCH   1   4
ATOM      3  O   LIG    1       24.453 -13.415   4.001  0.00  0.00    -0.237 OA
ATOM      4  C   LIG    1       25.607 -13.630   4.346  0.00  0.00    +0.418 C 
BRANCH   4   5
ATOM      5  O   LIG    1       26.171 -13.033   5.443  0.00  0.00    -0.472 OA
ATOM      6  H   LIG    1       25.575 -13.166   6.215  0.00  0.00    +0.296 HD
ENDBRANCH   4   5
ENDBRANCH   1   4
BRANCH   1   7
ATOM      7  O   LIG    1       28.169 -14.771   3.888  0.00  0.00    -0.317 OA
ATOM      8  H   LIG    1       28.576 -13.891   3.790  0.00  0.00    +0.220 HD
ENDBRANCH   1   7
BRANCH   1   9
ATOM      9  O   LIG    1       26.847 -14.099   1.943  0.00  0.00    -0.317 OA
ATOM     10  H   LIG    1       25.986 -13.856   1.548  0.00  0.00    +0.220 HD
ENDBRANCH   1   9
TORSDOF 4
ENDMDL
MODEL 6
REMARK VINA RESULT:      -3.8      1.013      2.492
REMARK  Name = *****
REMARK                            x       y       z     vdW  Elec       q    Type
REMARK                         _______ _______ _______ _____ _____    ______ ____
ROOT
ATOM      1  P   LIG    1       26.551 -14.643   3.317  0.00  0.00    +0.434 P 
ATOM      2  O   LIG    1       26.731 -16.129   3.313  0.00  0.00    -0.247 OA
ENDROOT
BRANCH   1   4
ATOM      3  O   LIG    1       28.656 -13.149   3.941  0.00  0.00    -0.237 OA
ATOM      4  C   LIG    1       27.601 -13.591   4.376  0.00  0.00    +0.418 C 
BRANCH   4   5
ATOM      5  O   LIG    1       27.156 -13.320   5.644  0.00  0.00    -0.472 OA
ATOM      6  H   LIG    1       27.091 -14.167   6.141  0.00  0.00    +0.296 HD
ENDBRANCH   4   5
ENDBRANCH   1   4
BRANCH   1   7
ATOM      7  O   LIG    1       26.477 -14.079   1.812  0.00  0.00    -0.317 OA
ATOM      8  H   LIG    1       26.663 -13.124   1.764  0.00  0.00    +0.220 HD
ENDBRANCH   1   7
BRANCH   1   9
ATOM      9  O   LIG    1       25.026 -14.319   3.766  0.00  0.00    -0.317 OA
ATOM     10  H   LIG    1       24.818 -13.373   3.630  0.00  0.00    +0.220 HD
ENDBRANCH   1   9
TORSDOF 4
ENDMDL
MODEL 7
REMARK VINA RESULT:      -3.6      0.928      2.356
REMARK  Name = *****
REMARK                            x       y       z     vdW  Elec       q    Type
REMARK                         _______ _______ _______ _____ _____    ______ ____
ROOT
ATOM      1  P   LIG    1       27.592 -13.754   4.039  0.00  0.00    +0.434 P 
ATOM      2  O   LIG    1       28.819 -12.948   3.744  0.00  0.00    -0.247 OA
ENDROOT
BRANCH   1   4
ATOM      3  O   LIG    1       26.152 -13.925   1.815  0.00  0.00    -0.237 OA
ATOM      4  C   LIG    1       26.108 -13.590   2.990  0.00  0.00    +0.418 C 
BRANCH   4   5
ATOM      5  O   LIG    1       24.970 -13.095   3.573  0.00  0.00    -0.472 OA
ATOM      6  H   LIG    1       25.201 -12.272   4.061  0.00  0.00    +0.296 HD
ENDBRANCH   4   5
ENDBRANCH   1   4
BRANCH   1   7
ATOM      7  O   LIG    1       27.976 -15.298   4.282  0.00  0.00    -0.317 OA
ATOM      8  H   LIG    1       27.195 -15.880   4.275  0.00  0.00    +0.220 HD
ENDBRANCH   1   7
BRANCH   1   9
ATOM      9  O   LIG    1       27.099 -13.395   5.543  0.00  0.00    -0.317 OA
ATOM     10  H   LIG    1       26.796 -12.467   5.595  0.00  0.00    +0.220 HD
ENDBRANCH   1   9
TORSDOF 4
ENDMDL
MODEL 8
REMARK VINA RESULT:      -3.6      1.521      2.591
REMARK  Name = *****
REMARK                            x       y       z     vdW  Elec       q    Type
REMARK                         _______ _______ _______ _____ _____    ______ ____
ROOT
ATOM      1  P   LIG    1       26.375 -14.535   3.350  0.00  0.00    +0.434 P 
ATOM      2  O   LIG    1       27.432 -14.290   4.382  0.00  0.00    -0.247 OA
ENDROOT
BRANCH   1   4
ATOM      3  O   LIG    1       24.367 -12.803   3.214  0.00  0.00    -0.237 OA
ATOM      4  C   LIG    1       24.676 -13.920   3.607  0.00  0.00    +0.418 C 
BRANCH   4   5
ATOM      5  O   LIG    1       23.787 -14.752   4.235  0.00  0.00    -0.472 OA
ATOM      6  H   LIG    1       24.020 -15.683   4.016  0.00  0.00    +0.296 HD
ENDBRANCH   4   5
ENDBRANCH   1   4
BRANCH   1   7
ATOM      7  O   LIG    1       26.922 -14.166   1.883  0.00  0.00    -0.317 OA
ATOM      8  H   LIG    1       27.151 -14.957   1.362  0.00  0.00    +0.220 HD
ENDBRANCH   1   7
BRANCH   1   9
ATOM      9  O   LIG    1       26.226 -16.139   3.150  0.00  0.00    -0.317 OA
ATOM     10  H   LIG    1       25.284 -16.399   3.131  0.00  0.00    +0.220 HD
ENDBRANCH   1   9
TORSDOF 4
ENDMDL
MODEL 9
REMARK VINA RESULT:      -3.6      1.480      2.108
REMARK  Name = *****
REMARK                            x       y       z     vdW  Elec       q    Type
REMARK                         _______ _______ _______ _____ _____    ______ ____
ROOT
ATOM      1  P   LIG    1       26.365 -14.785   3.302  0.00  0.00    +0.434 P 
ATOM      2  O   LIG    1       26.354 -16.276   3.171  0.00  0.00    -0.247 OA
ENDROOT
BRANCH   1   4
ATOM      3  O   LIG    1       24.679 -12.735   3.240  0.00  0.00    -0.237 OA
ATOM      4  C   LIG    1       24.820 -13.879   3.651  0.00  0.00    +0.418 C 
BRANCH   4   5
ATOM      5  O   LIG    1       23.849 -14.530   4.366  0.00  0.00    -0.472 OA
ATOM      6  H   LIG    1       23.062 -13.943   4.433  0.00  0.00    +0.296 HD
ENDBRANCH   4   5
ENDBRANCH   1   4
BRANCH   1   7
ATOM      7  O   LIG    1       27.559 -14.312   4.273  0.00  0.00    -0.317 OA
ATOM      8  H   LIG    1       27.233 -13.992   5.133  0.00  0.00    +0.220 HD
ENDBRANCH   1   7
BRANCH   1   9
ATOM      9  O   LIG    1       26.928 -14.158   1.915  0.00  0.00    -0.317 OA
ATOM     10  H   LIG    1       26.800 -14.785   1.175  0.00  0.00    +0.220 HD
ENDBRANCH   1   9
TORSDOF 4
ENDMDL
