MODEL 1
REMARK VINA RESULT:      50.8      0.000      0.000
REMARK  Name = *****
REMARK                            x       y       z     vdW  Elec       q    Type
REMARK                         _______ _______ _______ _____ _____    ______ ____
ROOT
ATOM      1  C   LIG    1       27.659 -11.467   6.923  0.00  0.00    +0.016 C 
ATOM      2  C   LIG    1       28.299 -12.584   6.070  0.00  0.00    -0.009 C 
ATOM      3  C   LIG    1       27.214 -13.617   5.735  0.00  0.00    -0.038 A 
ATOM      4  C   LIG    1       26.591 -13.661   4.467  0.00  0.00    -0.036 A 
ATOM      5  C   LIG    1       25.606 -14.647   4.231  0.00  0.00    +0.027 A 
ATOM      6  C   LIG    1       25.212 -15.561   5.206  0.00  0.00    +0.034 A 
ATOM      7  C   LIG    1       25.787 -15.475   6.469  0.00  0.00    +0.023 A 
ATOM      8  C   LIG    1       26.988 -12.734   3.310  0.00  0.00    -0.009 C 
ATOM      9  C   LIG    1       27.777 -13.570   2.276  0.00  0.00    +0.016 C 
ATOM     10  C   LIG    1       25.755 -12.121   2.605  0.00  0.00    +0.016 C 
ATOM     11  C   LIG    1       27.851 -11.550   3.793  0.00  0.00    +0.012 C 
ATOM     12  C   LIG    1       26.779 -14.522   6.726  0.00  0.00    +0.006 A 
ATOM     13  C   LIG    1       28.916 -11.986   4.785  0.00  0.00    +0.012 C 
ATOM     14  C   LIG    1       29.473 -13.193   6.873  0.00  0.00    +0.016 C 
ENDROOT
BRANCH   6  15
ATOM     15  N   LIG    1       24.249 -16.566   4.973  0.00  0.00    -0.281 N 
ATOM     16  H   LIG    1       23.543 -16.676   5.688  0.00  0.00    +0.155 HD
ATOM     17  C   LIG    1       24.305 -17.521   3.970  0.00  0.00    +0.248 C 
ATOM     18  O   LIG    1       25.232 -17.709   3.190  0.00  0.00    -0.270 OA
BRANCH  17  19
ATOM     19  C   LIG    1       23.149 -18.456   3.905  0.00  0.00    +0.037 A 
ATOM     20  C   LIG    1       22.232 -18.435   2.848  0.00  0.00    +0.014 A 
ATOM     21  C   LIG    1       21.160 -19.335   2.840  0.00  0.00    +0.015 A 
ATOM     22  C   LIG    1       21.004 -20.260   3.882  0.00  0.00    +0.059 A 
ATOM     23  C   LIG    1       21.950 -20.318   4.910  0.00  0.00    +0.015 A 
ATOM     24  C   LIG    1       23.014 -19.412   4.924  0.00  0.00    +0.014 A 
BRANCH  22  25
ATOM     25  C   LIG    1       19.845 -21.188   3.827  0.00  0.00    +0.337 C 
ATOM     26  O   LIG    1       19.351 -21.563   2.781  0.00  0.00    -0.245 OA
BRANCH  25  27
ATOM     27  O   LIG    1       19.356 -21.522   5.040  0.00  0.00    -0.477 OA
ATOM     28  H   LIG    1       18.502 -21.989   5.036  0.00  0.00    +0.295 HD
ENDBRANCH  25  27
ENDBRANCH  22  25
ENDBRANCH  17  19
ENDBRANCH   6  15
TORSDOF 4
ENDMDL
