MODEL 1
REMARK VINA RESULT:      -8.1      0.000      0.000
REMARK  Name = *****
REMARK                            x       y       z     vdW  Elec       q    Type
REMARK                         _______ _______ _______ _____ _____    ______ ____
ROOT
ATOM      1  O   LIG    1       27.899 -20.927   6.841  0.00  0.00    -0.459 OA
ENDROOT
BRANCH   1   7
ATOM      2  C   LIG    1       22.933 -22.965   6.869  0.00  0.00    +0.192 C 
ATOM      3  N   LIG    1       23.985 -21.841   6.828  0.00  0.00    +0.243 N 
ATOM      4  C   LIG    1       23.181 -20.548   6.687  0.00  0.00    +0.192 C 
ATOM      5  C   LIG    1       25.001 -22.100   5.703  0.00  0.00    +0.070 C 
ATOM      6  C   LIG    1       25.852 -20.850   5.484  0.00  0.00    +0.099 C 
ATOM      7  C   LIG    1       26.575 -20.348   6.750  0.00  0.00    +0.187 C 
ATOM      8  C   LIG    1       25.819 -20.632   8.071  0.00  0.00    +0.099 C 
ATOM      9  C   LIG    1       25.851 -23.257   6.249  0.00  0.00    +0.060 C 
ATOM     10  C   LIG    1       25.789 -23.133   7.772  0.00  0.00    +0.060 C 
ATOM     11  C   LIG    1       24.933 -21.890   8.042  0.00  0.00    +0.070 C 
ENDBRANCH   1   7
BRANCH   1  12
ATOM     12  C   LIG    1       28.937 -20.037   6.697  0.00  0.00    +0.341 C 
ATOM     13  O   LIG    1       28.958 -19.134   5.869  0.00  0.00    -0.247 OA
BRANCH  12  14
ATOM     14  C   LIG    1       30.072 -20.309   7.690  0.00  0.00    +0.253 C 
BRANCH  14  15
ATOM     15  C   LIG    1       30.516 -19.055   8.415  0.00  0.00    -0.008 A 
ATOM     16  C   LIG    1       29.693 -18.411   9.358  0.00  0.00    +0.007 A 
ATOM     17  C   LIG    1       30.142 -17.276  10.034  0.00  0.00    +0.000 A 
ATOM     18  C   LIG    1       31.407 -16.758   9.778  0.00  0.00    +0.000 A 
ATOM     19  C   LIG    1       32.237 -17.386   8.846  0.00  0.00    +0.000 A 
ATOM     20  C   LIG    1       31.795 -18.525   8.171  0.00  0.00    +0.007 A 
ENDBRANCH  14  15
BRANCH  14  21
ATOM     21  O   LIG    1       29.686 -21.284   8.656  0.00  0.00    -0.376 OA
ATOM     22  H   LIG    1       29.102 -20.842   9.297  0.00  0.00    +0.211 HD
ENDBRANCH  14  21
ENDBRANCH  12  14
ENDBRANCH   1  12
TORSDOF 5
ENDMDL
MODEL 2
REMARK VINA RESULT:      -7.9      0.596      1.609
REMARK  Name = *****
REMARK                            x       y       z     vdW  Elec       q    Type
REMARK                         _______ _______ _______ _____ _____    ______ ____
ROOT
ATOM      1  O   LIG    1       28.169 -21.222   7.047  0.00  0.00    -0.459 OA
ENDROOT
BRANCH   1   7
ATOM      2  C   LIG    1       23.032 -22.777   6.951  0.00  0.00    +0.192 C 
ATOM      3  N   LIG    1       24.187 -21.764   7.059  0.00  0.00    +0.243 N 
ATOM      4  C   LIG    1       23.507 -20.399   7.188  0.00  0.00    +0.192 C 
ATOM      5  C   LIG    1       25.137 -21.904   5.859  0.00  0.00    +0.070 C 
ATOM      6  C   LIG    1       26.099 -20.717   5.825  0.00  0.00    +0.099 C 
ATOM      7  C   LIG    1       26.905 -20.519   7.124  0.00  0.00    +0.187 C 
ATOM      8  C   LIG    1       26.167 -20.969   8.408  0.00  0.00    +0.099 C 
ATOM      9  C   LIG    1       25.888 -23.213   6.150  0.00  0.00    +0.060 C 
ATOM     10  C   LIG    1       25.885 -23.362   7.672  0.00  0.00    +0.060 C 
ATOM     11  C   LIG    1       25.162 -22.117   8.199  0.00  0.00    +0.070 C 
ENDBRANCH   1   7
BRANCH   1  12
ATOM     12  C   LIG    1       29.192 -20.666   7.778  0.00  0.00    +0.341 C 
ATOM     13  O   LIG    1       29.821 -21.263   8.644  0.00  0.00    -0.247 OA
BRANCH  12  14
ATOM     14  C   LIG    1       29.454 -19.207   7.389  0.00  0.00    +0.253 C 
BRANCH  14  15
ATOM     15  C   LIG    1       30.270 -18.470   8.431  0.00  0.00    -0.008 A 
ATOM     16  C   LIG    1       31.639 -18.198   8.245  0.00  0.00    +0.007 A 
ATOM     17  C   LIG    1       32.358 -17.488   9.208  0.00  0.00    +0.000 A 
ATOM     18  C   LIG    1       31.734 -17.048  10.371  0.00  0.00    +0.000 A 
ATOM     19  C   LIG    1       30.376 -17.309  10.569  0.00  0.00    +0.000 A 
ATOM     20  C   LIG    1       29.651 -18.014   9.607  0.00  0.00    +0.007 A 
ENDBRANCH  14  15
BRANCH  14  21
ATOM     21  O   LIG    1       30.127 -19.123   6.136  0.00  0.00    -0.376 OA
ATOM     22  H   LIG    1       30.719 -19.894   6.072  0.00  0.00    +0.211 HD
ENDBRANCH  14  21
ENDBRANCH  12  14
ENDBRANCH   1  12
TORSDOF 5
ENDMDL
MODEL 3
REMARK VINA RESULT:      -7.3      1.270      2.119
REMARK  Name = *****
REMARK                            x       y       z     vdW  Elec       q    Type
REMARK                         _______ _______ _______ _____ _____    ______ ____
ROOT
ATOM      1  O   LIG    1       26.762 -21.578   6.886  0.00  0.00    -0.459 OA
ENDROOT
BRANCH   1   7
ATOM      2  C   LIG    1       21.727 -21.755   5.033  0.00  0.00    +0.192 C 
ATOM      3  N   LIG    1       23.001 -21.071   5.562  0.00  0.00    +0.243 N 
ATOM      4  C   LIG    1       22.694 -19.574   5.522  0.00  0.00    +0.192 C 
ATOM      5  C   LIG    1       24.224 -21.504   4.736  0.00  0.00    +0.070 C 
ATOM      6  C   LIG    1       25.414 -20.609   5.075  0.00  0.00    +0.099 C 
ATOM      7  C   LIG    1       25.770 -20.571   6.574  0.00  0.00    +0.187 C 
ATOM      8  C   LIG    1       24.561 -20.758   7.521  0.00  0.00    +0.099 C 
ATOM      9  C   LIG    1       24.472 -22.949   5.197  0.00  0.00    +0.060 C 
ATOM     10  C   LIG    1       23.929 -23.026   6.625  0.00  0.00    +0.060 C 
ATOM     11  C   LIG    1       23.420 -21.615   6.941  0.00  0.00    +0.070 C 
ENDBRANCH   1   7
BRANCH   1  12
ATOM     12  C   LIG    1       27.914 -21.105   7.468  0.00  0.00    +0.341 C 
ATOM     13  O   LIG    1       28.443 -21.609   8.451  0.00  0.00    -0.247 OA
BRANCH  12  14
ATOM     14  C   LIG    1       28.458 -19.866   6.749  0.00  0.00    +0.253 C 
BRANCH  14  15
ATOM     15  C   LIG    1       29.607 -19.222   7.498  0.00  0.00    -0.008 A 
ATOM     16  C   LIG    1       30.942 -19.363   7.074  0.00  0.00    +0.007 A 
ATOM     17  C   LIG    1       31.976 -18.732   7.765  0.00  0.00    +0.000 A 
ATOM     18  C   LIG    1       31.704 -17.962   8.891  0.00  0.00    +0.000 A 
ATOM     19  C   LIG    1       30.384 -17.811   9.324  0.00  0.00    +0.000 A 
ATOM     20  C   LIG    1       29.345 -18.436   8.632  0.00  0.00    +0.007 A 
ENDBRANCH  14  15
BRANCH  14  21
ATOM     21  O   LIG    1       28.894 -20.189   5.431  0.00  0.00    -0.376 OA
ATOM     22  H   LIG    1       28.099 -20.306   4.881  0.00  0.00    +0.211 HD
ENDBRANCH  14  21
ENDBRANCH  12  14
ENDBRANCH   1  12
TORSDOF 5
ENDMDL
MODEL 4
REMARK VINA RESULT:      -6.9      1.098      2.617
REMARK  Name = *****
REMARK                            x       y       z     vdW  Elec       q    Type
REMARK                         _______ _______ _______ _____ _____    ______ ____
ROOT
ATOM      1  O   LIG    1       27.261 -22.154   6.745  0.00  0.00    -0.459 OA
ENDROOT
BRANCH   1   7
ATOM      2  C   LIG    1       22.192 -21.155   5.291  0.00  0.00    +0.192 C 
ATOM      3  N   LIG    1       23.307 -21.843   6.100  0.00  0.00    +0.243 N 
ATOM      4  C   LIG    1       22.577 -22.755   7.087  0.00  0.00    +0.192 C 
ATOM      5  C   LIG    1       24.226 -20.792   6.746  0.00  0.00    +0.070 C 
ATOM      6  C   LIG    1       25.137 -21.469   7.770  0.00  0.00    +0.099 C 
ATOM      7  C   LIG    1       25.973 -22.632   7.200  0.00  0.00    +0.187 C 
ATOM      8  C   LIG    1       25.293 -23.400   6.042  0.00  0.00    +0.099 C 
ATOM      9  C   LIG    1       25.038 -20.251   5.558  0.00  0.00    +0.060 C 
ATOM     10  C   LIG    1       25.086 -21.389   4.538  0.00  0.00    +0.060 C 
ATOM     11  C   LIG    1       24.329 -22.552   5.191  0.00  0.00    +0.070 C 
ENDBRANCH   1   7
BRANCH   1  12
ATOM     12  C   LIG    1       27.926 -21.333   7.625  0.00  0.00    +0.341 C 
ATOM     13  O   LIG    1       28.216 -21.649   8.773  0.00  0.00    -0.247 OA
BRANCH  12  14
ATOM     14  C   LIG    1       28.255 -19.970   7.007  0.00  0.00    +0.253 C 
BRANCH  14  15
ATOM     15  C   LIG    1       29.489 -19.342   7.622  0.00  0.00    -0.008 A 
ATOM     16  C   LIG    1       30.774 -19.545   7.083  0.00  0.00    +0.007 A 
ATOM     17  C   LIG    1       31.888 -18.927   7.652  0.00  0.00    +0.000 A 
ATOM     18  C   LIG    1       31.746 -18.108   8.767  0.00  0.00    +0.000 A 
ATOM     19  C   LIG    1       30.478 -17.895   9.314  0.00  0.00    +0.000 A 
ATOM     20  C   LIG    1       29.360 -18.507   8.745  0.00  0.00    +0.007 A 
ENDBRANCH  14  15
BRANCH  14  21
ATOM     21  O   LIG    1       28.450 -20.079   5.599  0.00  0.00    -0.376 OA
ATOM     22  H   LIG    1       27.811 -20.734   5.267  0.00  0.00    +0.211 HD
ENDBRANCH  14  21
ENDBRANCH  12  14
ENDBRANCH   1  12
TORSDOF 5
ENDMDL
MODEL 5
REMARK VINA RESULT:      -6.9      1.168      2.087
REMARK  Name = *****
REMARK                            x       y       z     vdW  Elec       q    Type
REMARK                         _______ _______ _______ _____ _____    ______ ____
ROOT
ATOM      1  O   LIG    1       26.666 -20.051   6.630  0.00  0.00    -0.459 OA
ENDROOT
BRANCH   1   7
ATOM      2  C   LIG    1       22.653 -23.614   6.690  0.00  0.00    +0.192 C 
ATOM      3  N   LIG    1       24.010 -23.041   6.242  0.00  0.00    +0.243 N 
ATOM      4  C   LIG    1       24.580 -24.080   5.275  0.00  0.00    +0.192 C 
ATOM      5  C   LIG    1       24.893 -22.739   7.464  0.00  0.00    +0.070 C 
ATOM      6  C   LIG    1       26.322 -22.454   7.005  0.00  0.00    +0.099 C 
ATOM      7  C   LIG    1       26.439 -21.318   5.969  0.00  0.00    +0.187 C 
ATOM      8  C   LIG    1       25.211 -21.177   5.038  0.00  0.00    +0.099 C 
ATOM      9  C   LIG    1       24.247 -21.482   8.069  0.00  0.00    +0.060 C 
ATOM     10  C   LIG    1       23.567 -20.765   6.901  0.00  0.00    +0.060 C 
ATOM     11  C   LIG    1       23.877 -21.619   5.666  0.00  0.00    +0.070 C 
ENDBRANCH   1   7
BRANCH   1  12
ATOM     12  C   LIG    1       27.645 -20.062   7.596  0.00  0.00    +0.341 C 
ATOM     13  O   LIG    1       27.422 -20.145   8.798  0.00  0.00    -0.247 OA
BRANCH  12  14
ATOM     14  C   LIG    1       29.050 -19.951   6.996  0.00  0.00    +0.253 C 
BRANCH  14  15
ATOM     15  C   LIG    1       29.944 -19.021   7.790  0.00  0.00    -0.008 A 
ATOM     16  C   LIG    1       29.425 -18.129   8.747  0.00  0.00    +0.007 A 
ATOM     17  C   LIG    1       30.276 -17.306   9.486  0.00  0.00    +0.000 A 
ATOM     18  C   LIG    1       31.651 -17.349   9.280  0.00  0.00    +0.000 A 
ATOM     19  C   LIG    1       32.183 -18.229   8.335  0.00  0.00    +0.000 A 
ATOM     20  C   LIG    1       31.336 -19.058   7.597  0.00  0.00    +0.007 A 
ENDBRANCH  14  15
BRANCH  14  21
ATOM     21  O   LIG    1       29.676 -21.229   6.916  0.00  0.00    -0.376 OA
ATOM     22  H   LIG    1       29.521 -21.683   7.763  0.00  0.00    +0.211 HD
ENDBRANCH  14  21
ENDBRANCH  12  14
ENDBRANCH   1  12
TORSDOF 5
ENDMDL
MODEL 6
REMARK VINA RESULT:      -6.9      4.471      7.717
REMARK  Name = *****
REMARK                            x       y       z     vdW  Elec       q    Type
REMARK                         _______ _______ _______ _____ _____    ______ ____
ROOT
ATOM      1  O   LIG    1       25.067 -23.580   6.911  0.00  0.00    -0.459 OA
ENDROOT
BRANCH   1   7
ATOM      2  C   LIG    1       23.082 -19.092   4.736  0.00  0.00    +0.192 C 
ATOM      3  N   LIG    1       24.112 -20.222   4.921  0.00  0.00    +0.243 N 
ATOM      4  C   LIG    1       25.193 -19.948   3.875  0.00  0.00    +0.192 C 
ATOM      5  C   LIG    1       23.429 -21.594   4.804  0.00  0.00    +0.070 C 
ATOM      6  C   LIG    1       24.491 -22.687   4.696  0.00  0.00    +0.099 C 
ATOM      7  C   LIG    1       25.509 -22.696   5.853  0.00  0.00    +0.187 C 
ATOM      8  C   LIG    1       25.794 -21.301   6.462  0.00  0.00    +0.099 C 
ATOM      9  C   LIG    1       22.644 -21.715   6.120  0.00  0.00    +0.060 C 
ATOM     10  C   LIG    1       23.407 -20.863   7.136  0.00  0.00    +0.060 C 
ATOM     11  C   LIG    1       24.618 -20.312   6.374  0.00  0.00    +0.070 C 
ENDBRANCH   1   7
BRANCH   1  12
ATOM     12  C   LIG    1       24.523 -24.770   6.489  0.00  0.00    +0.341 C 
ATOM     13  O   LIG    1       23.323 -25.016   6.493  0.00  0.00    -0.247 OA
BRANCH  12  14
ATOM     14  C   LIG    1       25.594 -25.760   6.018  0.00  0.00    +0.253 C 
BRANCH  14  15
ATOM     15  C   LIG    1       25.357 -27.160   6.545  0.00  0.00    -0.008 A 
ATOM     16  C   LIG    1       25.927 -27.606   7.752  0.00  0.00    +0.007 A 
ATOM     17  C   LIG    1       25.664 -28.891   8.229  0.00  0.00    +0.000 A 
ATOM     18  C   LIG    1       24.843 -29.754   7.511  0.00  0.00    +0.000 A 
ATOM     19  C   LIG    1       24.268 -29.327   6.312  0.00  0.00    +0.000 A 
ATOM     20  C   LIG    1       24.523 -28.040   5.834  0.00  0.00    +0.007 A 
ENDBRANCH  14  15
BRANCH  14  21
ATOM     21  O   LIG    1       25.655 -25.810   4.595  0.00  0.00    -0.376 OA
ATOM     22  H   LIG    1       24.944 -26.403   4.294  0.00  0.00    +0.211 HD
ENDBRANCH  14  21
ENDBRANCH  12  14
ENDBRANCH   1  12
TORSDOF 5
ENDMDL
MODEL 7
REMARK VINA RESULT:      -6.8      6.532      9.363
REMARK  Name = *****
REMARK                            x       y       z     vdW  Elec       q    Type
REMARK                         _______ _______ _______ _____ _____    ______ ____
ROOT
ATOM      1  O   LIG    1       25.546 -28.744   6.851  0.00  0.00    -0.459 OA
ENDROOT
BRANCH   1   7
ATOM      2  C   LIG    1       25.517 -31.903  11.190  0.00  0.00    +0.192 C 
ATOM      3  N   LIG    1       25.111 -31.473   9.768  0.00  0.00    +0.243 N 
ATOM      4  C   LIG    1       24.183 -32.581   9.267  0.00  0.00    +0.192 C 
ATOM      5  C   LIG    1       26.359 -31.232   8.904  0.00  0.00    +0.070 C 
ATOM      6  C   LIG    1       25.950 -31.095   7.439  0.00  0.00    +0.099 C 
ATOM      7  C   LIG    1       24.899 -29.997   7.176  0.00  0.00    +0.187 C 
ATOM      8  C   LIG    1       23.920 -29.758   8.350  0.00  0.00    +0.099 C 
ATOM      9  C   LIG    1       26.918 -29.906   9.447  0.00  0.00    +0.060 C 
ATOM     10  C   LIG    1       25.714 -29.151  10.012  0.00  0.00    +0.060 C 
ATOM     11  C   LIG    1       24.505 -30.056   9.743  0.00  0.00    +0.070 C 
ENDBRANCH   1   7
BRANCH   1  12
ATOM     12  C   LIG    1       25.133 -28.159   5.677  0.00  0.00    +0.341 C 
ATOM     13  O   LIG    1       24.232 -28.599   4.971  0.00  0.00    -0.247 OA
BRANCH  12  14
ATOM     14  C   LIG    1       25.934 -26.896   5.347  0.00  0.00    +0.253 C 
BRANCH  14  15
ATOM     15  C   LIG    1       25.344 -25.655   5.986  0.00  0.00    -0.008 A 
ATOM     16  C   LIG    1       26.155 -24.634   6.514  0.00  0.00    +0.007 A 
ATOM     17  C   LIG    1       25.583 -23.488   7.067  0.00  0.00    +0.000 A 
ATOM     18  C   LIG    1       24.201 -23.343   7.114  0.00  0.00    +0.000 A 
ATOM     19  C   LIG    1       23.381 -24.347   6.593  0.00  0.00    +0.000 A 
ATOM     20  C   LIG    1       23.949 -25.493   6.033  0.00  0.00    +0.007 A 
ENDBRANCH  14  15
BRANCH  14  21
ATOM     21  O   LIG    1       27.290 -27.025   5.765  0.00  0.00    -0.376 OA
ATOM     22  H   LIG    1       27.352 -27.830   6.309  0.00  0.00    +0.211 HD
ENDBRANCH  14  21
ENDBRANCH  12  14
ENDBRANCH   1  12
TORSDOF 5
ENDMDL
MODEL 8
REMARK VINA RESULT:      -6.6      2.488      6.652
REMARK  Name = *****
REMARK                            x       y       z     vdW  Elec       q    Type
REMARK                         _______ _______ _______ _____ _____    ______ ____
ROOT
ATOM      1  O   LIG    1       26.386 -20.557   7.331  0.00  0.00    -0.459 OA
ENDROOT
BRANCH   1   7
ATOM      2  C   LIG    1       31.618 -19.389   7.058  0.00  0.00    +0.192 C 
ATOM      3  N   LIG    1       30.363 -20.063   7.641  0.00  0.00    +0.243 N 
ATOM      4  C   LIG    1       30.875 -20.928   8.794  0.00  0.00    +0.192 C 
ATOM      5  C   LIG    1       29.607 -20.830   6.542  0.00  0.00    +0.070 C 
ATOM      6  C   LIG    1       28.544 -21.723   7.180  0.00  0.00    +0.099 C 
ATOM      7  C   LIG    1       27.549 -20.972   8.087  0.00  0.00    +0.187 C 
ATOM      8  C   LIG    1       28.144 -19.733   8.798  0.00  0.00    +0.099 C 
ATOM      9  C   LIG    1       28.960 -19.712   5.709  0.00  0.00    +0.060 C 
ATOM     10  C   LIG    1       28.768 -18.538   6.670  0.00  0.00    +0.060 C 
ATOM     11  C   LIG    1       29.280 -19.037   8.026  0.00  0.00    +0.070 C 
ENDBRANCH   1   7
BRANCH   1  12
ATOM     12  C   LIG    1       25.246 -21.291   7.561  0.00  0.00    +0.341 C 
ATOM     13  O   LIG    1       24.801 -21.535   8.677  0.00  0.00    -0.247 OA
BRANCH  12  14
ATOM     14  C   LIG    1       24.598 -21.776   6.260  0.00  0.00    +0.253 C 
BRANCH  14  15
ATOM     15  C   LIG    1       24.113 -20.630   5.396  0.00  0.00    -0.008 A 
ATOM     16  C   LIG    1       24.876 -20.135   4.322  0.00  0.00    +0.007 A 
ATOM     17  C   LIG    1       24.389 -19.100   3.523  0.00  0.00    +0.000 A 
ATOM     18  C   LIG    1       23.145 -18.536   3.783  0.00  0.00    +0.000 A 
ATOM     19  C   LIG    1       22.374 -19.016   4.845  0.00  0.00    +0.000 A 
ATOM     20  C   LIG    1       22.855 -20.056   5.643  0.00  0.00    +0.007 A 
ENDBRANCH  14  15
BRANCH  14  21
ATOM     21  O   LIG    1       25.506 -22.570   5.501  0.00  0.00    -0.376 OA
ATOM     22  H   LIG    1       26.405 -22.255   5.700  0.00  0.00    +0.211 HD
ENDBRANCH  14  21
ENDBRANCH  12  14
ENDBRANCH   1  12
TORSDOF 5
ENDMDL
MODEL 9
REMARK VINA RESULT:      -6.6      2.324      6.690
REMARK  Name = *****
REMARK                            x       y       z     vdW  Elec       q    Type
REMARK                         _______ _______ _______ _____ _____    ______ ____
ROOT
ATOM      1  O   LIG    1       28.329 -21.324   7.076  0.00  0.00    -0.459 OA
ENDROOT
BRANCH   1   7
ATOM      2  C   LIG    1       31.937 -17.575   8.395  0.00  0.00    +0.192 C 
ATOM      3  N   LIG    1       30.951 -18.726   8.666  0.00  0.00    +0.243 N 
ATOM      4  C   LIG    1       31.062 -18.999  10.167  0.00  0.00    +0.192 C 
ATOM      5  C   LIG    1       31.270 -19.929   7.762  0.00  0.00    +0.070 C 
ATOM      6  C   LIG    1       30.486 -21.151   8.239  0.00  0.00    +0.099 C 
ATOM      7  C   LIG    1       28.962 -20.932   8.317  0.00  0.00    +0.187 C 
ATOM      8  C   LIG    1       28.542 -19.479   8.648  0.00  0.00    +0.099 C 
ATOM      9  C   LIG    1       30.789 -19.472   6.376  0.00  0.00    +0.060 C 
ATOM     10  C   LIG    1       29.672 -18.461   6.639  0.00  0.00    +0.060 C 
ATOM     11  C   LIG    1       29.530 -18.402   8.165  0.00  0.00    +0.070 C 
ENDBRANCH   1   7
BRANCH   1  12
ATOM     12  C   LIG    1       27.054 -21.823   7.201  0.00  0.00    +0.341 C 
ATOM     13  O   LIG    1       26.765 -23.008   7.080  0.00  0.00    -0.247 OA
BRANCH  12  14
ATOM     14  C   LIG    1       26.031 -20.723   7.503  0.00  0.00    +0.253 C 
BRANCH  14  15
ATOM     15  C   LIG    1       25.035 -20.537   6.376  0.00  0.00    -0.008 A 
ATOM     16  C   LIG    1       23.645 -20.584   6.598  0.00  0.00    +0.007 A 
ATOM     17  C   LIG    1       22.752 -20.377   5.547  0.00  0.00    +0.000 A 
ATOM     18  C   LIG    1       23.221 -20.132   4.261  0.00  0.00    +0.000 A 
ATOM     19  C   LIG    1       24.597 -20.081   4.024  0.00  0.00    +0.000 A 
ATOM     20  C   LIG    1       25.496 -20.282   5.074  0.00  0.00    +0.007 A 
ENDBRANCH  14  15
BRANCH  14  21
ATOM     21  O   LIG    1       25.317 -21.003   8.704  0.00  0.00    -0.376 OA
ATOM     22  H   LIG    1       25.380 -21.961   8.863  0.00  0.00    +0.211 HD
ENDBRANCH  14  21
ENDBRANCH  12  14
ENDBRANCH   1  12
TORSDOF 5
ENDMDL
