MODEL 1
REMARK VINA RESULT:      -4.0      0.000      0.000
REMARK  Name = *****
REMARK                            x       y       z     vdW  Elec       q    Type
REMARK                         _______ _______ _______ _____ _____    ______ ____
ROOT
ATOM      1  C   LIG    1       23.118 -15.828   4.099  0.00  0.00    +0.011 C 
ATOM      2  C   LIG    1       23.993 -14.572   4.037  0.00  0.00    -0.030 C 
ATOM      3  C   LIG    1       25.458 -14.958   3.727  0.00  0.00    +0.013 C 
ATOM      4  C   LIG    1       26.357 -13.701   3.663  0.00  0.00    -0.030 C 
ATOM      5  C   LIG    1       26.281 -12.968   5.021  0.00  0.00    +0.010 C 
ATOM      6  C   LIG    1       24.830 -12.564   5.332  0.00  0.00    -0.008 C 
ATOM      7  C   LIG    1       24.312 -11.632   4.223  0.00  0.00    +0.025 C 
ATOM      8  C   LIG    1       24.363 -12.353   2.860  0.00  0.00    +0.018 C 
ATOM      9  C   LIG    1       27.804 -14.103   3.360  0.00  0.00    +0.011 C 
ATOM     10  C   LIG    1       25.819 -12.762   2.559  0.00  0.00    +0.028 C 
ATOM     11  C   LIG    1       23.485 -13.621   2.928  0.00  0.00    +0.028 C 
ATOM     12  C   LIG    1       23.953 -13.825   5.388  0.00  0.00    +0.010 C 
ENDROOT
BRANCH   8  13
ATOM     13  N   LIG    1       23.877 -11.456   1.812  0.00  0.00    -0.325 NA
ATOM     14  H   LIG    1       23.342 -11.984   1.125  0.00  0.00    +0.119 HD
ATOM     15  H   LIG    1       23.234 -10.774   2.210  0.00  0.00    +0.119 HD
ENDBRANCH   8  13
TORSDOF 1
ENDMDL
MODEL 2
REMARK VINA RESULT:      -3.9      1.532      3.296
REMARK  Name = *****
REMARK                            x       y       z     vdW  Elec       q    Type
REMARK                         _______ _______ _______ _____ _____    ______ ____
ROOT
ATOM      1  C   LIG    1       24.227 -11.470   1.812  0.00  0.00    +0.011 C 
ATOM      2  C   LIG    1       24.629 -12.466   2.905  0.00  0.00    -0.030 C 
ATOM      3  C   LIG    1       23.601 -13.618   2.980  0.00  0.00    +0.013 C 
ATOM      4  C   LIG    1       23.990 -14.632   4.080  0.00  0.00    -0.030 C 
ATOM      5  C   LIG    1       24.053 -13.892   5.436  0.00  0.00    +0.010 C 
ATOM      6  C   LIG    1       25.085 -12.755   5.378  0.00  0.00    -0.008 C 
ATOM      7  C   LIG    1       26.470 -13.339   5.055  0.00  0.00    +0.025 C 
ATOM      8  C   LIG    1       26.433 -14.067   3.695  0.00  0.00    +0.018 C 
ATOM      9  C   LIG    1       22.959 -15.764   4.144  0.00  0.00    +0.011 C 
ATOM     10  C   LIG    1       25.391 -15.202   3.758  0.00  0.00    +0.028 C 
ATOM     11  C   LIG    1       26.022 -13.062   2.597  0.00  0.00    +0.028 C 
ATOM     12  C   LIG    1       24.684 -11.759   4.278  0.00  0.00    +0.010 C 
ENDROOT
BRANCH   8  13
ATOM     13  N   LIG    1       27.752 -14.627   3.401  0.00  0.00    -0.325 NA
ATOM     14  H   LIG    1       28.478 -13.964   3.671  0.00  0.00    +0.119 HD
ATOM     15  H   LIG    1       27.907 -15.461   3.965  0.00  0.00    +0.119 HD
ENDBRANCH   8  13
TORSDOF 1
ENDMDL
MODEL 3
REMARK VINA RESULT:      -3.8      2.080      3.580
REMARK  Name = *****
REMARK                            x       y       z     vdW  Elec       q    Type
REMARK                         _______ _______ _______ _____ _____    ______ ____
ROOT
ATOM      1  C   LIG    1       26.255 -16.780   3.342  0.00  0.00    +0.011 C 
ATOM      2  C   LIG    1       26.239 -15.256   3.498  0.00  0.00    -0.030 C 
ATOM      3  C   LIG    1       24.848 -14.783   3.978  0.00  0.00    +0.013 C 
ATOM      4  C   LIG    1       24.814 -13.245   4.138  0.00  0.00    -0.030 C 
ATOM      5  C   LIG    1       25.150 -12.597   2.776  0.00  0.00    +0.010 C 
ATOM      6  C   LIG    1       26.539 -13.047   2.296  0.00  0.00    -0.008 C 
ATOM      7  C   LIG    1       27.596 -12.627   3.331  0.00  0.00    +0.025 C 
ATOM      8  C   LIG    1       27.289 -13.278   4.695  0.00  0.00    +0.018 C 
ATOM      9  C   LIG    1       23.428 -12.794   4.611  0.00  0.00    +0.011 C 
ATOM     10  C   LIG    1       25.891 -12.829   5.166  0.00  0.00    +0.028 C 
ATOM     11  C   LIG    1       27.299 -14.814   4.534  0.00  0.00    +0.028 C 
ATOM     12  C   LIG    1       26.554 -14.577   2.146  0.00  0.00    +0.010 C 
ENDROOT
BRANCH   8  13
ATOM     13  N   LIG    1       28.294 -12.865   5.674  0.00  0.00    -0.325 NA
ATOM     14  H   LIG    1       29.038 -12.347   5.209  0.00  0.00    +0.119 HD
ATOM     15  H   LIG    1       27.879 -12.222   6.346  0.00  0.00    +0.119 HD
ENDBRANCH   8  13
TORSDOF 1
ENDMDL
MODEL 4
REMARK VINA RESULT:      -3.8      1.888      3.162
REMARK  Name = *****
REMARK                            x       y       z     vdW  Elec       q    Type
REMARK                         _______ _______ _______ _____ _____    ______ ____
ROOT
ATOM      1  C   LIG    1       23.099 -15.258   4.677  0.00  0.00    +0.011 C 
ATOM      2  C   LIG    1       24.392 -14.617   4.163  0.00  0.00    -0.030 C 
ATOM      3  C   LIG    1       24.065 -13.414   3.249  0.00  0.00    +0.013 C 
ATOM      4  C   LIG    1       25.360 -12.757   2.719  0.00  0.00    -0.030 C 
ATOM      5  C   LIG    1       26.166 -13.814   1.931  0.00  0.00    +0.010 C 
ATOM      6  C   LIG    1       26.512 -15.008   2.836  0.00  0.00    -0.008 C 
ATOM      7  C   LIG    1       27.350 -14.517   4.028  0.00  0.00    +0.025 C 
ATOM      8  C   LIG    1       26.555 -13.474   4.840  0.00  0.00    +0.018 C 
ATOM      9  C   LIG    1       25.016 -11.570   1.813  0.00  0.00    +0.011 C 
ATOM     10  C   LIG    1       26.205 -12.282   3.924  0.00  0.00    +0.028 C 
ATOM     11  C   LIG    1       25.249 -14.120   5.351  0.00  0.00    +0.028 C 
ATOM     12  C   LIG    1       25.213 -15.646   3.354  0.00  0.00    +0.010 C 
ENDROOT
BRANCH   8  13
ATOM     13  N   LIG    1       27.364 -13.007   5.966  0.00  0.00    -0.325 NA
ATOM     14  H   LIG    1       26.901 -13.237   6.844  0.00  0.00    +0.119 HD
ATOM     15  H   LIG    1       28.256 -13.498   5.978  0.00  0.00    +0.119 HD
ENDBRANCH   8  13
TORSDOF 1
ENDMDL
MODEL 5
REMARK VINA RESULT:      -3.7      1.977      3.645
REMARK  Name = *****
REMARK                            x       y       z     vdW  Elec       q    Type
REMARK                         _______ _______ _______ _____ _____    ______ ____
ROOT
ATOM      1  C   LIG    1       28.992 -12.947   4.023  0.00  0.00    +0.011 C 
ATOM      2  C   LIG    1       27.509 -13.323   3.932  0.00  0.00    -0.030 C 
ATOM      3  C   LIG    1       26.787 -12.405   2.919  0.00  0.00    +0.013 C 
ATOM      4  C   LIG    1       25.288 -12.770   2.817  0.00  0.00    -0.030 C 
ATOM      5  C   LIG    1       24.645 -12.622   4.214  0.00  0.00    +0.010 C 
ATOM      6  C   LIG    1       25.345 -13.543   5.227  0.00  0.00    -0.008 C 
ATOM      7  C   LIG    1       25.214 -15.003   4.762  0.00  0.00    +0.025 C 
ATOM      8  C   LIG    1       25.867 -15.177   3.375  0.00  0.00    +0.018 C 
ATOM      9  C   LIG    1       24.588 -11.849   1.812  0.00  0.00    +0.011 C 
ATOM     10  C   LIG    1       25.165 -14.244   2.366  0.00  0.00    +0.028 C 
ATOM     11  C   LIG    1       27.359 -14.791   3.468  0.00  0.00    +0.028 C 
ATOM     12  C   LIG    1       26.833 -13.167   5.312  0.00  0.00    +0.010 C 
ENDROOT
BRANCH   8  13
ATOM     13  N   LIG    1       25.729 -16.566   2.938  0.00  0.00    -0.325 NA
ATOM     14  H   LIG    1       25.422 -16.594   1.967  0.00  0.00    +0.119 HD
ATOM     15  H   LIG    1       26.636 -17.028   2.962  0.00  0.00    +0.119 HD
ENDBRANCH   8  13
TORSDOF 1
ENDMDL
MODEL 6
REMARK VINA RESULT:      -3.6      2.106      3.185
REMARK  Name = *****
REMARK                            x       y       z     vdW  Elec       q    Type
REMARK                         _______ _______ _______ _____ _____    ______ ____
ROOT
ATOM      1  C   LIG    1       24.595 -11.979   1.812  0.00  0.00    +0.011 C 
ATOM      2  C   LIG    1       25.380 -12.834   2.811  0.00  0.00    -0.030 C 
ATOM      3  C   LIG    1       25.170 -14.336   2.509  0.00  0.00    +0.013 C 
ATOM      4  C   LIG    1       25.954 -15.215   3.511  0.00  0.00    -0.030 C 
ATOM      5  C   LIG    1       25.468 -14.891   4.941  0.00  0.00    +0.010 C 
ATOM      6  C   LIG    1       25.689 -13.403   5.259  0.00  0.00    -0.008 C 
ATOM      7  C   LIG    1       27.187 -13.075   5.147  0.00  0.00    +0.025 C 
ATOM      8  C   LIG    1       27.689 -13.374   3.719  0.00  0.00    +0.018 C 
ATOM      9  C   LIG    1       25.731 -16.698   3.199  0.00  0.00    +0.011 C 
ATOM     10  C   LIG    1       27.457 -14.867   3.405  0.00  0.00    +0.028 C 
ATOM     11  C   LIG    1       26.891 -12.516   2.714  0.00  0.00    +0.028 C 
ATOM     12  C   LIG    1       24.904 -12.546   4.252  0.00  0.00    +0.010 C 
ENDROOT
BRANCH   8  13
ATOM     13  N   LIG    1       29.116 -13.068   3.626  0.00  0.00    -0.325 NA
ATOM     14  H   LIG    1       29.619 -13.529   4.383  0.00  0.00    +0.119 HD
ATOM     15  H   LIG    1       29.496 -13.449   2.761  0.00  0.00    +0.119 HD
ENDBRANCH   8  13
TORSDOF 1
ENDMDL
MODEL 7
REMARK VINA RESULT:      -3.5      2.050      3.185
REMARK  Name = *****
REMARK                            x       y       z     vdW  Elec       q    Type
REMARK                         _______ _______ _______ _____ _____    ______ ____
ROOT
ATOM      1  C   LIG    1       23.445 -12.931   4.830  0.00  0.00    +0.011 C 
ATOM      2  C   LIG    1       24.794 -13.318   4.216  0.00  0.00    -0.030 C 
ATOM      3  C   LIG    1       25.949 -12.867   5.138  0.00  0.00    +0.013 C 
ATOM      4  C   LIG    1       27.320 -13.247   4.531  0.00  0.00    -0.030 C 
ATOM      5  C   LIG    1       27.454 -12.571   3.148  0.00  0.00    +0.010 C 
ATOM      6  C   LIG    1       26.319 -13.025   2.216  0.00  0.00    -0.008 C 
ATOM      7  C   LIG    1       26.384 -14.552   2.041  0.00  0.00    +0.025 C 
ATOM      8  C   LIG    1       26.233 -15.248   3.410  0.00  0.00    +0.018 C 
ATOM      9  C   LIG    1       28.452 -12.789   5.456  0.00  0.00    +0.011 C 
ATOM     10  C   LIG    1       27.370 -14.781   4.342  0.00  0.00    +0.028 C 
ATOM     11  C   LIG    1       24.876 -14.851   4.030  0.00  0.00    +0.028 C 
ATOM     12  C   LIG    1       24.967 -12.641   2.837  0.00  0.00    +0.010 C 
ENDROOT
BRANCH   8  13
ATOM     13  N   LIG    1       26.306 -16.698   3.234  0.00  0.00    -0.325 NA
ATOM     14  H   LIG    1       27.268 -16.975   3.042  0.00  0.00    +0.119 HD
ATOM     15  H   LIG    1       26.044 -17.165   4.100  0.00  0.00    +0.119 HD
ENDBRANCH   8  13
TORSDOF 1
ENDMDL
MODEL 8
REMARK VINA RESULT:      -3.4      1.584      3.357
REMARK  Name = *****
REMARK                            x       y       z     vdW  Elec       q    Type
REMARK                         _______ _______ _______ _____ _____    ______ ____
ROOT
ATOM      1  C   LIG    1       28.417 -12.797   5.519  0.00  0.00    +0.011 C 
ATOM      2  C   LIG    1       27.298 -13.251   4.577  0.00  0.00    -0.030 C 
ATOM      3  C   LIG    1       27.321 -14.790   4.423  0.00  0.00    +0.013 C 
ATOM      4  C   LIG    1       26.198 -15.265   3.473  0.00  0.00    -0.030 C 
ATOM      5  C   LIG    1       26.397 -14.594   2.095  0.00  0.00    +0.010 C 
ATOM      6  C   LIG    1       26.359 -13.064   2.234  0.00  0.00    -0.008 C 
ATOM      7  C   LIG    1       24.998 -12.639   2.812  0.00  0.00    +0.025 C 
ATOM      8  C   LIG    1       24.788 -13.284   4.197  0.00  0.00    +0.018 C 
ATOM      9  C   LIG    1       26.239 -16.790   3.329  0.00  0.00    +0.011 C 
ATOM     10  C   LIG    1       24.836 -14.819   4.052  0.00  0.00    +0.028 C 
ATOM     11  C   LIG    1       25.921 -12.830   5.142  0.00  0.00    +0.028 C 
ATOM     12  C   LIG    1       27.479 -12.611   3.183  0.00  0.00    +0.010 C 
ENDROOT
BRANCH   8  13
ATOM     13  N   LIG    1       23.488 -12.882   4.734  0.00  0.00    -0.325 NA
ATOM     14  H   LIG    1       22.741 -13.342   4.215  0.00  0.00    +0.119 HD
ATOM     15  H   LIG    1       23.399 -13.197   5.698  0.00  0.00    +0.119 HD
ENDBRANCH   8  13
TORSDOF 1
ENDMDL
MODEL 9
REMARK VINA RESULT:      -3.4      1.252      3.355
REMARK  Name = *****
REMARK                            x       y       z     vdW  Elec       q    Type
REMARK                         _______ _______ _______ _____ _____    ______ ____
ROOT
ATOM      1  C   LIG    1       27.667 -14.439   3.398  0.00  0.00    +0.011 C 
ATOM      2  C   LIG    1       26.231 -13.940   3.580  0.00  0.00    -0.030 C 
ATOM      3  C   LIG    1       25.291 -15.124   3.903  0.00  0.00    +0.013 C 
ATOM      4  C   LIG    1       23.835 -14.638   4.088  0.00  0.00    -0.030 C 
ATOM      5  C   LIG    1       23.376 -13.940   2.787  0.00  0.00    +0.010 C 
ATOM      6  C   LIG    1       24.294 -12.749   2.465  0.00  0.00    -0.008 C 
ATOM      7  C   LIG    1       24.245 -11.741   3.625  0.00  0.00    +0.025 C 
ATOM      8  C   LIG    1       24.717 -12.413   4.931  0.00  0.00    +0.018 C 
ATOM      9  C   LIG    1       22.918 -15.824   4.403  0.00  0.00    +0.011 C 
ATOM     10  C   LIG    1       23.797 -13.611   5.243  0.00  0.00    +0.028 C 
ATOM     11  C   LIG    1       26.163 -12.921   4.742  0.00  0.00    +0.028 C 
ATOM     12  C   LIG    1       25.736 -13.252   2.288  0.00  0.00    +0.010 C 
ENDROOT
BRANCH   8  13
ATOM     13  N   LIG    1       24.658 -11.448   6.029  0.00  0.00    -0.325 NA
ATOM     14  H   LIG    1       23.687 -11.228   6.244  0.00  0.00    +0.119 HD
ATOM     15  H   LIG    1       25.049 -11.862   6.874  0.00  0.00    +0.119 HD
ENDBRANCH   8  13
TORSDOF 1
ENDMDL
