MODEL 1
REMARK VINA RESULT:      -2.2      0.000      0.000
REMARK  Name = *****
REMARK                            x       y       z     vdW  Elec       q    Type
REMARK                         _______ _______ _______ _____ _____    ______ ____
ROOT
ATOM      1  C   LIG    1       23.754 -18.987   3.932  0.00  0.00    +0.253 C 
ATOM      2  C   LIG    1       24.292 -20.384   3.595  0.00  0.00    +0.195 C 
ATOM      3  C   LIG    1       23.622 -21.250   4.653  0.00  0.00    +0.178 C 
ATOM      4  C   LIG    1       23.541 -20.329   5.864  0.00  0.00    +0.178 C 
ATOM      5  O   LIG    1       23.392 -18.988   5.342  0.00  0.00    -0.346 OA
ENDROOT
BRANCH   1  10
ATOM      6  C   LIG    1       25.771 -14.581   3.649  0.00  0.00    +0.147 A 
ATOM      7  C   LIG    1       25.706 -15.980   3.543  0.00  0.00    +0.147 A 
ATOM      8  N   LIG    1       26.648 -16.922   3.183  0.00  0.00    -0.231 NA
ATOM      9  C   LIG    1       26.029 -18.071   3.342  0.00  0.00    +0.203 A 
ATOM     10  N   LIG    1       24.715 -17.921   3.703  0.00  0.00    -0.285 N 
ATOM     11  C   LIG    1       24.490 -16.578   3.846  0.00  0.00    +0.167 A 
ATOM     12  N   LIG    1       23.357 -15.957   4.211  0.00  0.00    -0.216 NA
ATOM     13  C   LIG    1       23.530 -14.619   4.243  0.00  0.00    +0.225 A 
ATOM     14  N   LIG    1       24.650 -13.907   3.988  0.00  0.00    -0.219 NA
BRANCH   6  15
ATOM     15  N   LIG    1       26.934 -13.859   3.415  0.00  0.00    -0.341 N 
ATOM     16  H   LIG    1       26.851 -12.875   3.644  0.00  0.00    +0.144 HD
ATOM     17  H   LIG    1       27.759 -14.351   3.729  0.00  0.00    +0.144 HD
ENDBRANCH   6  15
ENDBRANCH   1  10
BRANCH   2  18
ATOM     18  O   LIG    1       23.953 -20.842   2.287  0.00  0.00    -0.385 OA
ATOM     19  H   LIG    1       24.728 -21.360   1.981  0.00  0.00    +0.210 HD
ENDBRANCH   2  18
BRANCH   3  20
ATOM     20  O   LIG    1       22.299 -21.570   4.177  0.00  0.00    -0.386 OA
ATOM     21  H   LIG    1       21.684 -20.903   4.536  0.00  0.00    +0.210 HD
ENDBRANCH   3  20
BRANCH   4  22
ATOM     22  C   LIG    1       24.781 -20.397   6.768  0.00  0.00    +0.206 C 
BRANCH  22  23
ATOM     23  O   LIG    1       25.809 -21.154   6.149  0.00  0.00    -0.284 OA
BRANCH  23  24
ATOM     24  P   LIG    1       27.315 -20.645   6.295  0.00  0.00    +0.472 P 
ATOM     25  O   LIG    1       28.250 -21.572   6.998  0.00  0.00    -0.228 OA
BRANCH  24  26
ATOM     26  O   LIG    1       27.207 -19.251   7.059  0.00  0.00    -0.303 OA
ATOM     27  H   LIG    1       27.842 -18.617   6.672  0.00  0.00    +0.222 HD
ENDBRANCH  24  26
BRANCH  24  28
ATOM     28  O   LIG    1       27.761 -20.160   4.850  0.00  0.00    -0.303 OA
ATOM     29  H   LIG    1       28.632 -19.720   4.849  0.00  0.00    +0.222 HD
ENDBRANCH  24  28
ENDBRANCH  23  24
ENDBRANCH  22  23
ENDBRANCH   4  22
TORSDOF 9
ENDMDL
MODEL 2
REMARK VINA RESULT:      -1.9      3.717      5.285
REMARK  Name = *****
REMARK                            x       y       z     vdW  Elec       q    Type
REMARK                         _______ _______ _______ _____ _____    ______ ____
ROOT
ATOM      1  C   LIG    1       24.118 -19.929   4.343  0.00  0.00    +0.253 C 
ATOM      2  C   LIG    1       23.034 -19.289   5.220  0.00  0.00    +0.195 C 
ATOM      3  C   LIG    1       22.462 -18.223   4.297  0.00  0.00    +0.178 C 
ATOM      4  C   LIG    1       23.670 -17.776   3.482  0.00  0.00    +0.178 C 
ATOM      5  O   LIG    1       24.525 -18.936   3.359  0.00  0.00    -0.346 OA
ENDROOT
BRANCH   1  10
ATOM      6  C   LIG    1       28.607 -20.059   6.185  0.00  0.00    +0.147 A 
ATOM      7  C   LIG    1       27.291 -20.496   5.959  0.00  0.00    +0.147 A 
ATOM      8  N   LIG    1       26.580 -21.572   6.449  0.00  0.00    -0.231 NA
ATOM      9  C   LIG    1       25.378 -21.420   5.941  0.00  0.00    +0.203 A 
ATOM     10  N   LIG    1       25.294 -20.353   5.084  0.00  0.00    -0.285 N 
ATOM     11  C   LIG    1       26.518 -19.739   5.089  0.00  0.00    +0.167 A 
ATOM     12  N   LIG    1       26.902 -18.641   4.420  0.00  0.00    -0.216 NA
ATOM     13  C   LIG    1       28.191 -18.340   4.686  0.00  0.00    +0.225 A 
ATOM     14  N   LIG    1       29.051 -18.973   5.515  0.00  0.00    -0.219 NA
BRANCH   6  15
ATOM     15  N   LIG    1       29.475 -20.698   7.062  0.00  0.00    -0.341 N 
ATOM     16  H   LIG    1       30.027 -20.058   7.621  0.00  0.00    +0.144 HD
ATOM     17  H   LIG    1       29.039 -21.481   7.529  0.00  0.00    +0.144 HD
ENDBRANCH   6  15
ENDBRANCH   1  10
BRANCH   2  18
ATOM     18  O   LIG    1       22.010 -20.191   5.636  0.00  0.00    -0.385 OA
ATOM     19  H   LIG    1       22.199 -21.035   5.174  0.00  0.00    +0.210 HD
ENDBRANCH   2  18
BRANCH   3  20
ATOM     20  O   LIG    1       21.490 -18.862   3.445  0.00  0.00    -0.386 OA
ATOM     21  H   LIG    1       21.205 -19.685   3.885  0.00  0.00    +0.210 HD
ENDBRANCH   3  20
BRANCH   4  22
ATOM     22  C   LIG    1       24.452 -16.623   4.129  0.00  0.00    +0.206 C 
BRANCH  22  23
ATOM     23  O   LIG    1       25.474 -16.164   3.258  0.00  0.00    -0.284 OA
BRANCH  23  24
ATOM     24  P   LIG    1       25.933 -14.639   3.370  0.00  0.00    +0.472 P 
ATOM     25  O   LIG    1       25.058 -13.754   4.194  0.00  0.00    -0.228 OA
BRANCH  24  26
ATOM     26  O   LIG    1       26.014 -14.122   1.864  0.00  0.00    -0.303 OA
ATOM     27  H   LIG    1       26.924 -13.824   1.671  0.00  0.00    +0.222 HD
ENDBRANCH  24  26
BRANCH  24  28
ATOM     28  O   LIG    1       27.472 -14.666   3.760  0.00  0.00    -0.303 OA
ATOM     29  H   LIG    1       28.037 -15.028   3.052  0.00  0.00    +0.222 HD
ENDBRANCH  24  28
ENDBRANCH  23  24
ENDBRANCH  22  23
ENDBRANCH   4  22
TORSDOF 9
ENDMDL
MODEL 3
REMARK VINA RESULT:      -1.9      1.878      3.929
REMARK  Name = *****
REMARK                            x       y       z     vdW  Elec       q    Type
REMARK                         _______ _______ _______ _____ _____    ______ ____
ROOT
ATOM      1  C   LIG    1       27.180 -18.417   4.047  0.00  0.00    +0.253 C 
ATOM      2  C   LIG    1       27.942 -18.360   5.378  0.00  0.00    +0.195 C 
ATOM      3  C   LIG    1       27.952 -19.820   5.805  0.00  0.00    +0.178 C 
ATOM      4  C   LIG    1       26.622 -20.350   5.284  0.00  0.00    +0.178 C 
ATOM      5  O   LIG    1       26.333 -19.600   4.081  0.00  0.00    -0.346 OA
ENDROOT
BRANCH   1  10
ATOM      6  C   LIG    1       25.743 -13.835   3.337  0.00  0.00    +0.147 A 
ATOM      7  C   LIG    1       25.601 -15.226   3.477  0.00  0.00    +0.147 A 
ATOM      8  N   LIG    1       24.502 -16.054   3.381  0.00  0.00    -0.231 NA
ATOM      9  C   LIG    1       24.997 -17.262   3.533  0.00  0.00    +0.203 A 
ATOM     10  N   LIG    1       26.341 -17.256   3.805  0.00  0.00    -0.285 N 
ATOM     11  C   LIG    1       26.750 -15.950   3.764  0.00  0.00    +0.167 A 
ATOM     12  N   LIG    1       27.986 -15.458   3.945  0.00  0.00    -0.216 NA
ATOM     13  C   LIG    1       27.993 -14.114   3.824  0.00  0.00    +0.225 A 
ATOM     14  N   LIG    1       26.962 -13.288   3.536  0.00  0.00    -0.219 NA
BRANCH   6  15
ATOM     15  N   LIG    1       24.685 -12.997   3.011  0.00  0.00    -0.341 N 
ATOM     16  H   LIG    1       24.002 -13.429   2.399  0.00  0.00    +0.144 HD
ATOM     17  H   LIG    1       24.346 -12.479   3.809  0.00  0.00    +0.144 HD
ENDBRANCH   6  15
ENDBRANCH   1  10
BRANCH   2  18
ATOM     18  O   LIG    1       29.275 -17.863   5.267  0.00  0.00    -0.385 OA
ATOM     19  H   LIG    1       29.338 -17.132   5.919  0.00  0.00    +0.210 HD
ENDBRANCH   2  18
BRANCH   3  20
ATOM     20  O   LIG    1       29.049 -20.464   5.126  0.00  0.00    -0.386 OA
ATOM     21  H   LIG    1       29.596 -20.908   5.801  0.00  0.00    +0.210 HD
ENDBRANCH   3  20
BRANCH   4  22
ATOM     22  C   LIG    1       25.466 -20.191   6.283  0.00  0.00    +0.206 C 
BRANCH  22  23
ATOM     23  O   LIG    1       24.389 -21.050   5.940  0.00  0.00    -0.284 OA
BRANCH  23  24
ATOM     24  P   LIG    1       23.199 -20.456   5.060  0.00  0.00    +0.472 P 
ATOM     25  O   LIG    1       22.667 -19.130   5.494  0.00  0.00    -0.228 OA
BRANCH  24  26
ATOM     26  O   LIG    1       22.060 -21.571   5.099  0.00  0.00    -0.303 OA
ATOM     27  H   LIG    1       22.472 -22.457   5.078  0.00  0.00    +0.222 HD
ENDBRANCH  24  26
BRANCH  24  28
ATOM     28  O   LIG    1       23.669 -20.562   3.547  0.00  0.00    -0.303 OA
ATOM     29  H   LIG    1       23.219 -19.924   2.963  0.00  0.00    +0.222 HD
ENDBRANCH  24  28
ENDBRANCH  23  24
ENDBRANCH  22  23
ENDBRANCH   4  22
TORSDOF 9
ENDMDL
MODEL 4
REMARK VINA RESULT:      -1.6      4.257      6.218
REMARK  Name = *****
REMARK                            x       y       z     vdW  Elec       q    Type
REMARK                         _______ _______ _______ _____ _____    ______ ____
ROOT
ATOM      1  C   LIG    1       24.681 -15.774   3.209  0.00  0.00    +0.253 C 
ATOM      2  C   LIG    1       23.674 -15.163   4.192  0.00  0.00    +0.195 C 
ATOM      3  C   LIG    1       24.046 -13.687   4.157  0.00  0.00    +0.178 C 
ATOM      4  C   LIG    1       25.555 -13.708   3.949  0.00  0.00    +0.178 C 
ATOM      5  O   LIG    1       25.837 -14.891   3.165  0.00  0.00    -0.346 OA
ENDROOT
BRANCH   1  10
ATOM      6  C   LIG    1       24.661 -20.429   4.585  0.00  0.00    +0.147 A 
ATOM      7  C   LIG    1       25.220 -19.198   4.200  0.00  0.00    +0.147 A 
ATOM      8  N   LIG    1       26.525 -18.806   3.987  0.00  0.00    -0.231 NA
ATOM      9  C   LIG    1       26.422 -17.563   3.572  0.00  0.00    +0.203 A 
ATOM     10  N   LIG    1       25.130 -17.104   3.584  0.00  0.00    -0.285 N 
ATOM     11  C   LIG    1       24.338 -18.149   3.979  0.00  0.00    +0.167 A 
ATOM     12  N   LIG    1       23.003 -18.178   4.115  0.00  0.00    -0.216 NA
ATOM     13  C   LIG    1       22.586 -19.395   4.523  0.00  0.00    +0.225 A 
ATOM     14  N   LIG    1       23.324 -20.503   4.761  0.00  0.00    -0.219 NA
BRANCH   6  15
ATOM     15  N   LIG    1       25.423 -21.571   4.798  0.00  0.00    -0.341 N 
ATOM     16  H   LIG    1       24.895 -22.431   4.703  0.00  0.00    +0.144 HD
ATOM     17  H   LIG    1       26.327 -21.517   4.350  0.00  0.00    +0.144 HD
ENDBRANCH   6  15
ENDBRANCH   1  10
BRANCH   2  18
ATOM     18  O   LIG    1       22.308 -15.343   3.819  0.00  0.00    -0.385 OA
ATOM     19  H   LIG    1       21.880 -14.471   3.959  0.00  0.00    +0.210 HD
ENDBRANCH   2  18
BRANCH   3  20
ATOM     20  O   LIG    1       23.389 -13.101   3.015  0.00  0.00    -0.386 OA
ATOM     21  H   LIG    1       23.315 -12.142   3.176  0.00  0.00    +0.210 HD
ENDBRANCH   3  20
BRANCH   4  22
ATOM     22  C   LIG    1       26.354 -13.754   5.260  0.00  0.00    +0.206 C 
BRANCH  22  23
ATOM     23  O   LIG    1       27.747 -13.811   4.994  0.00  0.00    -0.284 OA
BRANCH  23  24
ATOM     24  P   LIG    1       28.372 -12.722   4.007  0.00  0.00    +0.472 P 
ATOM     25  O   LIG    1       27.405 -12.029   3.106  0.00  0.00    -0.228 OA
BRANCH  24  26
ATOM     26  O   LIG    1       29.473 -13.512   3.168  0.00  0.00    -0.303 OA
ATOM     27  H   LIG    1       29.057 -14.276   2.723  0.00  0.00    +0.222 HD
ENDBRANCH  24  26
BRANCH  24  28
ATOM     28  O   LIG    1       29.292 -11.788   4.903  0.00  0.00    -0.303 OA
ATOM     29  H   LIG    1       29.068 -10.842   4.821  0.00  0.00    +0.222 HD
ENDBRANCH  24  28
ENDBRANCH  23  24
ENDBRANCH  22  23
ENDBRANCH   4  22
TORSDOF 9
ENDMDL
MODEL 5
REMARK VINA RESULT:      -1.1      4.162      6.283
REMARK  Name = *****
REMARK                            x       y       z     vdW  Elec       q    Type
REMARK                         _______ _______ _______ _____ _____    ______ ____
ROOT
ATOM      1  C   LIG    1       25.369 -15.375   2.796  0.00  0.00    +0.253 C 
ATOM      2  C   LIG    1       24.702 -14.415   3.790  0.00  0.00    +0.195 C 
ATOM      3  C   LIG    1       24.764 -13.089   3.047  0.00  0.00    +0.178 C 
ATOM      4  C   LIG    1       26.069 -13.183   2.265  0.00  0.00    +0.178 C 
ATOM      5  O   LIG    1       26.250 -14.584   1.951  0.00  0.00    -0.346 OA
ENDROOT
BRANCH   1  10
ATOM      6  C   LIG    1       26.710 -19.664   4.631  0.00  0.00    +0.147 A 
ATOM      7  C   LIG    1       26.845 -18.310   4.282  0.00  0.00    +0.147 A 
ATOM      8  N   LIG    1       27.900 -17.429   4.400  0.00  0.00    -0.231 NA
ATOM      9  C   LIG    1       27.462 -16.327   3.834  0.00  0.00    +0.203 A 
ATOM     10  N   LIG    1       26.155 -16.420   3.431  0.00  0.00    -0.285 N 
ATOM     11  C   LIG    1       25.742 -17.697   3.705  0.00  0.00    +0.167 A 
ATOM     12  N   LIG    1       24.546 -18.255   3.463  0.00  0.00    -0.216 NA
ATOM     13  C   LIG    1       24.523 -19.541   3.873  0.00  0.00    +0.225 A 
ATOM     14  N   LIG    1       25.517 -20.266   4.433  0.00  0.00    -0.219 NA
BRANCH   6  15
ATOM     15  N   LIG    1       27.746 -20.410   5.178  0.00  0.00    -0.341 N 
ATOM     16  H   LIG    1       27.515 -20.827   6.073  0.00  0.00    +0.144 HD
ATOM     17  H   LIG    1       28.205 -20.990   4.490  0.00  0.00    +0.144 HD
ENDBRANCH   6  15
ENDBRANCH   1  10
BRANCH   2  18
ATOM     18  O   LIG    1       23.350 -14.747   4.107  0.00  0.00    -0.385 OA
ATOM     19  H   LIG    1       23.311 -15.727   4.095  0.00  0.00    +0.210 HD
ENDBRANCH   2  18
BRANCH   3  20
ATOM     20  O   LIG    1       23.640 -13.043   2.145  0.00  0.00    -0.386 OA
ATOM     21  H   LIG    1       22.828 -13.123   2.679  0.00  0.00    +0.210 HD
ENDBRANCH   3  20
BRANCH   4  22
ATOM     22  C   LIG    1       27.288 -12.666   3.043  0.00  0.00    +0.206 C 
BRANCH  22  23
ATOM     23  O   LIG    1       27.630 -13.563   4.088  0.00  0.00    -0.284 OA
BRANCH  23  24
ATOM     24  P   LIG    1       27.604 -13.021   5.589  0.00  0.00    +0.472 P 
ATOM     25  O   LIG    1       27.515 -14.061   6.656  0.00  0.00    -0.228 OA
BRANCH  24  26
ATOM     26  O   LIG    1       26.356 -12.031   5.648  0.00  0.00    -0.303 OA
ATOM     27  H   LIG    1       26.673 -11.107   5.657  0.00  0.00    +0.222 HD
ENDBRANCH  24  26
BRANCH  24  28
ATOM     28  O   LIG    1       28.807 -11.992   5.710  0.00  0.00    -0.303 OA
ATOM     29  H   LIG    1       29.413 -12.023   4.946  0.00  0.00    +0.222 HD
ENDBRANCH  24  28
ENDBRANCH  23  24
ENDBRANCH  22  23
ENDBRANCH   4  22
TORSDOF 9
ENDMDL
MODEL 6
REMARK VINA RESULT:      -1.1      2.649      5.224
REMARK  Name = *****
REMARK                            x       y       z     vdW  Elec       q    Type
REMARK                         _______ _______ _______ _____ _____    ______ ____
ROOT
ATOM      1  C   LIG    1       25.003 -16.729   3.162  0.00  0.00    +0.253 C 
ATOM      2  C   LIG    1       25.217 -15.465   4.006  0.00  0.00    +0.195 C 
ATOM      3  C   LIG    1       26.688 -15.161   3.760  0.00  0.00    +0.178 C 
ATOM      4  C   LIG    1       27.314 -16.541   3.610  0.00  0.00    +0.178 C 
ATOM      5  O   LIG    1       26.294 -17.385   3.025  0.00  0.00    -0.346 OA
ENDROOT
BRANCH   1  10
ATOM      6  C   LIG    1       23.096 -20.803   4.986  0.00  0.00    +0.147 A 
ATOM      7  C   LIG    1       23.123 -19.457   4.585  0.00  0.00    +0.147 A 
ATOM      8  N   LIG    1       22.178 -18.455   4.659  0.00  0.00    -0.231 NA
ATOM      9  C   LIG    1       22.800 -17.393   4.197  0.00  0.00    +0.203 A 
ATOM     10  N   LIG    1       24.066 -17.672   3.751  0.00  0.00    -0.285 N 
ATOM     11  C   LIG    1       24.296 -18.998   4.001  0.00  0.00    +0.167 A 
ATOM     12  N   LIG    1       25.406 -19.712   3.757  0.00  0.00    -0.216 NA
ATOM     13  C   LIG    1       25.250 -20.994   4.149  0.00  0.00    +0.225 A 
ATOM     14  N   LIG    1       24.179 -21.572   4.739  0.00  0.00    -0.219 NA
BRANCH   6  15
ATOM     15  N   LIG    1       22.003 -21.381   5.620  0.00  0.00    -0.341 N 
ATOM     16  H   LIG    1       21.604 -20.799   6.347  0.00  0.00    +0.144 HD
ATOM     17  H   LIG    1       21.372 -21.823   4.966  0.00  0.00    +0.144 HD
ENDBRANCH   6  15
ENDBRANCH   1  10
BRANCH   2  18
ATOM     18  O   LIG    1       24.406 -14.357   3.617  0.00  0.00    -0.385 OA
ATOM     19  H   LIG    1       25.022 -13.600   3.525  0.00  0.00    +0.210 HD
ENDBRANCH   2  18
BRANCH   3  20
ATOM     20  O   LIG    1       26.778 -14.430   2.520  0.00  0.00    -0.386 OA
ATOM     21  H   LIG    1       25.910 -14.483   2.080  0.00  0.00    +0.210 HD
ENDBRANCH   3  20
BRANCH   4  22
ATOM     22  C   LIG    1       27.786 -17.148   4.939  0.00  0.00    +0.206 C 
BRANCH  22  23
ATOM     23  O   LIG    1       28.325 -18.444   4.732  0.00  0.00    -0.284 OA
BRANCH  23  24
ATOM     24  P   LIG    1       28.555 -19.379   6.006  0.00  0.00    +0.472 P 
ATOM     25  O   LIG    1       29.474 -18.841   7.051  0.00  0.00    -0.228 OA
BRANCH  24  26
ATOM     26  O   LIG    1       29.104 -20.754   5.413  0.00  0.00    -0.303 OA
ATOM     27  H   LIG    1       28.407 -21.436   5.476  0.00  0.00    +0.222 HD
ENDBRANCH  24  26
BRANCH  24  28
ATOM     28  O   LIG    1       27.112 -19.821   6.498  0.00  0.00    -0.303 OA
ATOM     29  H   LIG    1       27.036 -19.857   7.470  0.00  0.00    +0.222 HD
ENDBRANCH  24  28
ENDBRANCH  23  24
ENDBRANCH  22  23
ENDBRANCH   4  22
TORSDOF 9
ENDMDL
MODEL 7
REMARK VINA RESULT:      -1.0      0.983      2.136
REMARK  Name = *****
REMARK                            x       y       z     vdW  Elec       q    Type
REMARK                         _______ _______ _______ _____ _____    ______ ____
ROOT
ATOM      1  C   LIG    1       23.678 -18.654   3.740  0.00  0.00    +0.253 C 
ATOM      2  C   LIG    1       25.030 -19.244   3.317  0.00  0.00    +0.195 C 
ATOM      3  C   LIG    1       24.980 -20.636   3.930  0.00  0.00    +0.178 C 
ATOM      4  C   LIG    1       24.188 -20.427   5.215  0.00  0.00    +0.178 C 
ATOM      5  O   LIG    1       23.256 -19.354   4.944  0.00  0.00    -0.346 OA
ENDROOT
BRANCH   1  10
ATOM      6  C   LIG    1       25.231 -14.067   4.065  0.00  0.00    +0.147 A 
ATOM      7  C   LIG    1       24.339 -15.142   4.215  0.00  0.00    +0.147 A 
ATOM      8  N   LIG    1       23.051 -15.208   4.703  0.00  0.00    -0.231 NA
ATOM      9  C   LIG    1       22.704 -16.463   4.524  0.00  0.00    +0.203 A 
ATOM     10  N   LIG    1       23.726 -17.230   4.026  0.00  0.00    -0.285 N 
ATOM     11  C   LIG    1       24.788 -16.392   3.812  0.00  0.00    +0.167 A 
ATOM     12  N   LIG    1       25.997 -16.690   3.311  0.00  0.00    -0.216 NA
ATOM     13  C   LIG    1       26.777 -15.591   3.248  0.00  0.00    +0.225 A 
ATOM     14  N   LIG    1       26.471 -14.318   3.590  0.00  0.00    -0.219 NA
BRANCH   6  15
ATOM     15  N   LIG    1       24.898 -12.758   4.389  0.00  0.00    -0.341 N 
ATOM     16  H   LIG    1       24.511 -12.236   3.611  0.00  0.00    +0.144 HD
ATOM     17  H   LIG    1       24.433 -12.691   5.283  0.00  0.00    +0.144 HD
ENDBRANCH   6  15
ENDBRANCH   1  10
BRANCH   2  18
ATOM     18  O   LIG    1       25.216 -19.327   1.904  0.00  0.00    -0.385 OA
ATOM     19  H   LIG    1       25.295 -20.284   1.706  0.00  0.00    +0.210 HD
ENDBRANCH   2  18
BRANCH   3  20
ATOM     20  O   LIG    1       24.249 -21.484   3.022  0.00  0.00    -0.386 OA
ATOM     21  H   LIG    1       24.426 -21.171   2.115  0.00  0.00    +0.210 HD
ENDBRANCH   3  20
BRANCH   4  22
ATOM     22  C   LIG    1       25.064 -20.059   6.422  0.00  0.00    +0.206 C 
BRANCH  22  23
ATOM     23  O   LIG    1       26.150 -20.964   6.544  0.00  0.00    -0.284 OA
BRANCH  23  24
ATOM     24  P   LIG    1       27.632 -20.388   6.409  0.00  0.00    +0.472 P 
ATOM     25  O   LIG    1       27.881 -19.069   7.060  0.00  0.00    -0.228 OA
BRANCH  24  26
ATOM     26  O   LIG    1       27.903 -20.313   4.840  0.00  0.00    -0.303 OA
ATOM     27  H   LIG    1       28.807 -20.633   4.650  0.00  0.00    +0.222 HD
ENDBRANCH  24  26
BRANCH  24  28
ATOM     28  O   LIG    1       28.607 -21.571   6.824  0.00  0.00    -0.303 OA
ATOM     29  H   LIG    1       29.468 -21.255   7.157  0.00  0.00    +0.222 HD
ENDBRANCH  24  28
ENDBRANCH  23  24
ENDBRANCH  22  23
ENDBRANCH   4  22
TORSDOF 9
ENDMDL
MODEL 8
REMARK VINA RESULT:      -0.7      4.541      7.091
REMARK  Name = *****
REMARK                            x       y       z     vdW  Elec       q    Type
REMARK                         _______ _______ _______ _____ _____    ______ ____
ROOT
ATOM      1  C   LIG    1       27.874 -15.404   3.967  0.00  0.00    +0.253 C 
ATOM      2  C   LIG    1       27.347 -14.259   3.092  0.00  0.00    +0.195 C 
ATOM      3  C   LIG    1       27.673 -13.035   3.935  0.00  0.00    +0.178 C 
ATOM      4  C   LIG    1       27.509 -13.536   5.364  0.00  0.00    +0.178 C 
ATOM      5  O   LIG    1       27.872 -14.936   5.345  0.00  0.00    -0.346 OA
ENDROOT
BRANCH   1  10
ATOM      6  C   LIG    1       26.333 -19.961   4.613  0.00  0.00    +0.147 A 
ATOM      7  C   LIG    1       26.302 -18.645   4.122  0.00  0.00    +0.147 A 
ATOM      8  N   LIG    1       25.380 -17.972   3.348  0.00  0.00    -0.231 NA
ATOM      9  C   LIG    1       25.854 -16.749   3.276  0.00  0.00    +0.203 A 
ATOM     10  N   LIG    1       27.073 -16.615   3.889  0.00  0.00    -0.285 N 
ATOM     11  C   LIG    1       27.374 -17.827   4.449  0.00  0.00    +0.167 A 
ATOM     12  N   LIG    1       28.455 -18.167   5.170  0.00  0.00    -0.216 NA
ATOM     13  C   LIG    1       28.391 -19.459   5.554  0.00  0.00    +0.225 A 
ATOM     14  N   LIG    1       27.411 -20.361   5.322  0.00  0.00    -0.219 NA
BRANCH   6  15
ATOM     15  N   LIG    1       25.306 -20.873   4.397  0.00  0.00    -0.341 N 
ATOM     16  H   LIG    1       25.569 -21.831   4.598  0.00  0.00    +0.144 HD
ATOM     17  H   LIG    1       24.419 -20.540   4.748  0.00  0.00    +0.144 HD
ENDBRANCH   6  15
ENDBRANCH   1  10
BRANCH   2  18
ATOM     18  O   LIG    1       27.971 -14.165   1.812  0.00  0.00    -0.385 OA
ATOM     19  H   LIG    1       28.617 -13.432   1.888  0.00  0.00    +0.210 HD
ENDBRANCH   2  18
BRANCH   3  20
ATOM     20  O   LIG    1       29.049 -12.686   3.680  0.00  0.00    -0.386 OA
ATOM     21  H   LIG    1       29.286 -13.038   2.801  0.00  0.00    +0.210 HD
ENDBRANCH   3  20
BRANCH   4  22
ATOM     22  C   LIG    1       26.081 -13.379   5.908  0.00  0.00    +0.206 C 
BRANCH  22  23
ATOM     23  O   LIG    1       25.422 -12.294   5.274  0.00  0.00    -0.284 OA
BRANCH  23  24
ATOM     24  P   LIG    1       24.120 -12.604   4.404  0.00  0.00    +0.472 P 
ATOM     25  O   LIG    1       23.632 -14.014   4.443  0.00  0.00    -0.228 OA
BRANCH  24  26
ATOM     26  O   LIG    1       24.505 -12.172   2.919  0.00  0.00    -0.303 OA
ATOM     27  H   LIG    1       23.877 -11.492   2.605  0.00  0.00    +0.222 HD
ENDBRANCH  24  26
BRANCH  24  28
ATOM     28  O   LIG    1       23.060 -11.483   4.777  0.00  0.00    -0.303 OA
ATOM     29  H   LIG    1       23.272 -11.019   5.608  0.00  0.00    +0.222 HD
ENDBRANCH  24  28
ENDBRANCH  23  24
ENDBRANCH  22  23
ENDBRANCH   4  22
TORSDOF 9
ENDMDL
MODEL 9
REMARK VINA RESULT:      -0.3      4.158      6.441
REMARK  Name = *****
REMARK                            x       y       z     vdW  Elec       q    Type
REMARK                         _______ _______ _______ _____ _____    ______ ____
ROOT
ATOM      1  C   LIG    1       23.126 -14.411   3.873  0.00  0.00    +0.253 C 
ATOM      2  C   LIG    1       24.095 -13.702   4.828  0.00  0.00    +0.195 C 
ATOM      3  C   LIG    1       24.619 -12.563   3.966  0.00  0.00    +0.178 C 
ATOM      4  C   LIG    1       24.646 -13.163   2.566  0.00  0.00    +0.178 C 
ATOM      5  O   LIG    1       23.559 -14.116   2.515  0.00  0.00    -0.346 OA
ENDROOT
BRANCH   1  10
ATOM      6  C   LIG    1       24.469 -19.075   3.985  0.00  0.00    +0.147 A 
ATOM      7  C   LIG    1       23.604 -17.977   4.122  0.00  0.00    +0.147 A 
ATOM      8  N   LIG    1       22.295 -17.883   4.549  0.00  0.00    -0.231 NA
ATOM      9  C   LIG    1       22.045 -16.593   4.534  0.00  0.00    +0.203 A 
ATOM     10  N   LIG    1       23.091 -15.854   4.042  0.00  0.00    -0.285 N 
ATOM     11  C   LIG    1       24.110 -16.731   3.779  0.00  0.00    +0.167 A 
ATOM     12  N   LIG    1       25.337 -16.463   3.307  0.00  0.00    -0.216 NA
ATOM     13  C   LIG    1       26.063 -17.594   3.183  0.00  0.00    +0.225 A 
ATOM     14  N   LIG    1       25.708 -18.862   3.489  0.00  0.00    -0.219 NA
BRANCH   6  15
ATOM     15  N   LIG    1       24.107 -20.370   4.331  0.00  0.00    -0.341 N 
ATOM     16  H   LIG    1       23.625 -20.866   3.589  0.00  0.00    +0.144 HD
ATOM     17  H   LIG    1       24.843 -20.855   4.825  0.00  0.00    +0.144 HD
ENDBRANCH   6  15
ENDBRANCH   1  10
BRANCH   2  18
ATOM     18  O   LIG    1       23.482 -13.192   6.012  0.00  0.00    -0.385 OA
ATOM     19  H   LIG    1       23.940 -12.346   6.202  0.00  0.00    +0.210 HD
ENDBRANCH   2  18
BRANCH   3  20
ATOM     20  O   LIG    1       23.659 -11.489   4.035  0.00  0.00    -0.386 OA
ATOM     21  H   LIG    1       23.309 -11.346   3.135  0.00  0.00    +0.210 HD
ENDBRANCH   3  20
BRANCH   4  22
ATOM     22  C   LIG    1       25.968 -13.867   2.226  0.00  0.00    +0.206 C 
BRANCH  22  23
ATOM     23  O   LIG    1       27.074 -13.064   2.610  0.00  0.00    -0.284 OA
BRANCH  23  24
ATOM     24  P   LIG    1       27.970 -13.551   3.838  0.00  0.00    +0.472 P 
ATOM     25  O   LIG    1       27.689 -12.895   5.149  0.00  0.00    -0.228 OA
BRANCH  24  26
ATOM     26  O   LIG    1       29.474 -13.292   3.378  0.00  0.00    -0.303 OA
ATOM     27  H   LIG    1       29.684 -13.865   2.615  0.00  0.00    +0.222 HD
ENDBRANCH  24  26
BRANCH  24  28
ATOM     28  O   LIG    1       27.921 -15.138   3.822  0.00  0.00    -0.303 OA
ATOM     29  H   LIG    1       28.806 -15.546   3.856  0.00  0.00    +0.222 HD
ENDBRANCH  24  28
ENDBRANCH  23  24
ENDBRANCH  22  23
ENDBRANCH   4  22
TORSDOF 9
ENDMDL
