MODEL 1
REMARK VINA RESULT:      -4.8      0.000      0.000
REMARK  Name = *****
REMARK                            x       y       z     vdW  Elec       q    Type
REMARK                         _______ _______ _______ _____ _____    ______ ____
ROOT
ATOM      1  C   LIG    1       25.371 -19.959   4.527  0.00  0.00    +0.138 A 
ATOM      2  C   LIG    1       26.708 -19.740   4.964  0.00  0.00    -0.002 A 
ATOM      3  C   LIG    1       27.387 -20.774   5.829  0.00  0.00    +0.048 C 
ATOM      4  C   LIG    1       27.368 -18.526   4.621  0.00  0.00    -0.002 A 
ATOM      5  C   LIG    1       28.722 -18.180   5.195  0.00  0.00    +0.048 C 
ATOM      6  C   LIG    1       26.739 -17.635   3.733  0.00  0.00    +0.124 A 
ATOM      7  C   LIG    1       25.434 -17.904   3.305  0.00  0.00    +0.052 A 
ATOM      8  C   LIG    1       24.716 -19.032   3.712  0.00  0.00    -0.004 A 
ATOM      9  C   LIG    1       23.264 -19.045   3.326  0.00  0.00    +0.048 C 
ENDROOT
BRANCH   1  10
ATOM     10  O   LIG    1       24.657 -21.017   5.154  0.00  0.00    -0.425 OA
BRANCH  10  12
ATOM     11  C   LIG    1       22.380 -21.550   5.482  0.00  0.00    +0.136 C 
ATOM     12  C   LIG    1       23.584 -20.816   6.038  0.00  0.00    +0.309 C 
ATOM     13  O   LIG    1       23.595 -20.169   7.062  0.00  0.00    -0.251 OA
ENDBRANCH  10  12
ENDBRANCH   1  10
BRANCH   6  14
ATOM     14  O   LIG    1       27.434 -16.513   3.330  0.00  0.00    -0.489 OA
BRANCH  14  15
ATOM     15  C   LIG    1       26.868 -15.267   3.765  0.00  0.00    +0.261 C 
BRANCH  15  16
ATOM     16  C   LIG    1       27.295 -14.099   2.878  0.00  0.00    +0.166 C 
BRANCH  16  17
ATOM     17  O   LIG    1       28.535 -13.523   3.311  0.00  0.00    -0.387 OA
ATOM     18  H   LIG    1       29.118 -14.263   3.552  0.00  0.00    +0.210 HD
ENDBRANCH  16  17
BRANCH  16  19
ATOM     19  C   LIG    1       26.212 -12.999   2.872  0.00  0.00    +0.115 C 
BRANCH  19  20
ATOM     20  N   LIG    1       24.894 -13.468   2.383  0.00  0.00    -0.311 NA
ATOM     21  H   LIG    1       24.974 -14.464   2.168  0.00  0.00    +0.122 HD
BRANCH  20  22
ATOM     22  C   LIG    1       23.831 -13.291   3.391  0.00  0.00    +0.048 C 
ATOM     23  C   LIG    1       24.212 -12.254   4.451  0.00  0.00    +0.024 C 
ATOM     24  C   LIG    1       23.538 -14.628   4.084  0.00  0.00    +0.024 C 
ENDBRANCH  20  22
ENDBRANCH  19  20
ENDBRANCH  16  19
ENDBRANCH  15  16
ENDBRANCH  14  15
ENDBRANCH   6  14
TORSDOF 9
ENDMDL
MODEL 2
REMARK VINA RESULT:      -3.5      2.337      6.997
REMARK  Name = *****
REMARK                            x       y       z     vdW  Elec       q    Type
REMARK                         _______ _______ _______ _____ _____    ______ ____
ROOT
ATOM      1  C   LIG    1       25.487 -14.820   3.710  0.00  0.00    +0.138 A 
ATOM      2  C   LIG    1       24.128 -14.671   4.104  0.00  0.00    -0.002 A 
ATOM      3  C   LIG    1       23.548 -13.287   4.269  0.00  0.00    +0.048 C 
ATOM      4  C   LIG    1       23.348 -15.829   4.386  0.00  0.00    -0.002 A 
ATOM      5  C   LIG    1       21.956 -15.716   4.962  0.00  0.00    +0.048 C 
ATOM      6  C   LIG    1       23.894 -17.099   4.124  0.00  0.00    +0.124 A 
ATOM      7  C   LIG    1       25.227 -17.197   3.710  0.00  0.00    +0.052 A 
ATOM      8  C   LIG    1       26.054 -16.084   3.531  0.00  0.00    -0.004 A 
ATOM      9  C   LIG    1       27.505 -16.392   3.295  0.00  0.00    +0.048 C 
ENDROOT
BRANCH   1  10
ATOM     10  O   LIG    1       26.299 -13.652   3.755  0.00  0.00    -0.425 OA
BRANCH  10  12
ATOM     11  C   LIG    1       28.552 -13.018   4.068  0.00  0.00    +0.136 C 
ATOM     12  C   LIG    1       27.257 -13.409   4.753  0.00  0.00    +0.309 C 
ATOM     13  O   LIG    1       27.100 -13.496   5.951  0.00  0.00    -0.251 OA
ENDBRANCH  10  12
ENDBRANCH   1  10
BRANCH   6  14
ATOM     14  O   LIG    1       23.091 -18.205   4.305  0.00  0.00    -0.489 OA
BRANCH  14  15
ATOM     15  C   LIG    1       23.544 -19.393   3.637  0.00  0.00    +0.261 C 
BRANCH  15  16
ATOM     16  C   LIG    1       23.315 -20.649   4.475  0.00  0.00    +0.166 C 
BRANCH  16  17
ATOM     17  O   LIG    1       22.778 -20.339   5.768  0.00  0.00    -0.387 OA
ATOM     18  H   LIG    1       22.514 -19.404   5.744  0.00  0.00    +0.210 HD
ENDBRANCH  16  17
BRANCH  16  19
ATOM     19  C   LIG    1       24.637 -21.425   4.659  0.00  0.00    +0.115 C 
BRANCH  19  20
ATOM     20  N   LIG    1       25.844 -20.570   4.570  0.00  0.00    -0.311 NA
ATOM     21  H   LIG    1       25.536 -19.598   4.499  0.00  0.00    +0.122 HD
BRANCH  20  22
ATOM     22  C   LIG    1       26.707 -20.700   5.760  0.00  0.00    +0.048 C 
ATOM     23  C   LIG    1       25.923 -20.516   7.062  0.00  0.00    +0.024 C 
ATOM     24  C   LIG    1       27.834 -19.660   5.706  0.00  0.00    +0.024 C 
ENDBRANCH  20  22
ENDBRANCH  19  20
ENDBRANCH  16  19
ENDBRANCH  15  16
ENDBRANCH  14  15
ENDBRANCH   6  14
TORSDOF 9
ENDMDL
MODEL 3
REMARK VINA RESULT:      -3.1      1.812      2.665
REMARK  Name = *****
REMARK                            x       y       z     vdW  Elec       q    Type
REMARK                         _______ _______ _______ _____ _____    ______ ____
ROOT
ATOM      1  C   LIG    1       24.074 -19.528   4.113  0.00  0.00    +0.138 A 
ATOM      2  C   LIG    1       25.445 -19.172   3.982  0.00  0.00    -0.002 A 
ATOM      3  C   LIG    1       26.506 -20.240   4.090  0.00  0.00    +0.048 C 
ATOM      4  C   LIG    1       25.801 -17.804   3.801  0.00  0.00    -0.002 A 
ATOM      5  C   LIG    1       27.245 -17.360   3.819  0.00  0.00    +0.048 C 
ATOM      6  C   LIG    1       24.781 -16.855   3.605  0.00  0.00    +0.124 A 
ATOM      7  C   LIG    1       23.445 -17.255   3.715  0.00  0.00    +0.052 A 
ATOM      8  C   LIG    1       23.064 -18.569   4.002  0.00  0.00    -0.004 A 
ATOM      9  C   LIG    1       21.603 -18.766   4.293  0.00  0.00    +0.048 C 
ENDROOT
BRANCH   1  10
ATOM     10  O   LIG    1       23.795 -20.832   4.608  0.00  0.00    -0.425 OA
BRANCH  10  12
ATOM     11  C   LIG    1       24.391 -20.656   6.886  0.00  0.00    +0.136 C 
ATOM     12  C   LIG    1       23.319 -21.088   5.905  0.00  0.00    +0.309 C 
ATOM     13  O   LIG    1       22.251 -21.572   6.207  0.00  0.00    -0.251 OA
ENDBRANCH  10  12
ENDBRANCH   1  10
BRANCH   6  14
ATOM     14  O   LIG    1       25.145 -15.553   3.329  0.00  0.00    -0.489 OA
BRANCH  14  15
ATOM     15  C   LIG    1       24.240 -14.557   3.831  0.00  0.00    +0.261 C 
BRANCH  15  16
ATOM     16  C   LIG    1       24.687 -13.141   3.475  0.00  0.00    +0.166 C 
BRANCH  16  17
ATOM     17  O   LIG    1       23.594 -12.335   3.011  0.00  0.00    -0.387 OA
ATOM     18  H   LIG    1       23.714 -11.452   3.400  0.00  0.00    +0.210 HD
ENDBRANCH  16  17
BRANCH  16  19
ATOM     19  C   LIG    1       25.776 -13.175   2.381  0.00  0.00    +0.115 C 
BRANCH  19  20
ATOM     20  N   LIG    1       27.059 -13.759   2.841  0.00  0.00    -0.311 NA
ATOM     21  H   LIG    1       27.710 -13.749   2.054  0.00  0.00    +0.122 HD
BRANCH  20  22
ATOM     22  C   LIG    1       27.654 -12.988   3.950  0.00  0.00    +0.048 C 
ATOM     23  C   LIG    1       29.164 -12.804   3.775  0.00  0.00    +0.024 C 
ATOM     24  C   LIG    1       27.390 -13.698   5.284  0.00  0.00    +0.024 C 
ENDBRANCH  20  22
ENDBRANCH  19  20
ENDBRANCH  16  19
ENDBRANCH  15  16
ENDBRANCH  14  15
ENDBRANCH   6  14
TORSDOF 9
ENDMDL
MODEL 4
REMARK VINA RESULT:      -3.0      2.535      6.876
REMARK  Name = *****
REMARK                            x       y       z     vdW  Elec       q    Type
REMARK                         _______ _______ _______ _____ _____    ______ ____
ROOT
ATOM      1  C   LIG    1       25.381 -14.904   3.981  0.00  0.00    +0.138 A 
ATOM      2  C   LIG    1       25.754 -16.246   3.689  0.00  0.00    -0.002 A 
ATOM      3  C   LIG    1       27.193 -16.565   3.365  0.00  0.00    +0.048 C 
ATOM      4  C   LIG    1       24.755 -17.260   3.657  0.00  0.00    -0.002 A 
ATOM      5  C   LIG    1       25.075 -18.663   3.195  0.00  0.00    +0.048 C 
ATOM      6  C   LIG    1       23.446 -16.941   4.061  0.00  0.00    +0.124 A 
ATOM      7  C   LIG    1       23.130 -15.613   4.367  0.00  0.00    +0.052 A 
ATOM      8  C   LIG    1       24.062 -14.573   4.301  0.00  0.00    -0.004 A 
ATOM      9  C   LIG    1       23.495 -13.190   4.454  0.00  0.00    +0.048 C 
ENDROOT
BRANCH   1  10
ATOM     10  O   LIG    1       26.339 -13.894   3.686  0.00  0.00    -0.425 OA
BRANCH  10  12
ATOM     11  C   LIG    1       28.491 -12.943   3.880  0.00  0.00    +0.136 C 
ATOM     12  C   LIG    1       27.250 -13.387   4.628  0.00  0.00    +0.309 C 
ATOM     13  O   LIG    1       27.094 -13.316   5.826  0.00  0.00    -0.251 OA
ENDBRANCH  10  12
ENDBRANCH   1  10
BRANCH   6  14
ATOM     14  O   LIG    1       22.515 -17.957   4.123  0.00  0.00    -0.489 OA
BRANCH  14  15
ATOM     15  C   LIG    1       22.759 -18.935   5.147  0.00  0.00    +0.261 C 
BRANCH  15  16
ATOM     16  C   LIG    1       22.678 -20.363   4.611  0.00  0.00    +0.166 C 
BRANCH  16  17
ATOM     17  O   LIG    1       21.365 -20.920   4.769  0.00  0.00    -0.387 OA
ATOM     18  H   LIG    1       20.736 -20.237   4.480  0.00  0.00    +0.210 HD
ENDBRANCH  16  17
BRANCH  16  19
ATOM     19  C   LIG    1       23.692 -21.272   5.338  0.00  0.00    +0.115 C 
BRANCH  19  20
ATOM     20  N   LIG    1       25.049 -21.242   4.741  0.00  0.00    -0.311 NA
ATOM     21  H   LIG    1       25.081 -20.469   4.073  0.00  0.00    +0.122 HD
BRANCH  20  22
ATOM     22  C   LIG    1       26.098 -21.027   5.756  0.00  0.00    +0.048 C 
ATOM     23  C   LIG    1       25.529 -20.467   7.062  0.00  0.00    +0.024 C 
ATOM     24  C   LIG    1       27.157 -20.056   5.217  0.00  0.00    +0.024 C 
ENDBRANCH  20  22
ENDBRANCH  19  20
ENDBRANCH  16  19
ENDBRANCH  15  16
ENDBRANCH  14  15
ENDBRANCH   6  14
TORSDOF 9
ENDMDL
MODEL 5
REMARK VINA RESULT:      -2.9      2.120      4.372
REMARK  Name = *****
REMARK                            x       y       z     vdW  Elec       q    Type
REMARK                         _______ _______ _______ _____ _____    ______ ____
ROOT
ATOM      1  C   LIG    1       26.101 -19.956   5.117  0.00  0.00    +0.138 A 
ATOM      2  C   LIG    1       25.138 -20.612   5.932  0.00  0.00    -0.002 A 
ATOM      3  C   LIG    1       25.597 -21.572   7.003  0.00  0.00    +0.048 C 
ATOM      4  C   LIG    1       23.750 -20.395   5.692  0.00  0.00    -0.002 A 
ATOM      5  C   LIG    1       22.693 -21.190   6.421  0.00  0.00    +0.048 C 
ATOM      6  C   LIG    1       23.366 -19.419   4.754  0.00  0.00    +0.124 A 
ATOM      7  C   LIG    1       24.350 -18.777   3.994  0.00  0.00    +0.052 A 
ATOM      8  C   LIG    1       25.715 -19.049   4.127  0.00  0.00    -0.004 A 
ATOM      9  C   LIG    1       26.600 -18.425   3.086  0.00  0.00    +0.048 C 
ENDROOT
BRANCH   1  10
ATOM     10  O   LIG    1       27.435 -20.446   5.180  0.00  0.00    -0.425 OA
BRANCH  10  12
ATOM     11  C   LIG    1       29.029 -20.697   6.904  0.00  0.00    +0.136 C 
ATOM     12  C   LIG    1       28.482 -19.774   5.834  0.00  0.00    +0.309 C 
ATOM     13  O   LIG    1       28.885 -18.656   5.603  0.00  0.00    -0.251 OA
ENDBRANCH  10  12
ENDBRANCH   1  10
BRANCH   6  14
ATOM     14  O   LIG    1       22.022 -19.148   4.607  0.00  0.00    -0.489 OA
BRANCH  14  15
ATOM     15  C   LIG    1       21.723 -17.815   4.163  0.00  0.00    +0.261 C 
BRANCH  15  16
ATOM     16  C   LIG    1       22.489 -16.757   4.955  0.00  0.00    +0.166 C 
BRANCH  16  17
ATOM     17  O   LIG    1       21.644 -16.074   5.892  0.00  0.00    -0.387 OA
ATOM     18  H   LIG    1       21.223 -16.759   6.439  0.00  0.00    +0.210 HD
ENDBRANCH  16  17
BRANCH  16  19
ATOM     19  C   LIG    1       23.116 -15.716   4.003  0.00  0.00    +0.115 C 
BRANCH  19  20
ATOM     20  N   LIG    1       23.558 -14.478   4.688  0.00  0.00    -0.311 NA
ATOM     21  H   LIG    1       23.852 -14.729   5.634  0.00  0.00    +0.122 HD
BRANCH  20  22
ATOM     22  C   LIG    1       24.696 -13.838   4.000  0.00  0.00    +0.048 C 
ATOM     23  C   LIG    1       24.248 -13.030   2.779  0.00  0.00    +0.024 C 
ATOM     24  C   LIG    1       25.704 -14.904   3.550  0.00  0.00    +0.024 C 
ENDBRANCH  20  22
ENDBRANCH  19  20
ENDBRANCH  16  19
ENDBRANCH  15  16
ENDBRANCH  14  15
ENDBRANCH   6  14
TORSDOF 9
ENDMDL
MODEL 6
REMARK VINA RESULT:      -2.6      2.661      6.840
REMARK  Name = *****
REMARK                            x       y       z     vdW  Elec       q    Type
REMARK                         _______ _______ _______ _____ _____    ______ ____
ROOT
ATOM      1  C   LIG    1       25.390 -14.078   3.910  0.00  0.00    +0.138 A 
ATOM      2  C   LIG    1       24.321 -15.012   4.006  0.00  0.00    -0.002 A 
ATOM      3  C   LIG    1       22.934 -14.525   4.349  0.00  0.00    +0.048 C 
ATOM      4  C   LIG    1       24.585 -16.401   3.828  0.00  0.00    -0.002 A 
ATOM      5  C   LIG    1       23.519 -17.441   4.080  0.00  0.00    +0.048 C 
ATOM      6  C   LIG    1       25.868 -16.803   3.412  0.00  0.00    +0.124 A 
ATOM      7  C   LIG    1       26.882 -15.845   3.303  0.00  0.00    +0.052 A 
ATOM      8  C   LIG    1       26.683 -14.489   3.579  0.00  0.00    -0.004 A 
ATOM      9  C   LIG    1       27.929 -13.650   3.616  0.00  0.00    +0.048 C 
ENDROOT
BRANCH   1  10
ATOM     10  O   LIG    1       25.142 -12.768   4.408  0.00  0.00    -0.425 OA
BRANCH  10  12
ATOM     11  C   LIG    1       24.160 -11.834   2.475  0.00  0.00    +0.136 C 
ATOM     12  C   LIG    1       24.073 -11.962   3.982  0.00  0.00    +0.309 C 
ATOM     13  O   LIG    1       23.227 -11.447   4.679  0.00  0.00    -0.251 OA
ENDBRANCH  10  12
ENDBRANCH   1  10
BRANCH   6  14
ATOM     14  O   LIG    1       26.079 -18.139   3.144  0.00  0.00    -0.489 OA
BRANCH  14  15
ATOM     15  C   LIG    1       26.339 -18.950   4.301  0.00  0.00    +0.261 C 
BRANCH  15  16
ATOM     16  C   LIG    1       25.985 -20.418   4.067  0.00  0.00    +0.166 C 
BRANCH  16  17
ATOM     17  O   LIG    1       25.286 -20.609   2.829  0.00  0.00    -0.387 OA
ATOM     18  H   LIG    1       25.775 -21.289   2.335  0.00  0.00    +0.210 HD
ENDBRANCH  16  17
BRANCH  16  19
ATOM     19  C   LIG    1       25.109 -20.954   5.219  0.00  0.00    +0.115 C 
BRANCH  19  20
ATOM     20  N   LIG    1       23.831 -21.551   4.763  0.00  0.00    -0.311 NA
ATOM     21  H   LIG    1       23.893 -22.563   4.889  0.00  0.00    +0.122 HD
BRANCH  20  22
ATOM     22  C   LIG    1       22.677 -21.053   5.536  0.00  0.00    +0.048 C 
ATOM     23  C   LIG    1       21.713 -20.239   4.670  0.00  0.00    +0.024 C 
ATOM     24  C   LIG    1       23.163 -20.177   6.699  0.00  0.00    +0.024 C 
ENDBRANCH  20  22
ENDBRANCH  19  20
ENDBRANCH  16  19
ENDBRANCH  15  16
ENDBRANCH  14  15
ENDBRANCH   6  14
TORSDOF 9
ENDMDL
MODEL 7
REMARK VINA RESULT:      -2.5      1.155      2.510
REMARK  Name = *****
REMARK                            x       y       z     vdW  Elec       q    Type
REMARK                         _______ _______ _______ _____ _____    ______ ____
ROOT
ATOM      1  C   LIG    1       26.195 -19.852   4.912  0.00  0.00    +0.138 A 
ATOM      2  C   LIG    1       25.602 -18.846   4.100  0.00  0.00    -0.002 A 
ATOM      3  C   LIG    1       24.209 -19.052   3.555  0.00  0.00    +0.048 C 
ATOM      4  C   LIG    1       26.350 -17.679   3.771  0.00  0.00    -0.002 A 
ATOM      5  C   LIG    1       25.825 -16.663   2.784  0.00  0.00    +0.048 C 
ATOM      6  C   LIG    1       27.603 -17.479   4.378  0.00  0.00    +0.124 A 
ATOM      7  C   LIG    1       28.135 -18.484   5.193  0.00  0.00    +0.052 A 
ATOM      8  C   LIG    1       27.475 -19.689   5.448  0.00  0.00    -0.004 A 
ATOM      9  C   LIG    1       28.288 -20.730   6.164  0.00  0.00    +0.048 C 
ENDROOT
BRANCH   1  10
ATOM     10  O   LIG    1       25.544 -21.117   4.943  0.00  0.00    -0.425 OA
BRANCH  10  12
ATOM     11  C   LIG    1       24.471 -21.228   7.043  0.00  0.00    +0.136 C 
ATOM     12  C   LIG    1       24.292 -21.334   5.542  0.00  0.00    +0.309 C 
ATOM     13  O   LIG    1       23.247 -21.572   4.978  0.00  0.00    -0.251 OA
ENDBRANCH  10  12
ENDBRANCH   1  10
BRANCH   6  14
ATOM     14  O   LIG    1       28.268 -16.296   4.129  0.00  0.00    -0.489 OA
BRANCH  14  15
ATOM     15  C   LIG    1       27.525 -15.109   4.448  0.00  0.00    +0.261 C 
BRANCH  15  16
ATOM     16  C   LIG    1       27.620 -14.056   3.347  0.00  0.00    +0.166 C 
BRANCH  16  17
ATOM     17  O   LIG    1       28.855 -13.328   3.406  0.00  0.00    -0.387 OA
ATOM     18  H   LIG    1       29.050 -13.037   2.499  0.00  0.00    +0.210 HD
ENDBRANCH  16  17
BRANCH  16  19
ATOM     19  C   LIG    1       26.449 -13.055   3.452  0.00  0.00    +0.115 C 
BRANCH  19  20
ATOM     20  N   LIG    1       25.702 -13.150   4.729  0.00  0.00    -0.311 NA
ATOM     21  H   LIG    1       25.972 -12.357   5.312  0.00  0.00    +0.122 HD
BRANCH  20  22
ATOM     22  C   LIG    1       24.241 -13.103   4.523  0.00  0.00    +0.048 C 
ATOM     23  C   LIG    1       23.656 -14.488   4.238  0.00  0.00    +0.024 C 
ATOM     24  C   LIG    1       23.907 -12.169   3.351  0.00  0.00    +0.024 C 
ENDBRANCH  20  22
ENDBRANCH  19  20
ENDBRANCH  16  19
ENDBRANCH  15  16
ENDBRANCH  14  15
ENDBRANCH   6  14
TORSDOF 9
ENDMDL
MODEL 8
REMARK VINA RESULT:      -1.9      1.726      2.935
REMARK  Name = *****
REMARK                            x       y       z     vdW  Elec       q    Type
REMARK                         _______ _______ _______ _____ _____    ______ ____
ROOT
ATOM      1  C   LIG    1       23.863 -19.136   4.013  0.00  0.00    +0.138 A 
ATOM      2  C   LIG    1       23.059 -17.982   4.224  0.00  0.00    -0.002 A 
ATOM      3  C   LIG    1       21.608 -18.144   4.608  0.00  0.00    +0.048 C 
ATOM      4  C   LIG    1       23.620 -16.689   4.020  0.00  0.00    -0.002 A 
ATOM      5  C   LIG    1       22.766 -15.444   4.075  0.00  0.00    +0.048 C 
ATOM      6  C   LIG    1       24.999 -16.577   3.762  0.00  0.00    +0.124 A 
ATOM      7  C   LIG    1       25.758 -17.740   3.590  0.00  0.00    +0.052 A 
ATOM      8  C   LIG    1       25.213 -19.025   3.673  0.00  0.00    -0.004 A 
ATOM      9  C   LIG    1       26.127 -20.140   3.250  0.00  0.00    +0.048 C 
ENDROOT
BRANCH   1  10
ATOM     10  O   LIG    1       23.182 -20.382   3.913  0.00  0.00    -0.425 OA
BRANCH  10  12
ATOM     11  C   LIG    1       23.818 -21.219   6.027  0.00  0.00    +0.136 C 
ATOM     12  C   LIG    1       22.691 -21.092   5.021  0.00  0.00    +0.309 C 
ATOM     13  O   LIG    1       21.574 -21.537   5.164  0.00  0.00    -0.251 OA
ENDBRANCH  10  12
ENDBRANCH   1  10
BRANCH   6  14
ATOM     14  O   LIG    1       25.547 -15.315   3.670  0.00  0.00    -0.489 OA
BRANCH  14  15
ATOM     15  C   LIG    1       26.913 -15.283   3.227  0.00  0.00    +0.261 C 
BRANCH  15  16
ATOM     16  C   LIG    1       27.705 -14.153   3.881  0.00  0.00    +0.166 C 
BRANCH  16  17
ATOM     17  O   LIG    1       27.373 -14.000   5.269  0.00  0.00    -0.387 OA
ATOM     18  H   LIG    1       27.409 -14.888   5.663  0.00  0.00    +0.210 HD
ENDBRANCH  16  17
BRANCH  16  19
ATOM     19  C   LIG    1       27.438 -12.815   3.158  0.00  0.00    +0.115 C 
BRANCH  19  20
ATOM     20  N   LIG    1       26.219 -12.829   2.317  0.00  0.00    -0.311 NA
ATOM     21  H   LIG    1       25.844 -13.780   2.321  0.00  0.00    +0.122 HD
BRANCH  20  22
ATOM     22  C   LIG    1       25.179 -11.916   2.829  0.00  0.00    +0.048 C 
ATOM     23  C   LIG    1       24.608 -12.389   4.168  0.00  0.00    +0.024 C 
ATOM     24  C   LIG    1       24.035 -11.801   1.813  0.00  0.00    +0.024 C 
ENDBRANCH  20  22
ENDBRANCH  19  20
ENDBRANCH  16  19
ENDBRANCH  15  16
ENDBRANCH  14  15
ENDBRANCH   6  14
TORSDOF 9
ENDMDL
