MODEL 1
REMARK VINA RESULT:      -5.7      0.000      0.000
REMARK  Name = *****
REMARK                            x       y       z     vdW  Elec       q    Type
REMARK                         _______ _______ _______ _____ _____    ______ ____
ROOT
ATOM      1  C   LIG    1       22.644 -20.110   5.159  0.00  0.00    +0.434 C 
ATOM      2  F   LIG    1       22.735 -19.843   6.494  0.00  0.00    -0.186 F 
ATOM      3  F   LIG    1       21.688 -21.077   5.035  0.00  0.00    -0.186 F 
ENDROOT
BRANCH   1   5
ATOM      4  F   LIG    1       24.488 -21.571   5.398  0.00  0.00    -0.165 F 
ATOM      5  C   LIG    1       23.965 -20.593   4.617  0.00  0.00    +0.463 C 
ATOM      6  F   LIG    1       23.856 -21.110   3.371  0.00  0.00    -0.165 F 
ATOM      7  F   LIG    1       24.893 -19.609   4.558  0.00  0.00    -0.165 F 
ENDBRANCH   1   5
BRANCH   1   8
ATOM      8  C   LIG    1       22.258 -18.872   4.391  0.00  0.00    +0.463 C 
ATOM      9  F   LIG    1       22.287 -17.758   5.158  0.00  0.00    -0.165 F 
ATOM     10  F   LIG    1       20.996 -18.972   3.902  0.00  0.00    -0.165 F 
ATOM     11  F   LIG    1       23.066 -18.645   3.330  0.00  0.00    -0.165 F 
ENDBRANCH   1   8
TORSDOF 2
ENDMDL
MODEL 2
REMARK VINA RESULT:      -5.7      0.007      3.148
REMARK  Name = *****
REMARK                            x       y       z     vdW  Elec       q    Type
REMARK                         _______ _______ _______ _____ _____    ______ ____
ROOT
ATOM      1  C   LIG    1       22.644 -20.113   5.161  0.00  0.00    +0.434 C 
ATOM      2  F   LIG    1       21.689 -21.080   5.036  0.00  0.00    -0.186 F 
ATOM      3  F   LIG    1       22.734 -19.849   6.497  0.00  0.00    -0.186 F 
ENDROOT
BRANCH   1   5
ATOM      4  F   LIG    1       20.997 -18.977   3.900  0.00  0.00    -0.165 F 
ATOM      5  C   LIG    1       22.255 -18.874   4.397  0.00  0.00    +0.463 C 
ATOM      6  F   LIG    1       22.276 -17.762   5.168  0.00  0.00    -0.165 F 
ATOM      7  F   LIG    1       23.069 -18.639   3.340  0.00  0.00    -0.165 F 
ENDBRANCH   1   5
BRANCH   1   8
ATOM      8  C   LIG    1       23.965 -20.592   4.618  0.00  0.00    +0.463 C 
ATOM      9  F   LIG    1       23.855 -21.108   3.372  0.00  0.00    -0.165 F 
ATOM     10  F   LIG    1       24.490 -21.571   5.398  0.00  0.00    -0.165 F 
ATOM     11  F   LIG    1       24.891 -19.607   4.561  0.00  0.00    -0.165 F 
ENDBRANCH   1   8
TORSDOF 2
ENDMDL
MODEL 3
REMARK VINA RESULT:      -5.6      5.602      6.785
REMARK  Name = *****
REMARK                            x       y       z     vdW  Elec       q    Type
REMARK                         _______ _______ _______ _____ _____    ______ ____
ROOT
ATOM      1  C   LIG    1       25.835 -14.466   3.329  0.00  0.00    +0.434 C 
ATOM      2  F   LIG    1       25.683 -15.822   3.327  0.00  0.00    -0.186 F 
ATOM      3  F   LIG    1       26.105 -14.118   2.037  0.00  0.00    -0.186 F 
ENDROOT
BRANCH   1   5
ATOM      4  F   LIG    1       27.906 -15.026   4.324  0.00  0.00    -0.165 F 
ATOM      5  C   LIG    1       26.964 -14.054   4.239  0.00  0.00    +0.463 C 
ATOM      6  F   LIG    1       27.597 -12.939   3.806  0.00  0.00    -0.165 F 
ATOM      7  F   LIG    1       26.547 -13.808   5.503  0.00  0.00    -0.165 F 
ENDBRANCH   1   5
BRANCH   1   8
ATOM      8  C   LIG    1       24.581 -13.787   3.816  0.00  0.00    +0.463 C 
ATOM      9  F   LIG    1       23.944 -14.504   4.771  0.00  0.00    -0.165 F 
ATOM     10  F   LIG    1       23.693 -13.614   2.805  0.00  0.00    -0.165 F 
ATOM     11  F   LIG    1       24.822 -12.561   4.334  0.00  0.00    -0.165 F 
ENDBRANCH   1   8
TORSDOF 2
ENDMDL
MODEL 4
REMARK VINA RESULT:      -5.6      5.601      7.208
REMARK  Name = *****
REMARK                            x       y       z     vdW  Elec       q    Type
REMARK                         _______ _______ _______ _____ _____    ______ ____
ROOT
ATOM      1  C   LIG    1       25.834 -14.466   3.330  0.00  0.00    +0.434 C 
ATOM      2  F   LIG    1       26.103 -14.120   2.037  0.00  0.00    -0.186 F 
ATOM      3  F   LIG    1       25.682 -15.823   3.330  0.00  0.00    -0.186 F 
ENDROOT
BRANCH   1   5
ATOM      4  F   LIG    1       23.692 -13.612   2.806  0.00  0.00    -0.165 F 
ATOM      5  C   LIG    1       24.580 -13.788   3.817  0.00  0.00    +0.463 C 
ATOM      6  F   LIG    1       23.941 -14.504   4.772  0.00  0.00    -0.165 F 
ATOM      7  F   LIG    1       24.821 -12.561   4.335  0.00  0.00    -0.165 F 
ENDBRANCH   1   5
BRANCH   1   8
ATOM      8  C   LIG    1       26.962 -14.053   4.240  0.00  0.00    +0.463 C 
ATOM      9  F   LIG    1       27.594 -12.938   3.806  0.00  0.00    -0.165 F 
ATOM     10  F   LIG    1       27.906 -15.025   4.323  0.00  0.00    -0.165 F 
ATOM     11  F   LIG    1       26.547 -13.809   5.504  0.00  0.00    -0.165 F 
ENDBRANCH   1   8
TORSDOF 2
ENDMDL
MODEL 5
REMARK VINA RESULT:      -5.6      5.665      7.238
REMARK  Name = *****
REMARK                            x       y       z     vdW  Elec       q    Type
REMARK                         _______ _______ _______ _____ _____    ______ ____
ROOT
ATOM      1  C   LIG    1       25.504 -14.157   4.022  0.00  0.00    +0.434 C 
ATOM      2  F   LIG    1       25.621 -15.499   3.803  0.00  0.00    -0.186 F 
ATOM      3  F   LIG    1       26.105 -13.921   5.225  0.00  0.00    -0.186 F 
ENDROOT
BRANCH   1   5
ATOM      4  F   LIG    1       23.310 -14.628   4.769  0.00  0.00    -0.165 F 
ATOM      5  C   LIG    1       24.055 -13.743   4.059  0.00  0.00    +0.463 C 
ATOM      6  F   LIG    1       23.877 -12.534   4.640  0.00  0.00    -0.165 F 
ATOM      7  F   LIG    1       23.503 -13.676   2.825  0.00  0.00    -0.165 F 
ENDBRANCH   1   5
BRANCH   1   8
ATOM      8  C   LIG    1       26.177 -13.375   2.923  0.00  0.00    +0.463 C 
ATOM      9  F   LIG    1       26.389 -14.120   1.814  0.00  0.00    -0.165 F 
ATOM     10  F   LIG    1       27.391 -12.917   3.320  0.00  0.00    -0.165 F 
ATOM     11  F   LIG    1       25.461 -12.291   2.544  0.00  0.00    -0.165 F 
ENDBRANCH   1   8
TORSDOF 2
ENDMDL
MODEL 6
REMARK VINA RESULT:      -5.6      1.188      2.723
REMARK  Name = *****
REMARK                            x       y       z     vdW  Elec       q    Type
REMARK                         _______ _______ _______ _____ _____    ______ ____
ROOT
ATOM      1  C   LIG    1       24.119 -20.293   4.925  0.00  0.00    +0.434 C 
ATOM      2  F   LIG    1       24.427 -21.572   4.559  0.00  0.00    -0.186 F 
ATOM      3  F   LIG    1       25.097 -19.908   5.795  0.00  0.00    -0.186 F 
ENDROOT
BRANCH   1   5
ATOM      4  F   LIG    1       21.815 -20.816   4.807  0.00  0.00    -0.165 F 
ATOM      5  C   LIG    1       22.765 -20.235   5.584  0.00  0.00    +0.463 C 
ATOM      6  F   LIG    1       22.739 -20.881   6.773  0.00  0.00    -0.165 F 
ATOM      7  F   LIG    1       22.353 -18.966   5.812  0.00  0.00    -0.165 F 
ENDBRANCH   1   5
BRANCH   1   8
ATOM      8  C   LIG    1       24.083 -19.387   3.722  0.00  0.00    +0.463 C 
ATOM      9  F   LIG    1       22.990 -18.589   3.708  0.00  0.00    -0.165 F 
ATOM     10  F   LIG    1       24.054 -20.102   2.569  0.00  0.00    -0.165 F 
ATOM     11  F   LIG    1       25.166 -18.579   3.648  0.00  0.00    -0.165 F 
ENDBRANCH   1   8
TORSDOF 2
ENDMDL
MODEL 7
REMARK VINA RESULT:      -5.6      5.754      6.909
REMARK  Name = *****
REMARK                            x       y       z     vdW  Elec       q    Type
REMARK                         _______ _______ _______ _____ _____    ______ ____
ROOT
ATOM      1  C   LIG    1       25.650 -14.165   3.975  0.00  0.00    +0.434 C 
ATOM      2  F   LIG    1       26.240 -13.971   5.190  0.00  0.00    -0.186 F 
ATOM      3  F   LIG    1       25.717 -15.508   3.738  0.00  0.00    -0.186 F 
ENDROOT
BRANCH   1   5
ATOM      4  F   LIG    1       26.612 -14.177   1.814  0.00  0.00    -0.165 F 
ATOM      5  C   LIG    1       26.371 -13.396   2.898  0.00  0.00    +0.463 C 
ATOM      6  F   LIG    1       25.661 -12.332   2.458  0.00  0.00    -0.165 F 
ATOM      7  F   LIG    1       27.573 -12.929   3.311  0.00  0.00    -0.165 F 
ENDBRANCH   1   5
BRANCH   1   8
ATOM      8  C   LIG    1       24.218 -13.695   3.994  0.00  0.00    +0.463 C 
ATOM      9  F   LIG    1       24.096 -12.433   4.469  0.00  0.00    -0.165 F 
ATOM     10  F   LIG    1       23.453 -14.484   4.791  0.00  0.00    -0.165 F 
ATOM     11  F   LIG    1       23.648 -13.716   2.768  0.00  0.00    -0.165 F 
ENDBRANCH   1   8
TORSDOF 2
ENDMDL
MODEL 8
REMARK VINA RESULT:      -5.6      5.589      7.163
REMARK  Name = *****
REMARK                            x       y       z     vdW  Elec       q    Type
REMARK                         _______ _______ _______ _____ _____    ______ ____
ROOT
ATOM      1  C   LIG    1       25.805 -14.465   3.325  0.00  0.00    +0.434 C 
ATOM      2  F   LIG    1       26.073 -14.114   2.033  0.00  0.00    -0.186 F 
ATOM      3  F   LIG    1       25.642 -15.821   3.318  0.00  0.00    -0.186 F 
ENDROOT
BRANCH   1   5
ATOM      4  F   LIG    1       23.953 -14.505   4.795  0.00  0.00    -0.165 F 
ATOM      5  C   LIG    1       24.558 -13.780   3.820  0.00  0.00    +0.463 C 
ATOM      6  F   LIG    1       24.812 -12.560   4.348  0.00  0.00    -0.165 F 
ATOM      7  F   LIG    1       23.638 -13.606   2.842  0.00  0.00    -0.165 F 
ENDBRANCH   1   5
BRANCH   1   8
ATOM      8  C   LIG    1       26.940 -14.067   4.233  0.00  0.00    +0.463 C 
ATOM      9  F   LIG    1       26.525 -13.809   5.495  0.00  0.00    -0.165 F 
ATOM     10  F   LIG    1       27.551 -12.939   3.789  0.00  0.00    -0.165 F 
ATOM     11  F   LIG    1       27.898 -15.018   4.316  0.00  0.00    -0.165 F 
ENDBRANCH   1   8
TORSDOF 2
ENDMDL
MODEL 9
REMARK VINA RESULT:      -5.6      1.035      2.446
REMARK  Name = *****
REMARK                            x       y       z     vdW  Elec       q    Type
REMARK                         _______ _______ _______ _____ _____    ______ ____
ROOT
ATOM      1  C   LIG    1       23.770 -19.520   4.064  0.00  0.00    +0.434 C 
ATOM      2  F   LIG    1       23.695 -20.025   2.798  0.00  0.00    -0.186 F 
ATOM      3  F   LIG    1       24.123 -18.209   3.923  0.00  0.00    -0.186 F 
ENDROOT
BRANCH   1   5
ATOM      4  F   LIG    1       26.030 -19.720   4.731  0.00  0.00    -0.165 F 
ATOM      5  C   LIG    1       24.795 -20.264   4.879  0.00  0.00    +0.463 C 
ATOM      6  F   LIG    1       24.519 -20.241   6.204  0.00  0.00    -0.165 F 
ATOM      7  F   LIG    1       24.901 -21.564   4.518  0.00  0.00    -0.165 F 
ENDBRANCH   1   5
BRANCH   1   8
ATOM      8  C   LIG    1       22.444 -19.645   4.768  0.00  0.00    +0.463 C 
ATOM      9  F   LIG    1       22.498 -19.219   6.051  0.00  0.00    -0.165 F 
ATOM     10  F   LIG    1       22.029 -20.937   4.807  0.00  0.00    -0.165 F 
ATOM     11  F   LIG    1       21.462 -18.943   4.157  0.00  0.00    -0.165 F 
ENDBRANCH   1   8
TORSDOF 2
ENDMDL
