MODEL 1
REMARK VINA RESULT:      -7.8      0.000      0.000
REMARK  Name = *****
REMARK                            x       y       z     vdW  Elec       q    Type
REMARK                         _______ _______ _______ _____ _____    ______ ____
ROOT
ATOM      1  C   LIG    1       25.482 -29.839   7.753  0.00  0.00    +0.241 A 
ATOM      2  C   LIG    1       25.718 -30.797   6.787  0.00  0.00    +0.119 A 
ATOM      3 BR   LIG    1       26.421 -32.506   7.193  0.00  0.00    -0.041 Br
ATOM      4  C   LIG    1       25.347 -30.438   5.505  0.00  0.00    +0.139 A 
ATOM      5  N   LIG    1       24.863 -29.224   5.204  0.00  0.00    -0.198 NA
ATOM      6  C   LIG    1       24.724 -28.333   6.195  0.00  0.00    +0.224 A 
ATOM      7  N   LIG    1       25.034 -28.594   7.473  0.00  0.00    -0.178 NA
ENDROOT
BRANCH   4   8
ATOM      8  N   LIG    1       25.337 -31.339   4.439  0.00  0.00    -0.342 N 
ATOM      9  H   LIG    1       25.460 -32.301   4.730  0.00  0.00    +0.144 HD
ATOM     10  H   LIG    1       26.035 -31.038   3.761  0.00  0.00    +0.144 HD
ENDBRANCH   4   8
BRANCH   6  11
ATOM     11  N   LIG    1       24.086 -27.119   5.953  0.00  0.00    -0.283 N 
ATOM     12  H   LIG    1       23.115 -27.283   5.726  0.00  0.00    +0.155 HD
BRANCH  11  13
ATOM     13  C   LIG    1       24.405 -25.810   6.342  0.00  0.00    +0.034 A 
ATOM     14  C   LIG    1       25.710 -25.394   6.624  0.00  0.00    +0.024 A 
ATOM     15  C   LIG    1       25.970 -24.095   7.080  0.00  0.00    +0.021 A 
ATOM     16  C   LIG    1       24.932 -23.171   7.203  0.00  0.00    +0.052 A 
ATOM     17  C   LIG    1       23.637 -23.543   6.837  0.00  0.00    +0.021 A 
ATOM     18  C   LIG    1       23.379 -24.854   6.414  0.00  0.00    +0.024 A 
BRANCH  16  19
ATOM     19  C   LIG    1       25.196 -21.860   7.716  0.00  0.00    +0.099 C 
ATOM     20  N   LIG    1       25.392 -20.796   8.143  0.00  0.00    -0.191 NA
ENDBRANCH  16  19
ENDBRANCH  11  13
ENDBRANCH   6  11
BRANCH   1  21
ATOM     21  O   LIG    1       25.628 -30.226   9.091  0.00  0.00    -0.436 OA
BRANCH  21  24
ATOM     22  C   LIG    1       23.128 -31.977   8.927  0.00  0.00    +0.048 C 
ATOM     23  C   LIG    1       23.344 -30.801   9.841  0.00  0.00    -0.007 A 
ATOM     24  C   LIG    1       24.559 -30.094   9.959  0.00  0.00    +0.136 A 
ATOM     25  C   LIG    1       24.761 -29.279  11.094  0.00  0.00    -0.007 A 
ATOM     26  C   LIG    1       26.107 -28.716  11.471  0.00  0.00    +0.048 C 
ATOM     27  C   LIG    1       23.679 -28.994  11.950  0.00  0.00    +0.025 A 
ATOM     28  C   LIG    1       22.420 -29.542  11.711  0.00  0.00    +0.052 A 
ATOM     29  C   LIG    1       22.263 -30.450  10.668  0.00  0.00    +0.025 A 
BRANCH  28  30
ATOM     30  C   LIG    1       21.312 -29.245  12.563  0.00  0.00    +0.099 C 
ATOM     31  N   LIG    1       20.421 -28.982  13.269  0.00  0.00    -0.191 NA
ENDBRANCH  28  30
ENDBRANCH  21  24
ENDBRANCH   1  21
TORSDOF 7
ENDMDL
MODEL 2
REMARK VINA RESULT:      -7.6      4.531      9.401
REMARK  Name = *****
REMARK                            x       y       z     vdW  Elec       q    Type
REMARK                         _______ _______ _______ _____ _____    ______ ____
ROOT
ATOM      1  C   LIG    1       25.293 -21.917   6.279  0.00  0.00    +0.241 A 
ATOM      2  C   LIG    1       23.916 -21.888   6.383  0.00  0.00    +0.119 A 
ATOM      3 BR   LIG    1       22.921 -20.280   6.335  0.00  0.00    -0.041 Br
ATOM      4  C   LIG    1       23.310 -23.128   6.463  0.00  0.00    +0.139 A 
ATOM      5  N   LIG    1       24.006 -24.272   6.514  0.00  0.00    -0.198 NA
ATOM      6  C   LIG    1       25.343 -24.204   6.470  0.00  0.00    +0.224 A 
ATOM      7  N   LIG    1       26.022 -23.052   6.369  0.00  0.00    -0.178 NA
ENDROOT
BRANCH   4   8
ATOM      8  N   LIG    1       21.927 -23.302   6.385  0.00  0.00    -0.342 N 
ATOM      9  H   LIG    1       21.602 -24.127   6.875  0.00  0.00    +0.144 HD
ATOM     10  H   LIG    1       21.659 -23.293   5.404  0.00  0.00    +0.144 HD
ENDBRANCH   4   8
BRANCH   6  11
ATOM     11  N   LIG    1       26.096 -25.372   6.368  0.00  0.00    -0.283 N 
ATOM     12  H   LIG    1       27.031 -25.206   6.715  0.00  0.00    +0.155 HD
BRANCH  11  13
ATOM     13  C   LIG    1       25.714 -26.717   6.273  0.00  0.00    +0.034 A 
ATOM     14  C   LIG    1       25.363 -27.328   5.064  0.00  0.00    +0.024 A 
ATOM     15  C   LIG    1       24.917 -28.655   5.029  0.00  0.00    +0.021 A 
ATOM     16  C   LIG    1       24.871 -29.414   6.201  0.00  0.00    +0.052 A 
ATOM     17  C   LIG    1       25.306 -28.847   7.400  0.00  0.00    +0.021 A 
ATOM     18  C   LIG    1       25.719 -27.508   7.432  0.00  0.00    +0.024 A 
BRANCH  16  19
ATOM     19  C   LIG    1       24.368 -30.754   6.167  0.00  0.00    +0.099 C 
ATOM     20  N   LIG    1       23.939 -31.835   6.140  0.00  0.00    -0.191 NA
ENDBRANCH  16  19
ENDBRANCH  11  13
ENDBRANCH   6  11
BRANCH   1  21
ATOM     21  O   LIG    1       25.939 -20.713   5.972  0.00  0.00    -0.436 OA
BRANCH  21  24
ATOM     22  C   LIG    1       28.128 -19.087   4.591  0.00  0.00    +0.048 C 
ATOM     23  C   LIG    1       28.226 -19.775   5.925  0.00  0.00    -0.007 A 
ATOM     24  C   LIG    1       27.151 -20.420   6.572  0.00  0.00    +0.136 A 
ATOM     25  C   LIG    1       27.254 -20.687   7.954  0.00  0.00    -0.007 A 
ATOM     26  C   LIG    1       26.077 -21.097   8.802  0.00  0.00    +0.048 C 
ATOM     27  C   LIG    1       28.496 -20.536   8.604  0.00  0.00    +0.025 A 
ATOM     28  C   LIG    1       29.613 -20.085   7.904  0.00  0.00    +0.052 A 
ATOM     29  C   LIG    1       29.470 -19.696   6.575  0.00  0.00    +0.025 A 
BRANCH  28  30
ATOM     30  C   LIG    1       30.881 -19.946   8.550  0.00  0.00    +0.099 C 
ATOM     31  N   LIG    1       31.923 -19.853   9.065  0.00  0.00    -0.191 NA
ENDBRANCH  28  30
ENDBRANCH  21  24
ENDBRANCH   1  21
TORSDOF 7
ENDMDL
MODEL 3
REMARK VINA RESULT:      -7.5      1.733      2.363
REMARK  Name = *****
REMARK                            x       y       z     vdW  Elec       q    Type
REMARK                         _______ _______ _______ _____ _____    ______ ____
ROOT
ATOM      1  C   LIG    1       25.530 -29.316   8.436  0.00  0.00    +0.241 A 
ATOM      2  C   LIG    1       24.732 -29.959   7.510  0.00  0.00    +0.119 A 
ATOM      3 BR   LIG    1       24.056 -31.704   7.780  0.00  0.00    -0.041 Br
ATOM      4  C   LIG    1       24.412 -29.209   6.393  0.00  0.00    +0.139 A 
ATOM      5  N   LIG    1       24.900 -27.978   6.184  0.00  0.00    -0.198 NA
ATOM      6  C   LIG    1       25.718 -27.454   7.106  0.00  0.00    +0.224 A 
ATOM      7  N   LIG    1       26.068 -28.092   8.232  0.00  0.00    -0.178 NA
ENDROOT
BRANCH   4   8
ATOM      8  N   LIG    1       23.472 -29.622   5.447  0.00  0.00    -0.342 N 
ATOM      9  H   LIG    1       23.588 -30.588   5.166  0.00  0.00    +0.144 HD
ATOM     10  H   LIG    1       23.505 -28.975   4.663  0.00  0.00    +0.144 HD
ENDBRANCH   4   8
BRANCH   6  11
ATOM     11  N   LIG    1       26.123 -26.125   7.002  0.00  0.00    -0.283 N 
ATOM     12  H   LIG    1       27.077 -26.085   6.669  0.00  0.00    +0.155 HD
BRANCH  11  13
ATOM     13  C   LIG    1       25.388 -24.938   6.882  0.00  0.00    +0.034 A 
ATOM     14  C   LIG    1       24.016 -24.914   6.609  0.00  0.00    +0.024 A 
ATOM     15  C   LIG    1       23.338 -23.702   6.424  0.00  0.00    +0.021 A 
ATOM     16  C   LIG    1       24.013 -22.489   6.571  0.00  0.00    +0.052 A 
ATOM     17  C   LIG    1       25.361 -22.495   6.935  0.00  0.00    +0.021 A 
ATOM     18  C   LIG    1       26.040 -23.712   7.083  0.00  0.00    +0.024 A 
BRANCH  16  19
ATOM     19  C   LIG    1       23.327 -21.254   6.334  0.00  0.00    +0.099 C 
ATOM     20  N   LIG    1       22.788 -20.241   6.140  0.00  0.00    -0.191 NA
ENDBRANCH  16  19
ENDBRANCH  11  13
ENDBRANCH   6  11
BRANCH   1  21
ATOM     21  O   LIG    1       25.701 -29.938   9.678  0.00  0.00    -0.436 OA
BRANCH  21  24
ATOM     22  C   LIG    1       22.887 -30.339  10.804  0.00  0.00    +0.048 C 
ATOM     23  C   LIG    1       23.927 -29.374  11.305  0.00  0.00    -0.007 A 
ATOM     24  C   LIG    1       25.251 -29.305  10.824  0.00  0.00    +0.136 A 
ATOM     25  C   LIG    1       26.224 -28.648  11.608  0.00  0.00    -0.007 A 
ATOM     26  C   LIG    1       27.704 -28.762  11.345  0.00  0.00    +0.048 C 
ATOM     27  C   LIG    1       25.822 -27.874  12.714  0.00  0.00    +0.025 A 
ATOM     28  C   LIG    1       24.477 -27.784  13.068  0.00  0.00    +0.052 A 
ATOM     29  C   LIG    1       23.540 -28.543  12.371  0.00  0.00    +0.025 A 
BRANCH  28  30
ATOM     30  C   LIG    1       24.058 -26.987  14.177  0.00  0.00    +0.099 C 
ATOM     31  N   LIG    1       23.736 -26.322  15.080  0.00  0.00    -0.191 NA
ENDBRANCH  28  30
ENDBRANCH  21  24
ENDBRANCH   1  21
TORSDOF 7
ENDMDL
MODEL 4
REMARK VINA RESULT:      -7.5      4.992      8.792
REMARK  Name = *****
REMARK                            x       y       z     vdW  Elec       q    Type
REMARK                         _______ _______ _______ _____ _____    ______ ____
ROOT
ATOM      1  C   LIG    1       24.881 -20.900   5.785  0.00  0.00    +0.241 A 
ATOM      2  C   LIG    1       24.040 -20.167   4.972  0.00  0.00    +0.119 A 
ATOM      3 BR   LIG    1       22.161 -20.383   4.987  0.00  0.00    -0.041 Br
ATOM      4  C   LIG    1       24.666 -19.217   4.187  0.00  0.00    +0.139 A 
ATOM      5  N   LIG    1       25.998 -19.067   4.157  0.00  0.00    -0.198 NA
ATOM      6  C   LIG    1       26.745 -19.864   4.933  0.00  0.00    +0.224 A 
ATOM      7  N   LIG    1       26.230 -20.798   5.745  0.00  0.00    -0.178 NA
ENDROOT
BRANCH   4   8
ATOM      8  N   LIG    1       23.966 -18.263   3.447  0.00  0.00    -0.342 N 
ATOM      9  H   LIG    1       24.561 -17.533   3.074  0.00  0.00    +0.144 HD
ATOM     10  H   LIG    1       23.212 -17.901   4.026  0.00  0.00    +0.144 HD
ENDBRANCH   4   8
BRANCH   6  11
ATOM     11  N   LIG    1       28.115 -19.640   5.046  0.00  0.00    -0.283 N 
ATOM     12  H   LIG    1       28.482 -19.318   4.161  0.00  0.00    +0.155 HD
BRANCH  11  13
ATOM     13  C   LIG    1       28.926 -19.398   6.163  0.00  0.00    +0.034 A 
ATOM     14  C   LIG    1       28.487 -19.577   7.479  0.00  0.00    +0.024 A 
ATOM     15  C   LIG    1       29.310 -19.252   8.565  0.00  0.00    +0.021 A 
ATOM     16  C   LIG    1       30.611 -18.795   8.350  0.00  0.00    +0.052 A 
ATOM     17  C   LIG    1       31.096 -18.699   7.044  0.00  0.00    +0.021 A 
ATOM     18  C   LIG    1       30.255 -18.994   5.962  0.00  0.00    +0.024 A 
BRANCH  16  19
ATOM     19  C   LIG    1       31.431 -18.418   9.462  0.00  0.00    +0.099 C 
ATOM     20  N   LIG    1       32.096 -18.090  10.359  0.00  0.00    -0.191 NA
ENDBRANCH  16  19
ENDBRANCH  11  13
ENDBRANCH   6  11
BRANCH   1  21
ATOM     21  O   LIG    1       24.287 -21.715   6.757  0.00  0.00    -0.436 OA
BRANCH  21  24
ATOM     22  C   LIG    1       26.961 -22.900   7.643  0.00  0.00    +0.048 C 
ATOM     23  C   LIG    1       25.801 -23.648   7.044  0.00  0.00    -0.007 A 
ATOM     24  C   LIG    1       24.545 -23.074   6.756  0.00  0.00    +0.136 A 
ATOM     25  C   LIG    1       23.438 -23.928   6.563  0.00  0.00    -0.007 A 
ATOM     26  C   LIG    1       22.014 -23.435   6.540  0.00  0.00    +0.048 C 
ATOM     27  C   LIG    1       23.643 -25.315   6.420  0.00  0.00    +0.025 A 
ATOM     28  C   LIG    1       24.924 -25.857   6.508  0.00  0.00    +0.052 A 
ATOM     29  C   LIG    1       25.992 -25.024   6.832  0.00  0.00    +0.025 A 
BRANCH  28  30
ATOM     30  C   LIG    1       25.144 -27.260   6.347  0.00  0.00    +0.099 C 
ATOM     31  N   LIG    1       25.302 -28.409   6.227  0.00  0.00    -0.191 NA
ENDBRANCH  28  30
ENDBRANCH  21  24
ENDBRANCH   1  21
TORSDOF 7
ENDMDL
MODEL 5
REMARK VINA RESULT:      -7.3      1.123      2.014
REMARK  Name = *****
REMARK                            x       y       z     vdW  Elec       q    Type
REMARK                         _______ _______ _______ _____ _____    ______ ____
ROOT
ATOM      1  C   LIG    1       25.082 -30.379   7.817  0.00  0.00    +0.241 A 
ATOM      2  C   LIG    1       25.545 -31.218   6.823  0.00  0.00    +0.119 A 
ATOM      3 BR   LIG    1       26.195 -32.959   7.176  0.00  0.00    -0.041 Br
ATOM      4  C   LIG    1       25.441 -30.716   5.539  0.00  0.00    +0.139 A 
ATOM      5  N   LIG    1       24.997 -29.478   5.279  0.00  0.00    -0.198 NA
ATOM      6  C   LIG    1       24.627 -28.707   6.310  0.00  0.00    +0.224 A 
ATOM      7  N   LIG    1       24.668 -29.112   7.588  0.00  0.00    -0.178 NA
ENDROOT
BRANCH   4   8
ATOM      8  N   LIG    1       25.683 -31.488   4.401  0.00  0.00    -0.342 N 
ATOM      9  H   LIG    1       24.881 -31.547   3.784  0.00  0.00    +0.144 HD
ATOM     10  H   LIG    1       26.019 -32.401   4.701  0.00  0.00    +0.144 HD
ENDBRANCH   4   8
BRANCH   6  11
ATOM     11  N   LIG    1       24.019 -27.476   6.076  0.00  0.00    -0.283 N 
ATOM     12  H   LIG    1       23.020 -27.601   5.989  0.00  0.00    +0.155 HD
BRANCH  11  13
ATOM     13  C   LIG    1       24.447 -26.167   6.333  0.00  0.00    +0.034 A 
ATOM     14  C   LIG    1       25.789 -25.826   6.530  0.00  0.00    +0.024 A 
ATOM     15  C   LIG    1       26.161 -24.516   6.857  0.00  0.00    +0.021 A 
ATOM     16  C   LIG    1       25.198 -23.509   6.934  0.00  0.00    +0.052 A 
ATOM     17  C   LIG    1       23.865 -23.814   6.648  0.00  0.00    +0.021 A 
ATOM     18  C   LIG    1       23.496 -25.134   6.355  0.00  0.00    +0.024 A 
BRANCH  16  19
ATOM     19  C   LIG    1       25.577 -22.182   7.316  0.00  0.00    +0.099 C 
ATOM     20  N   LIG    1       25.865 -21.097   7.621  0.00  0.00    -0.191 NA
ENDBRANCH  16  19
ENDBRANCH  11  13
ENDBRANCH   6  11
BRANCH   1  21
ATOM     21  O   LIG    1       24.955 -30.916   9.104  0.00  0.00    -0.436 OA
BRANCH  21  24
ATOM     22  C   LIG    1       27.059 -28.862   9.938  0.00  0.00    +0.048 C 
ATOM     23  C   LIG    1       25.785 -29.191  10.667  0.00  0.00    -0.007 A 
ATOM     24  C   LIG    1       24.791 -30.066  10.183  0.00  0.00    +0.136 A 
ATOM     25  C   LIG    1       23.499 -30.004  10.749  0.00  0.00    -0.007 A 
ATOM     26  C   LIG    1       22.298 -30.670  10.129  0.00  0.00    +0.048 C 
ATOM     27  C   LIG    1       23.288 -29.261  11.928  0.00  0.00    +0.025 A 
ATOM     28  C   LIG    1       24.334 -28.553  12.518  0.00  0.00    +0.052 A 
ATOM     29  C   LIG    1       25.570 -28.511  11.879  0.00  0.00    +0.025 A 
BRANCH  28  30
ATOM     30  C   LIG    1       24.134 -27.812  13.723  0.00  0.00    +0.099 C 
ATOM     31  N   LIG    1       23.950 -27.197  14.697  0.00  0.00    -0.191 NA
ENDBRANCH  28  30
ENDBRANCH  21  24
ENDBRANCH   1  21
TORSDOF 7
ENDMDL
MODEL 6
REMARK VINA RESULT:      -7.1      5.929      9.912
REMARK  Name = *****
REMARK                            x       y       z     vdW  Elec       q    Type
REMARK                         _______ _______ _______ _____ _____    ______ ____
ROOT
ATOM      1  C   LIG    1       26.635 -20.130   5.790  0.00  0.00    +0.241 A 
ATOM      2  C   LIG    1       26.623 -19.182   4.787  0.00  0.00    +0.119 A 
ATOM      3 BR   LIG    1       25.107 -18.863   3.701  0.00  0.00    -0.041 Br
ATOM      4  C   LIG    1       27.782 -18.436   4.672  0.00  0.00    +0.139 A 
ATOM      5  N   LIG    1       28.867 -18.665   5.426  0.00  0.00    -0.198 NA
ATOM      6  C   LIG    1       28.813 -19.648   6.334  0.00  0.00    +0.224 A 
ATOM      7  N   LIG    1       27.728 -20.410   6.537  0.00  0.00    -0.178 NA
ENDROOT
BRANCH   4   8
ATOM      8  N   LIG    1       27.884 -17.316   3.846  0.00  0.00    -0.342 N 
ATOM      9  H   LIG    1       28.460 -16.582   4.242  0.00  0.00    +0.144 HD
ATOM     10  H   LIG    1       26.944 -17.002   3.618  0.00  0.00    +0.144 HD
ENDBRANCH   4   8
BRANCH   6  11
ATOM     11  N   LIG    1       29.860 -19.818   7.238  0.00  0.00    -0.283 N 
ATOM     12  H   LIG    1       30.442 -20.590   6.943  0.00  0.00    +0.155 HD
BRANCH  11  13
ATOM     13  C   LIG    1       30.441 -18.938   8.160  0.00  0.00    +0.034 A 
ATOM     14  C   LIG    1       31.757 -18.476   8.051  0.00  0.00    +0.024 A 
ATOM     15  C   LIG    1       32.318 -17.655   9.037  0.00  0.00    +0.021 A 
ATOM     16  C   LIG    1       31.549 -17.233  10.123  0.00  0.00    +0.052 A 
ATOM     17  C   LIG    1       30.206 -17.609  10.198  0.00  0.00    +0.021 A 
ATOM     18  C   LIG    1       29.662 -18.459   9.226  0.00  0.00    +0.024 A 
BRANCH  16  19
ATOM     19  C   LIG    1       32.141 -16.434  11.153  0.00  0.00    +0.099 C 
ATOM     20  N   LIG    1       32.638 -15.800  11.993  0.00  0.00    -0.191 NA
ENDBRANCH  16  19
ENDBRANCH  11  13
ENDBRANCH   6  11
BRANCH   1  21
ATOM     21  O   LIG    1       25.421 -20.757   6.097  0.00  0.00    -0.436 OA
BRANCH  21  24
ATOM     22  C   LIG    1       25.942 -22.168   8.758  0.00  0.00    +0.048 C 
ATOM     23  C   LIG    1       25.731 -22.822   7.419  0.00  0.00    -0.007 A 
ATOM     24  C   LIG    1       25.382 -22.132   6.240  0.00  0.00    +0.136 A 
ATOM     25  C   LIG    1       24.845 -22.866   5.159  0.00  0.00    -0.007 A 
ATOM     26  C   LIG    1       24.174 -22.215   3.978  0.00  0.00    +0.048 C 
ATOM     27  C   LIG    1       24.894 -24.274   5.179  0.00  0.00    +0.025 A 
ATOM     28  C   LIG    1       25.429 -24.951   6.274  0.00  0.00    +0.052 A 
ATOM     29  C   LIG    1       25.832 -24.224   7.390  0.00  0.00    +0.025 A 
BRANCH  28  30
ATOM     30  C   LIG    1       25.498 -26.378   6.296  0.00  0.00    +0.099 C 
ATOM     31  N   LIG    1       25.549 -27.544   6.289  0.00  0.00    -0.191 NA
ENDBRANCH  28  30
ENDBRANCH  21  24
ENDBRANCH   1  21
TORSDOF 7
ENDMDL
MODEL 7
REMARK VINA RESULT:      -6.7      2.449      3.571
REMARK  Name = *****
REMARK                            x       y       z     vdW  Elec       q    Type
REMARK                         _______ _______ _______ _____ _____    ______ ____
ROOT
ATOM      1  C   LIG    1       25.587 -31.021   9.951  0.00  0.00    +0.241 A 
ATOM      2  C   LIG    1       24.562 -31.936   9.816  0.00  0.00    +0.119 A 
ATOM      3 BR   LIG    1       23.994 -33.052  11.233  0.00  0.00    -0.041 Br
ATOM      4  C   LIG    1       23.937 -31.936   8.582  0.00  0.00    +0.139 A 
ATOM      5  N   LIG    1       24.342 -31.161   7.566  0.00  0.00    -0.198 NA
ATOM      6  C   LIG    1       25.387 -30.346   7.765  0.00  0.00    +0.224 A 
ATOM      7  N   LIG    1       26.043 -30.257   8.932  0.00  0.00    -0.178 NA
ENDROOT
BRANCH   4   8
ATOM      8  N   LIG    1       22.769 -32.654   8.324  0.00  0.00    -0.342 N 
ATOM      9  H   LIG    1       22.922 -33.655   8.268  0.00  0.00    +0.144 HD
ATOM     10  H   LIG    1       22.338 -32.272   7.486  0.00  0.00    +0.144 HD
ENDBRANCH   4   8
BRANCH   6  11
ATOM     11  N   LIG    1       25.742 -29.418   6.789  0.00  0.00    -0.283 N 
ATOM     12  H   LIG    1       25.989 -29.900   5.936  0.00  0.00    +0.155 HD
BRANCH  11  13
ATOM     13  C   LIG    1       25.444 -28.056   6.652  0.00  0.00    +0.034 A 
ATOM     14  C   LIG    1       26.199 -27.044   7.254  0.00  0.00    +0.024 A 
ATOM     15  C   LIG    1       25.819 -25.700   7.149  0.00  0.00    +0.021 A 
ATOM     16  C   LIG    1       24.707 -25.340   6.386  0.00  0.00    +0.052 A 
ATOM     17  C   LIG    1       23.997 -26.330   5.702  0.00  0.00    +0.021 A 
ATOM     18  C   LIG    1       24.363 -27.675   5.840  0.00  0.00    +0.024 A 
BRANCH  16  19
ATOM     19  C   LIG    1       24.295 -23.970   6.321  0.00  0.00    +0.099 C 
ATOM     20  N   LIG    1       23.952 -22.859   6.290  0.00  0.00    -0.191 NA
ENDBRANCH  16  19
ENDBRANCH  11  13
ENDBRANCH   6  11
BRANCH   1  21
ATOM     21  O   LIG    1       26.104 -30.821  11.237  0.00  0.00    -0.436 OA
BRANCH  21  24
ATOM     22  C   LIG    1       23.625 -29.860  12.743  0.00  0.00    +0.048 C 
ATOM     23  C   LIG    1       24.849 -29.048  12.417  0.00  0.00    -0.007 A 
ATOM     24  C   LIG    1       26.015 -29.569  11.819  0.00  0.00    +0.136 A 
ATOM     25  C   LIG    1       27.213 -28.826  11.910  0.00  0.00    -0.007 A 
ATOM     26  C   LIG    1       28.564 -29.403  11.573  0.00  0.00    +0.048 C 
ATOM     27  C   LIG    1       27.176 -27.495  12.371  0.00  0.00    +0.025 A 
ATOM     28  C   LIG    1       25.974 -26.917  12.776  0.00  0.00    +0.052 A 
ATOM     29  C   LIG    1       24.822 -27.699  12.809  0.00  0.00    +0.025 A 
BRANCH  28  30
ATOM     30  C   LIG    1       25.923 -25.562  13.228  0.00  0.00    +0.099 C 
ATOM     31  N   LIG    1       25.864 -24.463  13.613  0.00  0.00    -0.191 NA
ENDBRANCH  28  30
ENDBRANCH  21  24
ENDBRANCH   1  21
TORSDOF 7
ENDMDL
MODEL 8
REMARK VINA RESULT:      -6.6      3.044      4.748
REMARK  Name = *****
REMARK                            x       y       z     vdW  Elec       q    Type
REMARK                         _______ _______ _______ _____ _____    ______ ____
ROOT
ATOM      1  C   LIG    1       25.657 -29.351  12.097  0.00  0.00    +0.241 A 
ATOM      2  C   LIG    1       26.950 -29.345  12.581  0.00  0.00    +0.119 A 
ATOM      3 BR   LIG    1       27.349 -29.443  14.428  0.00  0.00    -0.041 Br
ATOM      4  C   LIG    1       27.937 -29.322  11.614  0.00  0.00    +0.139 A 
ATOM      5  N   LIG    1       27.665 -29.236  10.304  0.00  0.00    -0.198 NA
ATOM      6  C   LIG    1       26.381 -29.184   9.924  0.00  0.00    +0.224 A 
ATOM      7  N   LIG    1       25.353 -29.224  10.784  0.00  0.00    -0.178 NA
ENDROOT
BRANCH   4   8
ATOM      8  N   LIG    1       29.290 -29.499  11.907  0.00  0.00    -0.342 N 
ATOM      9  H   LIG    1       29.808 -28.629  11.932  0.00  0.00    +0.144 HD
ATOM     10  H   LIG    1       29.674 -30.171  11.246  0.00  0.00    +0.144 HD
ENDBRANCH   4   8
BRANCH   6  11
ATOM     11  N   LIG    1       26.052 -29.247   8.572  0.00  0.00    -0.283 N 
ATOM     12  H   LIG    1       25.735 -30.179   8.342  0.00  0.00    +0.155 HD
BRANCH  11  13
ATOM     13  C   LIG    1       25.712 -28.246   7.652  0.00  0.00    +0.034 A 
ATOM     14  C   LIG    1       24.749 -28.422   6.653  0.00  0.00    +0.024 A 
ATOM     15  C   LIG    1       24.495 -27.418   5.711  0.00  0.00    +0.021 A 
ATOM     16  C   LIG    1       25.161 -26.193   5.789  0.00  0.00    +0.052 A 
ATOM     17  C   LIG    1       26.057 -25.968   6.836  0.00  0.00    +0.021 A 
ATOM     18  C   LIG    1       26.331 -26.991   7.755  0.00  0.00    +0.024 A 
BRANCH  16  19
ATOM     19  C   LIG    1       24.933 -25.188   4.795  0.00  0.00    +0.099 C 
ATOM     20  N   LIG    1       24.736 -24.387   3.975  0.00  0.00    -0.191 NA
ENDBRANCH  16  19
ENDBRANCH  11  13
ENDBRANCH   6  11
BRANCH   1  21
ATOM     21  O   LIG    1       24.628 -29.597  13.014  0.00  0.00    -0.436 OA
BRANCH  21  24
ATOM     22  C   LIG    1       24.770 -26.584  13.505  0.00  0.00    +0.048 C 
ATOM     23  C   LIG    1       23.523 -27.413  13.356  0.00  0.00    -0.007 A 
ATOM     24  C   LIG    1       23.510 -28.782  13.018  0.00  0.00    +0.136 A 
ATOM     25  C   LIG    1       22.310 -29.350  12.538  0.00  0.00    -0.007 A 
ATOM     26  C   LIG    1       22.248 -30.704  11.879  0.00  0.00    +0.048 C 
ATOM     27  C   LIG    1       21.106 -28.623  12.633  0.00  0.00    +0.025 A 
ATOM     28  C   LIG    1       21.096 -27.332  13.159  0.00  0.00    +0.052 A 
ATOM     29  C   LIG    1       22.303 -26.731  13.505  0.00  0.00    +0.025 A 
BRANCH  28  30
ATOM     30  C   LIG    1       19.878 -26.594  13.276  0.00  0.00    +0.099 C 
ATOM     31  N   LIG    1       18.871 -26.013  13.368  0.00  0.00    -0.191 NA
ENDBRANCH  28  30
ENDBRANCH  21  24
ENDBRANCH   1  21
TORSDOF 7
ENDMDL
MODEL 9
REMARK VINA RESULT:      -6.5      3.117      5.118
REMARK  Name = *****
REMARK                            x       y       z     vdW  Elec       q    Type
REMARK                         _______ _______ _______ _____ _____    ______ ____
ROOT
ATOM      1  C   LIG    1       23.832 -30.558  11.869  0.00  0.00    +0.241 A 
ATOM      2  C   LIG    1       22.491 -30.871  11.772  0.00  0.00    +0.119 A 
ATOM      3 BR   LIG    1       21.374 -31.063  13.287  0.00  0.00    -0.041 Br
ATOM      4  C   LIG    1       22.006 -30.973  10.481  0.00  0.00    +0.139 A 
ATOM      5  N   LIG    1       22.792 -30.855   9.402  0.00  0.00    -0.198 NA
ATOM      6  C   LIG    1       24.096 -30.613   9.589  0.00  0.00    +0.224 A 
ATOM      7  N   LIG    1       24.656 -30.473  10.800  0.00  0.00    -0.178 NA
ENDROOT
BRANCH   4   8
ATOM      8  N   LIG    1       20.647 -31.097  10.190  0.00  0.00    -0.342 N 
ATOM      9  H   LIG    1       20.471 -31.494   9.274  0.00  0.00    +0.144 HD
ATOM     10  H   LIG    1       20.210 -30.187  10.317  0.00  0.00    +0.144 HD
ENDBRANCH   4   8
BRANCH   6  11
ATOM     11  N   LIG    1       24.916 -30.332   8.498  0.00  0.00    -0.283 N 
ATOM     12  H   LIG    1       25.251 -31.196   8.093  0.00  0.00    +0.155 HD
BRANCH  11  13
ATOM     13  C   LIG    1       25.013 -29.200   7.678  0.00  0.00    +0.034 A 
ATOM     14  C   LIG    1       25.892 -28.143   7.937  0.00  0.00    +0.024 A 
ATOM     15  C   LIG    1       25.902 -26.998   7.131  0.00  0.00    +0.021 A 
ATOM     16  C   LIG    1       25.071 -26.918   6.011  0.00  0.00    +0.052 A 
ATOM     17  C   LIG    1       24.256 -28.004   5.686  0.00  0.00    +0.021 A 
ATOM     18  C   LIG    1       24.227 -29.131   6.518  0.00  0.00    +0.024 A 
BRANCH  16  19
ATOM     19  C   LIG    1       25.051 -25.726   5.218  0.00  0.00    +0.099 C 
ATOM     20  N   LIG    1       25.036 -24.746   4.592  0.00  0.00    -0.191 NA
ENDBRANCH  16  19
ENDBRANCH  11  13
ENDBRANCH   6  11
BRANCH   1  21
ATOM     21  O   LIG    1       24.324 -30.224  13.137  0.00  0.00    -0.436 OA
BRANCH  21  24
ATOM     22  C   LIG    1       22.824 -27.563  13.259  0.00  0.00    +0.048 C 
ATOM     23  C   LIG    1       24.316 -27.755  13.265  0.00  0.00    -0.007 A 
ATOM     24  C   LIG    1       24.960 -29.008  13.321  0.00  0.00    +0.136 A 
ATOM     25  C   LIG    1       26.319 -29.056  13.702  0.00  0.00    -0.007 A 
ATOM     26  C   LIG    1       27.022 -30.335  14.076  0.00  0.00    +0.048 C 
ATOM     27  C   LIG    1       27.064 -27.863  13.780  0.00  0.00    +0.025 A 
ATOM     28  C   LIG    1       26.462 -26.632  13.525  0.00  0.00    +0.052 A 
ATOM     29  C   LIG    1       25.093 -26.583  13.282  0.00  0.00    +0.025 A 
BRANCH  28  30
ATOM     30  C   LIG    1       27.214 -25.418  13.585  0.00  0.00    +0.099 C 
ATOM     31  N   LIG    1       27.848 -24.440  13.641  0.00  0.00    -0.191 NA
ENDBRANCH  28  30
ENDBRANCH  21  24
ENDBRANCH   1  21
TORSDOF 7
ENDMDL
