MODEL 1
REMARK VINA RESULT:      -7.4      0.000      0.000
REMARK  Name = *****
REMARK                            x       y       z     vdW  Elec       q    Type
REMARK                         _______ _______ _______ _____ _____    ______ ____
ROOT
ATOM      1  C   LIG    1       25.733 -21.281   5.660  0.00  0.00    +0.199 C 
ENDROOT
BRANCH   1   2
ATOM      2  N   LIG    1       25.300 -22.640   6.177  0.00  0.00    -0.282 NA
ATOM      3  C   LIG    1       25.126 -23.551   5.002  0.00  0.00    +0.121 C 
ATOM      4  C   LIG    1       25.129 -25.011   5.377  0.00  0.00    -0.023 A 
ATOM      5  C   LIG    1       25.523 -25.467   6.615  0.00  0.00    -0.005 A 
ATOM      6  S   LIG    1       25.499 -27.157   6.758  0.00  0.00    -0.101 S 
ATOM      7  C   LIG    1       24.973 -27.330   5.137  0.00  0.00    +0.045 A 
ATOM      8  C   LIG    1       25.934 -24.561   7.718  0.00  0.00    +0.058 C 
ATOM      9  C   LIG    1       24.809 -26.109   4.515  0.00  0.00    +0.013 A 
ATOM     10  C   LIG    1       26.323 -23.192   7.116  0.00  0.00    +0.091 C 
ENDBRANCH   1   2
BRANCH   1  11
ATOM     11  C   LIG    1       24.586 -20.391   5.164  0.00  0.00    -0.001 A 
ATOM     12  C   LIG    1       23.363 -20.299   5.857  0.00  0.00    +0.046 A 
ATOM     13 CL   LIG    1       23.034 -21.209   7.291  0.00  0.00    -0.083 Cl
ATOM     14  C   LIG    1       22.336 -19.463   5.402  0.00  0.00    +0.020 A 
ATOM     15  C   LIG    1       22.496 -18.723   4.235  0.00  0.00    +0.001 A 
ATOM     16  C   LIG    1       23.676 -18.836   3.506  0.00  0.00    +0.000 A 
ATOM     17  C   LIG    1       24.711 -19.661   3.963  0.00  0.00    +0.007 A 
ENDBRANCH   1  11
BRANCH   1  18
ATOM     18  C   LIG    1       26.599 -20.493   6.681  0.00  0.00    +0.329 C 
ATOM     19  O   LIG    1       26.309 -20.216   7.832  0.00  0.00    -0.249 OA
BRANCH  18  21
ATOM     20  C   LIG    1       28.955 -20.662   6.679  0.00  0.00    +0.280 C 
ATOM     21  O   LIG    1       27.778 -20.139   6.067  0.00  0.00    -0.467 OA
ENDBRANCH  18  21
ENDBRANCH   1  18
TORSDOF 4
ENDMDL
MODEL 2
REMARK VINA RESULT:      -7.3      1.966      3.693
REMARK  Name = *****
REMARK                            x       y       z     vdW  Elec       q    Type
REMARK                         _______ _______ _______ _____ _____    ______ ____
ROOT
ATOM      1  C   LIG    1       24.461 -20.881   6.047  0.00  0.00    +0.199 C 
ENDROOT
BRANCH   1   2
ATOM      2  N   LIG    1       24.219 -22.354   5.773  0.00  0.00    -0.282 NA
ATOM      3  C   LIG    1       25.539 -23.058   5.819  0.00  0.00    +0.121 C 
ATOM      4  C   LIG    1       25.410 -24.549   5.999  0.00  0.00    -0.023 A 
ATOM      5  C   LIG    1       24.231 -25.162   6.361  0.00  0.00    -0.005 A 
ATOM      6  S   LIG    1       24.371 -26.840   6.566  0.00  0.00    -0.101 S 
ATOM      7  C   LIG    1       26.041 -26.791   6.192  0.00  0.00    +0.045 A 
ATOM      8  C   LIG    1       22.960 -24.419   6.556  0.00  0.00    +0.058 C 
ATOM      9  C   LIG    1       26.467 -25.510   5.903  0.00  0.00    +0.013 A 
ATOM     10  C   LIG    1       23.288 -22.927   6.791  0.00  0.00    +0.091 C 
ENDBRANCH   1   2
BRANCH   1  11
ATOM     11  C   LIG    1       25.927 -20.515   6.319  0.00  0.00    -0.001 A 
ATOM     12  C   LIG    1       26.481 -20.578   7.613  0.00  0.00    +0.046 A 
ATOM     13 CL   LIG    1       25.554 -21.026   9.004  0.00  0.00    -0.083 Cl
ATOM     14  C   LIG    1       27.826 -20.262   7.838  0.00  0.00    +0.020 A 
ATOM     15  C   LIG    1       28.639 -19.853   6.786  0.00  0.00    +0.001 A 
ATOM     16  C   LIG    1       28.101 -19.734   5.509  0.00  0.00    +0.000 A 
ATOM     17  C   LIG    1       26.760 -20.061   5.276  0.00  0.00    +0.007 A 
ENDBRANCH   1  11
BRANCH   1  18
ATOM     18  C   LIG    1       23.893 -19.957   4.936  0.00  0.00    +0.329 C 
ATOM     19  O   LIG    1       24.397 -19.711   3.854  0.00  0.00    -0.249 OA
BRANCH  18  21
ATOM     20  C   LIG    1       22.175 -18.376   4.579  0.00  0.00    +0.280 C 
ATOM     21  O   LIG    1       22.697 -19.438   5.374  0.00  0.00    -0.467 OA
ENDBRANCH  18  21
ENDBRANCH   1  18
TORSDOF 4
ENDMDL
MODEL 3
REMARK VINA RESULT:      -7.2      2.795      4.779
REMARK  Name = *****
REMARK                            x       y       z     vdW  Elec       q    Type
REMARK                         _______ _______ _______ _____ _____    ______ ____
ROOT
ATOM      1  C   LIG    1       25.306 -22.169   6.762  0.00  0.00    +0.199 C 
ENDROOT
BRANCH   1   2
ATOM      2  N   LIG    1       26.793 -21.880   6.681  0.00  0.00    -0.282 NA
ATOM      3  C   LIG    1       26.975 -20.576   5.967  0.00  0.00    +0.121 C 
ATOM      4  C   LIG    1       28.331 -19.959   6.195  0.00  0.00    -0.023 A 
ATOM      5  C   LIG    1       29.201 -20.397   7.167  0.00  0.00    -0.005 A 
ATOM      6  S   LIG    1       30.631 -19.488   7.262  0.00  0.00    -0.101 S 
ATOM      7  C   LIG    1       30.108 -18.454   6.001  0.00  0.00    +0.045 A 
ATOM      8  C   LIG    1       28.910 -21.555   8.051  0.00  0.00    +0.058 C 
ATOM      9  C   LIG    1       28.869 -18.819   5.515  0.00  0.00    +0.013 A 
ATOM     10  C   LIG    1       27.386 -21.809   8.051  0.00  0.00    +0.091 C 
ENDBRANCH   1   2
BRANCH   1  11
ATOM     11  C   LIG    1       24.437 -21.314   5.829  0.00  0.00    -0.001 A 
ATOM     12  C   LIG    1       23.440 -20.451   6.326  0.00  0.00    +0.046 A 
ATOM     13 CL   LIG    1       23.080 -20.316   8.013  0.00  0.00    -0.083 Cl
ATOM     14  C   LIG    1       22.673 -19.662   5.461  0.00  0.00    +0.020 A 
ATOM     15  C   LIG    1       22.864 -19.734   4.085  0.00  0.00    +0.001 A 
ATOM     16  C   LIG    1       23.808 -20.616   3.569  0.00  0.00    +0.000 A 
ATOM     17  C   LIG    1       24.587 -21.399   4.430  0.00  0.00    +0.007 A 
ENDBRANCH   1  11
BRANCH   1  18
ATOM     18  C   LIG    1       24.970 -23.671   6.553  0.00  0.00    +0.329 C 
ATOM     19  O   LIG    1       23.877 -24.201   6.651  0.00  0.00    -0.249 OA
BRANCH  18  21
ATOM     20  C   LIG    1       26.074 -25.752   6.379  0.00  0.00    +0.280 C 
ATOM     21  O   LIG    1       26.133 -24.335   6.236  0.00  0.00    -0.467 OA
ENDBRANCH  18  21
ENDBRANCH   1  18
TORSDOF 4
ENDMDL
MODEL 4
REMARK VINA RESULT:      -7.2      1.874      2.631
REMARK  Name = *****
REMARK                            x       y       z     vdW  Elec       q    Type
REMARK                         _______ _______ _______ _____ _____    ______ ____
ROOT
ATOM      1  C   LIG    1       25.285 -21.619   6.582  0.00  0.00    +0.199 C 
ENDROOT
BRANCH   1   2
ATOM      2  N   LIG    1       25.638 -22.973   5.998  0.00  0.00    -0.282 NA
ATOM      3  C   LIG    1       25.811 -23.937   7.130  0.00  0.00    +0.121 C 
ATOM      4  C   LIG    1       25.730 -25.379   6.700  0.00  0.00    -0.023 A 
ATOM      5  C   LIG    1       25.273 -25.768   5.461  0.00  0.00    -0.005 A 
ATOM      6  S   LIG    1       25.216 -27.451   5.253  0.00  0.00    -0.101 S 
ATOM      7  C   LIG    1       25.789 -27.711   6.846  0.00  0.00    +0.045 A 
ATOM      8  C   LIG    1       24.865 -24.802   4.409  0.00  0.00    +0.058 C 
ATOM      9  C   LIG    1       26.030 -26.524   7.507  0.00  0.00    +0.013 A 
ATOM     10  C   LIG    1       24.560 -23.442   5.076  0.00  0.00    +0.091 C 
ENDBRANCH   1   2
BRANCH   1  11
ATOM     11  C   LIG    1       24.667 -20.632   5.581  0.00  0.00    -0.001 A 
ATOM     12  C   LIG    1       25.465 -19.825   4.745  0.00  0.00    +0.046 A 
ATOM     13 CL   LIG    1       27.193 -19.841   4.806  0.00  0.00    -0.083 Cl
ATOM     14  C   LIG    1       24.883 -18.948   3.822  0.00  0.00    +0.020 A 
ATOM     15  C   LIG    1       23.499 -18.838   3.729  0.00  0.00    +0.001 A 
ATOM     16  C   LIG    1       22.693 -19.588   4.579  0.00  0.00    +0.000 A 
ATOM     17  C   LIG    1       23.268 -20.476   5.496  0.00  0.00    +0.007 A 
ENDBRANCH   1  11
BRANCH   1  18
ATOM     18  C   LIG    1       24.377 -21.720   7.838  0.00  0.00    +0.329 C 
ATOM     19  O   LIG    1       23.198 -22.025   7.871  0.00  0.00    -0.249 OA
BRANCH  18  21
ATOM     20  C   LIG    1       26.235 -20.534   8.687  0.00  0.00    +0.280 C 
ATOM     21  O   LIG    1       25.130 -21.397   8.944  0.00  0.00    -0.467 OA
ENDBRANCH  18  21
ENDBRANCH   1  18
TORSDOF 4
ENDMDL
MODEL 5
REMARK VINA RESULT:      -7.2      2.928      4.908
REMARK  Name = *****
REMARK                            x       y       z     vdW  Elec       q    Type
REMARK                         _______ _______ _______ _____ _____    ______ ____
ROOT
ATOM      1  C   LIG    1       25.307 -21.899   6.442  0.00  0.00    +0.199 C 
ENDROOT
BRANCH   1   2
ATOM      2  N   LIG    1       26.808 -21.683   6.400  0.00  0.00    -0.282 NA
ATOM      3  C   LIG    1       27.066 -20.321   5.835  0.00  0.00    +0.121 C 
ATOM      4  C   LIG    1       28.450 -19.806   6.135  0.00  0.00    -0.023 A 
ATOM      5  C   LIG    1       29.287 -20.396   7.057  0.00  0.00    -0.005 A 
ATOM      6  S   LIG    1       30.761 -19.582   7.258  0.00  0.00    -0.101 S 
ATOM      7  C   LIG    1       30.308 -18.388   6.116  0.00  0.00    +0.045 A 
ATOM      8  C   LIG    1       28.925 -21.627   7.806  0.00  0.00    +0.058 C 
ATOM      9  C   LIG    1       29.056 -18.629   5.588  0.00  0.00    +0.013 A 
ATOM     10  C   LIG    1       27.390 -21.796   7.771  0.00  0.00    +0.091 C 
ENDBRANCH   1   2
BRANCH   1  11
ATOM     11  C   LIG    1       24.497 -20.928   5.570  0.00  0.00    -0.001 A 
ATOM     12  C   LIG    1       23.387 -20.224   6.077  0.00  0.00    +0.046 A 
ATOM     13 CL   LIG    1       22.816 -20.425   7.698  0.00  0.00    -0.083 Cl
ATOM     14  C   LIG    1       22.674 -19.326   5.273  0.00  0.00    +0.020 A 
ATOM     15  C   LIG    1       23.037 -19.129   3.944  0.00  0.00    +0.001 A 
ATOM     16  C   LIG    1       24.098 -19.851   3.409  0.00  0.00    +0.000 A 
ATOM     17  C   LIG    1       24.821 -20.742   4.211  0.00  0.00    +0.007 A 
ENDBRANCH   1  11
BRANCH   1  18
ATOM     18  C   LIG    1       24.896 -23.360   6.111  0.00  0.00    +0.329 C 
ATOM     19  O   LIG    1       25.247 -24.024   5.152  0.00  0.00    -0.249 OA
BRANCH  18  21
ATOM     20  C   LIG    1       22.668 -23.849   6.726  0.00  0.00    +0.280 C 
ATOM     21  O   LIG    1       24.044 -23.803   7.097  0.00  0.00    -0.467 OA
ENDBRANCH  18  21
ENDBRANCH   1  18
TORSDOF 4
ENDMDL
MODEL 6
REMARK VINA RESULT:      -6.8      1.283      1.661
REMARK  Name = *****
REMARK                            x       y       z     vdW  Elec       q    Type
REMARK                         _______ _______ _______ _____ _____    ______ ____
ROOT
ATOM      1  C   LIG    1       25.490 -21.346   6.331  0.00  0.00    +0.199 C 
ENDROOT
BRANCH   1   2
ATOM      2  N   LIG    1       25.115 -22.799   6.552  0.00  0.00    -0.282 NA
ATOM      3  C   LIG    1       25.134 -23.491   5.224  0.00  0.00    +0.121 C 
ATOM      4  C   LIG    1       25.213 -24.992   5.338  0.00  0.00    -0.023 A 
ATOM      5  C   LIG    1       25.514 -25.641   6.515  0.00  0.00    -0.005 A 
ATOM      6  S   LIG    1       25.609 -27.327   6.358  0.00  0.00    -0.101 S 
ATOM      7  C   LIG    1       25.267 -27.234   4.683  0.00  0.00    +0.045 A 
ATOM      8  C   LIG    1       25.738 -24.926   7.798  0.00  0.00    +0.058 C 
ATOM      9  C   LIG    1       25.070 -25.933   4.268  0.00  0.00    +0.013 A 
ATOM     10  C   LIG    1       26.077 -23.450   7.492  0.00  0.00    +0.091 C 
ENDBRANCH   1   2
BRANCH   1  11
ATOM     11  C   LIG    1       24.460 -20.534   5.533  0.00  0.00    -0.001 A 
ATOM     12  C   LIG    1       24.847 -19.640   4.515  0.00  0.00    +0.046 A 
ATOM     13 CL   LIG    1       26.503 -19.348   4.110  0.00  0.00    -0.083 Cl
ATOM     14  C   LIG    1       23.891 -18.925   3.783  0.00  0.00    +0.020 A 
ATOM     15  C   LIG    1       22.536 -19.066   4.065  0.00  0.00    +0.001 A 
ATOM     16  C   LIG    1       22.135 -19.905   5.100  0.00  0.00    +0.000 A 
ATOM     17  C   LIG    1       23.085 -20.631   5.828  0.00  0.00    +0.007 A 
ENDBRANCH   1  11
BRANCH   1  18
ATOM     18  C   LIG    1       25.829 -20.602   7.651  0.00  0.00    +0.329 C 
ATOM     19  O   LIG    1       25.156 -20.560   8.666  0.00  0.00    -0.249 OA
BRANCH  18  21
ATOM     20  C   LIG    1       28.092 -20.803   7.007  0.00  0.00    +0.280 C 
ATOM     21  O   LIG    1       27.042 -19.972   7.494  0.00  0.00    -0.467 OA
ENDBRANCH  18  21
ENDBRANCH   1  18
TORSDOF 4
ENDMDL
MODEL 7
REMARK VINA RESULT:      -6.8      1.995      3.737
REMARK  Name = *****
REMARK                            x       y       z     vdW  Elec       q    Type
REMARK                         _______ _______ _______ _____ _____    ______ ____
ROOT
ATOM      1  C   LIG    1       24.937 -21.728   7.286  0.00  0.00    +0.199 C 
ENDROOT
BRANCH   1   2
ATOM      2  N   LIG    1       24.742 -22.985   6.460  0.00  0.00    -0.282 NA
ATOM      3  C   LIG    1       25.954 -23.848   6.633  0.00  0.00    +0.121 C 
ATOM      4  C   LIG    1       25.722 -25.284   6.239  0.00  0.00    -0.023 A 
ATOM      5  C   LIG    1       24.468 -25.806   6.012  0.00  0.00    -0.005 A 
ATOM      6  S   LIG    1       24.476 -27.464   5.650  0.00  0.00    -0.101 S 
ATOM      7  C   LIG    1       26.180 -27.535   5.812  0.00  0.00    +0.045 A 
ATOM      8  C   LIG    1       23.228 -24.992   6.080  0.00  0.00    +0.058 C 
ATOM      9  C   LIG    1       26.720 -26.304   6.121  0.00  0.00    +0.013 A 
ATOM     10  C   LIG    1       23.516 -23.716   6.903  0.00  0.00    +0.091 C 
ENDBRANCH   1   2
BRANCH   1  11
ATOM     11  C   LIG    1       26.247 -20.978   7.009  0.00  0.00    -0.001 A 
ATOM     12  C   LIG    1       26.556 -20.468   5.732  0.00  0.00    +0.046 A 
ATOM     13 CL   LIG    1       25.515 -20.680   4.367  0.00  0.00    -0.083 Cl
ATOM     14  C   LIG    1       27.746 -19.766   5.504  0.00  0.00    +0.020 A 
ATOM     15  C   LIG    1       28.663 -19.580   6.534  0.00  0.00    +0.001 A 
ATOM     16  C   LIG    1       28.402 -20.119   7.790  0.00  0.00    +0.000 A 
ATOM     17  C   LIG    1       27.209 -20.811   8.027  0.00  0.00    +0.007 A 
ENDBRANCH   1  11
BRANCH   1  18
ATOM     18  C   LIG    1       23.742 -20.742   7.179  0.00  0.00    +0.329 C 
ATOM     19  O   LIG    1       23.328 -19.990   8.044  0.00  0.00    -0.249 OA
BRANCH  18  21
ATOM     20  C   LIG    1       22.549 -19.681   5.438  0.00  0.00    +0.280 C 
ATOM     21  O   LIG    1       23.199 -20.855   5.919  0.00  0.00    -0.467 OA
ENDBRANCH  18  21
ENDBRANCH   1  18
TORSDOF 4
ENDMDL
MODEL 8
REMARK VINA RESULT:      -6.7      1.684      3.860
REMARK  Name = *****
REMARK                            x       y       z     vdW  Elec       q    Type
REMARK                         _______ _______ _______ _____ _____    ______ ____
ROOT
ATOM      1  C   LIG    1       25.508 -21.460   6.260  0.00  0.00    +0.199 C 
ENDROOT
BRANCH   1   2
ATOM      2  N   LIG    1       25.732 -22.872   5.753  0.00  0.00    -0.282 NA
ATOM      3  C   LIG    1       25.942 -23.763   6.938  0.00  0.00    +0.121 C 
ATOM      4  C   LIG    1       25.741 -25.223   6.625  0.00  0.00    -0.023 A 
ATOM      5  C   LIG    1       25.160 -25.668   5.459  0.00  0.00    -0.005 A 
ATOM      6  S   LIG    1       24.987 -27.354   5.384  0.00  0.00    -0.101 S 
ATOM      7  C   LIG    1       25.675 -27.538   6.941  0.00  0.00    +0.045 A 
ATOM      8  C   LIG    1       24.723 -24.754   4.373  0.00  0.00    +0.058 C 
ATOM      9  C   LIG    1       26.040 -26.325   7.490  0.00  0.00    +0.013 A 
ATOM     10  C   LIG    1       24.554 -23.334   4.958  0.00  0.00    +0.091 C 
ENDBRANCH   1   2
BRANCH   1  11
ATOM     11  C   LIG    1       26.791 -20.707   6.642  0.00  0.00    -0.001 A 
ATOM     12  C   LIG    1       27.057 -20.319   7.970  0.00  0.00    +0.046 A 
ATOM     13 CL   LIG    1       25.950 -20.613   9.267  0.00  0.00    -0.083 Cl
ATOM     14  C   LIG    1       28.243 -19.654   8.303  0.00  0.00    +0.020 A 
ATOM     15  C   LIG    1       29.175 -19.339   7.319  0.00  0.00    +0.001 A 
ATOM     16  C   LIG    1       28.910 -19.668   5.993  0.00  0.00    +0.000 A 
ATOM     17  C   LIG    1       27.731 -20.344   5.656  0.00  0.00    +0.007 A 
ENDBRANCH   1  11
BRANCH   1  18
ATOM     18  C   LIG    1       24.669 -20.592   5.282  0.00  0.00    +0.329 C 
ATOM     19  O   LIG    1       24.953 -20.291   4.136  0.00  0.00    -0.249 OA
BRANCH  18  21
ATOM     20  C   LIG    1       22.500 -19.679   5.082  0.00  0.00    +0.280 C 
ATOM     21  O   LIG    1       23.521 -20.198   5.930  0.00  0.00    -0.467 OA
ENDBRANCH  18  21
ENDBRANCH   1  18
TORSDOF 4
ENDMDL
MODEL 9
REMARK VINA RESULT:      -6.6      2.778      5.679
REMARK  Name = *****
REMARK                            x       y       z     vdW  Elec       q    Type
REMARK                         _______ _______ _______ _____ _____    ______ ____
ROOT
ATOM      1  C   LIG    1       25.062 -21.100   6.132  0.00  0.00    +0.199 C 
ENDROOT
BRANCH   1   2
ATOM      2  N   LIG    1       26.314 -20.349   6.544  0.00  0.00    -0.282 NA
ATOM      3  C   LIG    1       27.122 -21.245   7.430  0.00  0.00    +0.121 C 
ATOM      4  C   LIG    1       28.561 -20.815   7.556  0.00  0.00    -0.023 A 
ATOM      5  C   LIG    1       29.137 -19.873   6.733  0.00  0.00    -0.005 A 
ATOM      6  S   LIG    1       30.787 -19.619   7.037  0.00  0.00    -0.101 S 
ATOM      7  C   LIG    1       30.783 -20.796   8.281  0.00  0.00    +0.045 A 
ATOM      8  C   LIG    1       28.381 -19.150   5.678  0.00  0.00    +0.058 C 
ATOM      9  C   LIG    1       29.533 -21.353   8.460  0.00  0.00    +0.013 A 
ATOM     10  C   LIG    1       27.106 -19.955   5.341  0.00  0.00    +0.091 C 
ENDBRANCH   1   2
BRANCH   1  11
ATOM     11  C   LIG    1       25.213 -22.627   6.102  0.00  0.00    -0.001 A 
ATOM     12  C   LIG    1       24.878 -23.385   4.962  0.00  0.00    +0.046 A 
ATOM     13 CL   LIG    1       24.230 -22.672   3.526  0.00  0.00    -0.083 Cl
ATOM     14  C   LIG    1       25.045 -24.775   4.946  0.00  0.00    +0.020 A 
ATOM     15  C   LIG    1       25.523 -25.441   6.070  0.00  0.00    +0.001 A 
ATOM     16  C   LIG    1       25.812 -24.719   7.224  0.00  0.00    +0.000 A 
ATOM     17  C   LIG    1       25.659 -23.328   7.242  0.00  0.00    +0.007 A 
ENDBRANCH   1  11
BRANCH   1  18
ATOM     18  C   LIG    1       23.819 -20.718   6.982  0.00  0.00    +0.329 C 
ATOM     19  O   LIG    1       23.794 -20.454   8.172  0.00  0.00    -0.249 OA
BRANCH  18  21
ATOM     20  C   LIG    1       22.679 -19.687   5.189  0.00  0.00    +0.280 C 
ATOM     21  O   LIG    1       22.714 -20.728   6.163  0.00  0.00    -0.467 OA
ENDBRANCH  18  21
ENDBRANCH   1  18
TORSDOF 4
ENDMDL
