MODEL 1
REMARK VINA RESULT:      -4.6      0.000      0.000
REMARK  Name = *****
REMARK                            x       y       z     vdW  Elec       q    Type
REMARK                         _______ _______ _______ _____ _____    ______ ____
ROOT
ATOM      1  C   LIG    1       25.173 -13.786   3.554  0.00  0.00    +0.126 C 
ATOM      2  C   LIG    1       25.167 -12.787   4.713  0.00  0.00    +0.236 C 
ATOM      3  O   LIG    1       24.223 -12.046   4.980  0.00  0.00    -0.274 OA
ATOM      4  N   LIG    1       26.274 -12.790   5.514  0.00  0.00    -0.239 N 
ATOM      5  H   LIG    1       26.252 -12.125   6.276  0.00  0.00    +0.159 HD
ATOM      6  C   LIG    1       27.520 -13.079   5.058  0.00  0.00    +0.312 C 
ATOM      7  O   LIG    1       28.522 -12.613   5.594  0.00  0.00    -0.252 OA
ATOM      8  N   LIG    1       27.604 -13.811   3.918  0.00  0.00    -0.239 N 
ATOM      9  H   LIG    1       28.538 -13.880   3.532  0.00  0.00    +0.159 HD
ATOM     10  C   LIG    1       26.596 -13.882   2.997  0.00  0.00    +0.236 C 
ATOM     11  O   LIG    1       26.860 -14.071   1.812  0.00  0.00    -0.274 OA
ENDROOT
BRANCH   1  12
ATOM     12  C   LIG    1       24.791 -15.210   4.144  0.00  0.00    +0.010 C 
ATOM     13  C   LIG    1       23.275 -15.375   4.360  0.00  0.00    +0.009 C 
BRANCH  12  15
ATOM     14  C   LIG    1       24.762 -17.748   3.646  0.00  0.00    +0.004 C 
ATOM     15  C   LIG    1       25.343 -16.384   3.291  0.00  0.00    +0.001 C 
ENDBRANCH  12  15
ENDBRANCH   1  12
BRANCH   1  16
ATOM     16  C   LIG    1       24.190 -13.329   2.443  0.00  0.00    +0.022 C 
ATOM     17  C   LIG    1       24.498 -11.961   1.831  0.00  0.00    +0.005 C 
ENDBRANCH   1  16
TORSDOF 3
ENDMDL
MODEL 2
REMARK VINA RESULT:      -3.4      1.485      1.585
REMARK  Name = *****
REMARK                            x       y       z     vdW  Elec       q    Type
REMARK                         _______ _______ _______ _____ _____    ______ ____
ROOT
ATOM      1  C   LIG    1       25.287 -13.545   4.113  0.00  0.00    +0.126 C 
ATOM      2  C   LIG    1       26.349 -13.294   5.186  0.00  0.00    +0.236 C 
ATOM      3  O   LIG    1       26.102 -12.891   6.320  0.00  0.00    -0.274 OA
ATOM      4  N   LIG    1       27.634 -13.608   4.842  0.00  0.00    -0.239 N 
ATOM      5  H   LIG    1       28.323 -13.437   5.563  0.00  0.00    +0.159 HD
ATOM      6  C   LIG    1       28.112 -13.501   3.575  0.00  0.00    +0.312 C 
ATOM      7  O   LIG    1       29.301 -13.288   3.356  0.00  0.00    -0.252 OA
ATOM      8  N   LIG    1       27.200 -13.527   2.569  0.00  0.00    -0.239 N 
ATOM      9  H   LIG    1       27.576 -13.299   1.657  0.00  0.00    +0.159 HD
ATOM     10  C   LIG    1       25.883 -13.206   2.744  0.00  0.00    +0.236 C 
ATOM     11  O   LIG    1       25.239 -12.729   1.812  0.00  0.00    -0.274 OA
ENDROOT
BRANCH   1  12
ATOM     12  C   LIG    1       24.952 -15.097   4.120  0.00  0.00    +0.010 C 
ATOM     13  C   LIG    1       23.438 -15.378   4.086  0.00  0.00    +0.009 C 
BRANCH  12  15
ATOM     14  C   LIG    1       26.082 -17.294   3.354  0.00  0.00    +0.004 C 
ATOM     15  C   LIG    1       25.669 -15.874   2.983  0.00  0.00    +0.001 C 
ENDBRANCH  12  15
ENDBRANCH   1  12
BRANCH   1  16
ATOM     16  C   LIG    1       24.030 -12.674   4.383  0.00  0.00    +0.022 C 
ATOM     17  C   LIG    1       23.863 -11.475   3.448  0.00  0.00    +0.005 C 
ENDBRANCH   1  16
TORSDOF 3
ENDMDL
MODEL 3
REMARK VINA RESULT:      -2.8      4.830      6.565
REMARK  Name = *****
REMARK                            x       y       z     vdW  Elec       q    Type
REMARK                         _______ _______ _______ _____ _____    ______ ____
ROOT
ATOM      1  C   LIG    1       23.314 -20.049   4.673  0.00  0.00    +0.126 C 
ATOM      2  C   LIG    1       23.095 -18.539   4.560  0.00  0.00    +0.236 C 
ATOM      3  O   LIG    1       22.029 -17.977   4.802  0.00  0.00    -0.274 OA
ATOM      4  N   LIG    1       24.193 -17.797   4.224  0.00  0.00    -0.239 N 
ATOM      5  H   LIG    1       24.030 -16.801   4.155  0.00  0.00    +0.159 HD
ATOM      6  C   LIG    1       25.184 -18.260   3.420  0.00  0.00    +0.312 C 
ATOM      7  O   LIG    1       25.859 -17.498   2.733  0.00  0.00    -0.252 OA
ATOM      8  N   LIG    1       25.320 -19.608   3.323  0.00  0.00    -0.239 N 
ATOM      9  H   LIG    1       25.968 -19.913   2.607  0.00  0.00    +0.159 HD
ATOM     10  C   LIG    1       24.306 -20.484   3.591  0.00  0.00    +0.236 C 
ATOM     11  O   LIG    1       24.264 -21.568   3.015  0.00  0.00    -0.274 OA
ENDROOT
BRANCH   1  12
ATOM     12  C   LIG    1       23.987 -20.333   6.083  0.00  0.00    +0.010 C 
ATOM     13  C   LIG    1       23.045 -21.073   7.052  0.00  0.00    +0.009 C 
BRANCH  12  15
ATOM     14  C   LIG    1       26.471 -20.484   6.788  0.00  0.00    +0.004 C 
ATOM     15  C   LIG    1       25.338 -21.088   5.966  0.00  0.00    +0.001 C 
ENDBRANCH  12  15
ENDBRANCH   1  12
BRANCH   1  16
ATOM     16  C   LIG    1       21.968 -20.804   4.504  0.00  0.00    +0.022 C 
ATOM     17  C   LIG    1       20.807 -19.946   3.996  0.00  0.00    +0.005 C 
ENDBRANCH   1  16
TORSDOF 3
ENDMDL
MODEL 4
REMARK VINA RESULT:      -2.7      1.970      3.805
REMARK  Name = *****
REMARK                            x       y       z     vdW  Elec       q    Type
REMARK                         _______ _______ _______ _____ _____    ______ ____
ROOT
ATOM      1  C   LIG    1       25.842 -14.071   3.910  0.00  0.00    +0.126 C 
ATOM      2  C   LIG    1       24.337 -13.898   4.128  0.00  0.00    +0.236 C 
ATOM      3  O   LIG    1       23.635 -14.690   4.753  0.00  0.00    -0.274 OA
ATOM      4  N   LIG    1       23.788 -12.748   3.634  0.00  0.00    -0.239 N 
ATOM      5  H   LIG    1       22.793 -12.650   3.788  0.00  0.00    +0.159 HD
ATOM      6  C   LIG    1       24.246 -12.127   2.516  0.00  0.00    +0.312 C 
ATOM      7  O   LIG    1       23.504 -11.447   1.813  0.00  0.00    -0.252 OA
ATOM      8  N   LIG    1       25.529 -12.383   2.151  0.00  0.00    -0.239 N 
ATOM      9  H   LIG    1       25.785 -12.021   1.241  0.00  0.00    +0.159 HD
ATOM     10  C   LIG    1       26.207 -13.506   2.535  0.00  0.00    +0.236 C 
ATOM     11  O   LIG    1       27.088 -13.966   1.813  0.00  0.00    -0.274 OA
ENDROOT
BRANCH   1  12
ATOM     12  C   LIG    1       26.591 -13.197   5.003  0.00  0.00    +0.010 C 
ATOM     13  C   LIG    1       26.138 -13.525   6.438  0.00  0.00    +0.009 C 
BRANCH  12  15
ATOM     14  C   LIG    1       28.804 -12.035   4.340  0.00  0.00    +0.004 C 
ATOM     15  C   LIG    1       28.137 -13.288   4.893  0.00  0.00    +0.001 C 
ENDBRANCH  12  15
ENDBRANCH   1  12
BRANCH   1  16
ATOM     16  C   LIG    1       26.230 -15.573   3.995  0.00  0.00    +0.022 C 
ATOM     17  C   LIG    1       25.381 -16.508   3.132  0.00  0.00    +0.005 C 
ENDBRANCH   1  16
TORSDOF 3
ENDMDL
MODEL 5
REMARK VINA RESULT:      -2.6      5.637      7.295
REMARK  Name = *****
REMARK                            x       y       z     vdW  Elec       q    Type
REMARK                         _______ _______ _______ _____ _____    ______ ____
ROOT
ATOM      1  C   LIG    1       23.777 -20.119   4.730  0.00  0.00    +0.126 C 
ATOM      2  C   LIG    1       25.005 -20.535   3.916  0.00  0.00    +0.236 C 
ATOM      3  O   LIG    1       24.962 -20.924   2.751  0.00  0.00    -0.274 OA
ATOM      4  N   LIG    1       26.213 -20.396   4.541  0.00  0.00    -0.239 N 
ATOM      5  H   LIG    1       27.014 -20.674   3.989  0.00  0.00    +0.159 HD
ATOM      6  C   LIG    1       26.378 -20.542   5.881  0.00  0.00    +0.312 C 
ATOM      7  O   LIG    1       27.448 -20.913   6.357  0.00  0.00    -0.252 OA
ATOM      8  N   LIG    1       25.279 -20.371   6.659  0.00  0.00    -0.239 N 
ATOM      9  H   LIG    1       25.408 -20.630   7.629  0.00  0.00    +0.159 HD
ATOM     10  C   LIG    1       24.002 -20.509   6.193  0.00  0.00    +0.236 C 
ATOM     11  O   LIG    1       23.108 -20.874   6.953  0.00  0.00    -0.274 OA
ENDROOT
BRANCH   1  12
ATOM     12  C   LIG    1       23.672 -18.536   4.666  0.00  0.00    +0.010 C 
ATOM     13  C   LIG    1       24.613 -17.920   3.613  0.00  0.00    +0.009 C 
BRANCH  12  15
ATOM     14  C   LIG    1       22.002 -16.564   4.775  0.00  0.00    +0.004 C 
ATOM     15  C   LIG    1       22.218 -18.036   4.445  0.00  0.00    +0.001 C 
ENDBRANCH  12  15
ENDBRANCH   1  12
BRANCH   1  16
ATOM     16  C   LIG    1       22.503 -20.813   4.176  0.00  0.00    +0.022 C 
ATOM     17  C   LIG    1       21.678 -21.571   5.218  0.00  0.00    +0.005 C 
ENDBRANCH   1  16
TORSDOF 3
ENDMDL
MODEL 6
REMARK VINA RESULT:      -2.5      5.218      6.988
REMARK  Name = *****
REMARK                            x       y       z     vdW  Elec       q    Type
REMARK                         _______ _______ _______ _____ _____    ______ ____
ROOT
ATOM      1  C   LIG    1       23.999 -20.262   4.650  0.00  0.00    +0.126 C 
ATOM      2  C   LIG    1       22.498 -20.113   4.910  0.00  0.00    +0.236 C 
ATOM      3  O   LIG    1       21.710 -21.054   4.959  0.00  0.00    -0.274 OA
ATOM      4  N   LIG    1       22.057 -18.843   5.156  0.00  0.00    -0.239 N 
ATOM      5  H   LIG    1       21.063 -18.762   5.327  0.00  0.00    +0.159 HD
ATOM      6  C   LIG    1       22.621 -17.739   4.602  0.00  0.00    +0.312 C 
ATOM      7  O   LIG    1       21.969 -16.717   4.405  0.00  0.00    -0.252 OA
ATOM      8  N   LIG    1       23.904 -17.853   4.172  0.00  0.00    -0.239 N 
ATOM      9  H   LIG    1       24.238 -17.061   3.636  0.00  0.00    +0.159 HD
ATOM     10  C   LIG    1       24.483 -19.049   3.851  0.00  0.00    +0.236 C 
ATOM     11  O   LIG    1       25.374 -19.092   3.007  0.00  0.00    -0.274 OA
ENDROOT
BRANCH   1  12
ATOM     12  C   LIG    1       24.736 -20.237   6.056  0.00  0.00    +0.010 C 
ATOM     13  C   LIG    1       24.163 -21.267   7.046  0.00  0.00    +0.009 C 
BRANCH  12  15
ATOM     14  C   LIG    1       26.908 -21.223   7.055  0.00  0.00    +0.004 C 
ATOM     15  C   LIG    1       26.275 -20.407   5.934  0.00  0.00    +0.001 C 
ENDBRANCH  12  15
ENDBRANCH   1  12
BRANCH   1  16
ATOM     16  C   LIG    1       24.283 -21.572   3.865  0.00  0.00    +0.022 C 
ATOM     17  C   LIG    1       23.804 -21.569   2.411  0.00  0.00    +0.005 C 
ENDBRANCH   1  16
TORSDOF 3
ENDMDL
MODEL 7
REMARK VINA RESULT:      -2.3      1.808      3.704
REMARK  Name = *****
REMARK                            x       y       z     vdW  Elec       q    Type
REMARK                         _______ _______ _______ _____ _____    ______ ____
ROOT
ATOM      1  C   LIG    1       25.618 -13.392   4.388  0.00  0.00    +0.126 C 
ATOM      2  C   LIG    1       24.678 -14.518   3.951  0.00  0.00    +0.236 C 
ATOM      3  O   LIG    1       23.459 -14.497   4.105  0.00  0.00    -0.274 OA
ATOM      4  N   LIG    1       25.263 -15.568   3.301  0.00  0.00    -0.239 N 
ATOM      5  H   LIG    1       24.627 -16.303   3.018  0.00  0.00    +0.159 HD
ATOM      6  C   LIG    1       26.528 -15.990   3.558  0.00  0.00    +0.312 C 
ATOM      7  O   LIG    1       26.860 -17.159   3.381  0.00  0.00    -0.252 OA
ATOM      8  N   LIG    1       27.374 -15.092   4.124  0.00  0.00    -0.239 N 
ATOM      9  H   LIG    1       28.255 -15.484   4.433  0.00  0.00    +0.159 HD
ATOM     10  C   LIG    1       26.946 -14.007   4.837  0.00  0.00    +0.236 C 
ATOM     11  O   LIG    1       27.645 -13.552   5.739  0.00  0.00    -0.274 OA
ENDROOT
BRANCH   1  12
ATOM     12  C   LIG    1       25.913 -12.490   3.115  0.00  0.00    +0.010 C 
ATOM     13  C   LIG    1       27.324 -12.715   2.541  0.00  0.00    +0.009 C 
BRANCH  12  15
ATOM     14  C   LIG    1       23.937 -11.447   1.812  0.00  0.00    +0.004 C 
ATOM     15  C   LIG    1       24.846 -12.656   1.998  0.00  0.00    +0.001 C 
ENDBRANCH  12  15
ENDBRANCH   1  12
BRANCH   1  16
ATOM     16  C   LIG    1       24.983 -12.577   5.547  0.00  0.00    +0.022 C 
ATOM     17  C   LIG    1       23.851 -11.636   5.129  0.00  0.00    +0.005 C 
ENDBRANCH   1  16
TORSDOF 3
ENDMDL
MODEL 8
REMARK VINA RESULT:      -2.2      1.696      3.641
REMARK  Name = *****
REMARK                            x       y       z     vdW  Elec       q    Type
REMARK                         _______ _______ _______ _____ _____    ______ ____
ROOT
ATOM      1  C   LIG    1       25.806 -14.527   3.769  0.00  0.00    +0.126 C 
ATOM      2  C   LIG    1       26.144 -13.921   2.405  0.00  0.00    +0.236 C 
ATOM      3  O   LIG    1       27.204 -14.106   1.812  0.00  0.00    -0.274 OA
ATOM      4  N   LIG    1       25.155 -13.184   1.815  0.00  0.00    -0.239 N 
ATOM      5  H   LIG    1       25.396 -12.792   0.914  0.00  0.00    +0.159 HD
ATOM      6  C   LIG    1       24.251 -12.456   2.519  0.00  0.00    +0.312 C 
ATOM      7  O   LIG    1       23.729 -11.451   2.043  0.00  0.00    -0.252 OA
ATOM      8  N   LIG    1       24.035 -12.823   3.808  0.00  0.00    -0.239 N 
ATOM      9  H   LIG    1       23.469 -12.172   4.339  0.00  0.00    +0.159 HD
ATOM     10  C   LIG    1       24.940 -13.532   4.547  0.00  0.00    +0.236 C 
ATOM     11  O   LIG    1       24.982 -13.390   5.767  0.00  0.00    -0.274 OA
ENDROOT
BRANCH   1  12
ATOM     12  C   LIG    1       24.932 -15.828   3.515  0.00  0.00    +0.010 C 
ATOM     13  C   LIG    1       25.748 -17.127   3.648  0.00  0.00    +0.009 C 
BRANCH  12  15
ATOM     14  C   LIG    1       22.836 -17.157   4.243  0.00  0.00    +0.004 C 
ATOM     15  C   LIG    1       23.669 -15.892   4.416  0.00  0.00    +0.001 C 
ENDBRANCH  12  15
ENDBRANCH   1  12
BRANCH   1  16
ATOM     16  C   LIG    1       27.106 -14.840   4.558  0.00  0.00    +0.022 C 
ATOM     17  C   LIG    1       27.882 -13.611   5.037  0.00  0.00    +0.005 C 
ENDBRANCH   1  16
TORSDOF 3
ENDMDL
MODEL 9
REMARK VINA RESULT:      -1.9      5.390      7.379
REMARK  Name = *****
REMARK                            x       y       z     vdW  Elec       q    Type
REMARK                         _______ _______ _______ _____ _____    ______ ____
ROOT
ATOM      1  C   LIG    1       24.421 -19.557   4.088  0.00  0.00    +0.126 C 
ATOM      2  C   LIG    1       24.052 -20.964   3.611  0.00  0.00    +0.236 C 
ATOM      3  O   LIG    1       24.650 -21.572   2.727  0.00  0.00    -0.274 OA
ATOM      4  N   LIG    1       23.024 -21.572   4.277  0.00  0.00    -0.239 N 
ATOM      5  H   LIG    1       22.794 -22.501   3.950  0.00  0.00    +0.159 HD
ATOM      6  C   LIG    1       21.977 -20.890   4.809  0.00  0.00    +0.312 C 
ATOM      7  O   LIG    1       20.873 -21.411   4.938  0.00  0.00    -0.252 OA
ATOM      8  N   LIG    1       22.175 -19.575   5.086  0.00  0.00    -0.239 N 
ATOM      9  H   LIG    1       21.336 -19.070   5.342  0.00  0.00    +0.159 HD
ATOM     10  C   LIG    1       23.139 -18.819   4.480  0.00  0.00    +0.236 C 
ATOM     11  O   LIG    1       22.967 -17.612   4.331  0.00  0.00    -0.274 OA
ENDROOT
BRANCH   1  12
ATOM     12  C   LIG    1       25.307 -19.710   5.397  0.00  0.00    +0.010 C 
ATOM     13  C   LIG    1       24.711 -20.709   6.405  0.00  0.00    +0.009 C 
BRANCH  12  15
ATOM     14  C   LIG    1       27.682 -20.163   6.314  0.00  0.00    +0.004 C 
ATOM     15  C   LIG    1       26.784 -20.076   5.086  0.00  0.00    +0.001 C 
ENDBRANCH  12  15
ENDBRANCH   1  12
BRANCH   1  16
ATOM     16  C   LIG    1       25.165 -18.785   2.964  0.00  0.00    +0.022 C 
ATOM     17  C   LIG    1       25.863 -17.501   3.417  0.00  0.00    +0.005 C 
ENDBRANCH   1  16
TORSDOF 3
ENDMDL
