MODEL 1
REMARK VINA RESULT:      -9.7      0.000      0.000
REMARK  Name = *****
REMARK                            x       y       z     vdW  Elec       q    Type
REMARK                         _______ _______ _______ _____ _____    ______ ____
ROOT
ATOM      1  C   LIG    1       25.915 -20.519   8.347  0.00  0.00    +0.027 C 
ATOM      2  C   LIG    1       26.152 -20.782   6.828  0.00  0.00    +0.086 C 
ENDROOT
BRANCH   2   3
ATOM      3  N   LIG    1       24.886 -20.462   6.097  0.00  0.00    -0.297 NA
ATOM      4  C   LIG    1       24.604 -21.204   4.869  0.00  0.00    +0.085 C 
ATOM      5  C   LIG    1       24.253 -22.682   5.031  0.00  0.00    +0.019 C 
ATOM      6  C   LIG    1       23.217 -22.993   6.116  0.00  0.00    -0.004 C 
ATOM      7  C   LIG    1       23.104 -21.896   7.210  0.00  0.00    +0.019 C 
ATOM      8  C   LIG    1       23.640 -20.498   6.871  0.00  0.00    +0.085 C 
BRANCH   6   9
ATOM      9  C   LIG    1       23.517 -24.355   6.808  0.00  0.00    +0.038 C 
BRANCH   9  10
ATOM     10  C   LIG    1       24.491 -25.338   6.185  0.00  0.00    -0.047 A 
ATOM     11  C   LIG    1       24.065 -26.383   5.354  0.00  0.00    +0.003 A 
ATOM     12  C   LIG    1       24.960 -27.387   4.957  0.00  0.00    +0.000 A 
ATOM     13  C   LIG    1       26.289 -27.359   5.379  0.00  0.00    +0.000 A 
ATOM     14  C   LIG    1       26.736 -26.308   6.173  0.00  0.00    +0.000 A 
ATOM     15  C   LIG    1       25.845 -25.306   6.568  0.00  0.00    +0.003 A 
ENDBRANCH   9  10
ENDBRANCH   6   9
ENDBRANCH   2   3
BRANCH   2  16
ATOM     16  C   LIG    1       27.491 -19.969   6.442  0.00  0.00    +0.161 C 
BRANCH  16  17
ATOM     17  C   LIG    1       28.670 -20.102   7.400  0.00  0.00    -0.017 A 
ATOM     18  C   LIG    1       29.356 -18.985   7.893  0.00  0.00    +0.010 A 
ATOM     19  C   LIG    1       30.596 -19.091   8.513  0.00  0.00    +0.046 A 
ATOM     20  C   LIG    1       31.092 -20.372   8.781  0.00  0.00    +0.117 A 
ATOM     21  C   LIG    1       30.357 -21.493   8.448  0.00  0.00    +0.046 A 
ATOM     22  C   LIG    1       29.150 -21.376   7.753  0.00  0.00    +0.010 A 
BRANCH  20  23
ATOM     23  O   LIG    1       32.326 -20.452   9.349  0.00  0.00    -0.507 OA
ATOM     24  H   LIG    1       32.757 -21.274   9.038  0.00  0.00    +0.292 HD
ENDBRANCH  20  23
ENDBRANCH  16  17
BRANCH  16  25
ATOM     25  O   LIG    1       27.939 -20.253   5.108  0.00  0.00    -0.386 OA
ATOM     26  H   LIG    1       28.697 -19.675   4.921  0.00  0.00    +0.210 HD
ENDBRANCH  16  25
ENDBRANCH   2  16
TORSDOF 7
ENDMDL
MODEL 2
REMARK VINA RESULT:      -9.7      0.433      1.010
REMARK  Name = *****
REMARK                            x       y       z     vdW  Elec       q    Type
REMARK                         _______ _______ _______ _____ _____    ______ ____
ROOT
ATOM      1  C   LIG    1       26.133 -20.408   8.281  0.00  0.00    +0.027 C 
ATOM      2  C   LIG    1       26.268 -20.750   6.766  0.00  0.00    +0.086 C 
ENDROOT
BRANCH   2   3
ATOM      3  N   LIG    1       24.949 -20.484   6.110  0.00  0.00    -0.297 NA
ATOM      4  C   LIG    1       24.624 -21.248   4.906  0.00  0.00    +0.085 C 
ATOM      5  C   LIG    1       24.339 -22.737   5.098  0.00  0.00    +0.019 C 
ATOM      6  C   LIG    1       23.383 -23.078   6.246  0.00  0.00    -0.004 C 
ATOM      7  C   LIG    1       23.294 -21.976   7.337  0.00  0.00    +0.019 C 
ATOM      8  C   LIG    1       23.753 -20.561   6.957  0.00  0.00    +0.085 C 
BRANCH   6   9
ATOM      9  C   LIG    1       23.776 -24.420   6.928  0.00  0.00    +0.038 C 
BRANCH   9  10
ATOM     10  C   LIG    1       24.632 -25.437   6.194  0.00  0.00    -0.047 A 
ATOM     11  C   LIG    1       24.072 -26.460   5.418  0.00  0.00    +0.003 A 
ATOM     12  C   LIG    1       24.875 -27.496   4.918  0.00  0.00    +0.000 A 
ATOM     13  C   LIG    1       26.245 -27.519   5.180  0.00  0.00    +0.000 A 
ATOM     14  C   LIG    1       26.821 -26.489   5.917  0.00  0.00    +0.000 A 
ATOM     15  C   LIG    1       26.021 -25.456   6.414  0.00  0.00    +0.003 A 
ENDBRANCH   9  10
ENDBRANCH   6   9
ENDBRANCH   2   3
BRANCH   2  16
ATOM     16  C   LIG    1       27.563 -19.943   6.243  0.00  0.00    +0.161 C 
BRANCH  16  17
ATOM     17  C   LIG    1       28.891 -20.277   6.915  0.00  0.00    -0.017 A 
ATOM     18  C   LIG    1       29.061 -21.430   7.692  0.00  0.00    +0.010 A 
ATOM     19  C   LIG    1       30.147 -21.597   8.543  0.00  0.00    +0.046 A 
ATOM     20  C   LIG    1       31.172 -20.645   8.500  0.00  0.00    +0.117 A 
ATOM     21  C   LIG    1       31.103 -19.580   7.623  0.00  0.00    +0.046 A 
ATOM     22  C   LIG    1       29.970 -19.378   6.830  0.00  0.00    +0.010 A 
BRANCH  20  23
ATOM     23  O   LIG    1       32.204 -20.805   9.372  0.00  0.00    -0.507 OA
ATOM     24  H   LIG    1       31.987 -21.545   9.975  0.00  0.00    +0.292 HD
ENDBRANCH  20  23
ENDBRANCH  16  17
BRANCH  16  25
ATOM     25  O   LIG    1       27.726 -20.030   4.819  0.00  0.00    -0.386 OA
ATOM     26  H   LIG    1       27.939 -20.953   4.601  0.00  0.00    +0.210 HD
ENDBRANCH  16  25
ENDBRANCH   2  16
TORSDOF 7
ENDMDL
MODEL 3
REMARK VINA RESULT:      -9.0      1.072      1.855
REMARK  Name = *****
REMARK                            x       y       z     vdW  Elec       q    Type
REMARK                         _______ _______ _______ _____ _____    ______ ____
ROOT
ATOM      1  C   LIG    1       26.284 -20.673   8.757  0.00  0.00    +0.027 C 
ATOM      2  C   LIG    1       26.200 -21.078   7.254  0.00  0.00    +0.086 C 
ENDROOT
BRANCH   2   3
ATOM      3  N   LIG    1       24.759 -21.065   6.849  0.00  0.00    -0.297 NA
ATOM      4  C   LIG    1       24.455 -21.090   5.419  0.00  0.00    +0.085 C 
ATOM      5  C   LIG    1       24.752 -22.394   4.680  0.00  0.00    +0.019 C 
ATOM      6  C   LIG    1       24.255 -23.667   5.375  0.00  0.00    -0.004 C 
ATOM      7  C   LIG    1       24.038 -23.504   6.904  0.00  0.00    +0.019 C 
ATOM      8  C   LIG    1       23.885 -22.078   7.452  0.00  0.00    +0.085 C 
BRANCH   6   9
ATOM      9  C   LIG    1       25.229 -24.857   5.135  0.00  0.00    +0.038 C 
BRANCH   9  10
ATOM     10  C   LIG    1       25.128 -26.117   5.975  0.00  0.00    -0.047 A 
ATOM     11  C   LIG    1       26.015 -26.384   7.027  0.00  0.00    +0.003 A 
ATOM     12  C   LIG    1       26.022 -27.640   7.651  0.00  0.00    +0.000 A 
ATOM     13  C   LIG    1       25.141 -28.641   7.239  0.00  0.00    +0.000 A 
ATOM     14  C   LIG    1       24.229 -28.377   6.222  0.00  0.00    +0.000 A 
ATOM     15  C   LIG    1       24.221 -27.126   5.600  0.00  0.00    +0.003 A 
ENDBRANCH   9  10
ENDBRANCH   6   9
ENDBRANCH   2   3
BRANCH   2  16
ATOM     16  C   LIG    1       27.227 -20.108   6.475  0.00  0.00    +0.161 C 
BRANCH  16  17
ATOM     17  C   LIG    1       28.648 -20.040   7.023  0.00  0.00    -0.017 A 
ATOM     18  C   LIG    1       29.276 -21.151   7.600  0.00  0.00    +0.010 A 
ATOM     19  C   LIG    1       30.432 -21.036   8.363  0.00  0.00    +0.046 A 
ATOM     20  C   LIG    1       31.062 -19.788   8.423  0.00  0.00    +0.117 A 
ATOM     21  C   LIG    1       30.549 -18.710   7.728  0.00  0.00    +0.046 A 
ATOM     22  C   LIG    1       29.343 -18.817   7.031  0.00  0.00    +0.010 A 
BRANCH  20  23
ATOM     23  O   LIG    1       32.167 -19.689   9.210  0.00  0.00    -0.507 OA
ATOM     24  H   LIG    1       32.928 -20.068   8.724  0.00  0.00    +0.292 HD
ENDBRANCH  20  23
ENDBRANCH  16  17
BRANCH  16  25
ATOM     25  O   LIG    1       27.282 -20.386   5.068  0.00  0.00    -0.386 OA
ATOM     26  H   LIG    1       26.616 -21.066   4.873  0.00  0.00    +0.210 HD
ENDBRANCH  16  25
ENDBRANCH   2  16
TORSDOF 7
ENDMDL
MODEL 4
REMARK VINA RESULT:      -9.0      2.721      8.374
REMARK  Name = *****
REMARK                            x       y       z     vdW  Elec       q    Type
REMARK                         _______ _______ _______ _____ _____    ______ ____
ROOT
ATOM      1  C   LIG    1       26.513 -21.109   8.700  0.00  0.00    +0.027 C 
ATOM      2  C   LIG    1       26.689 -20.598   7.237  0.00  0.00    +0.086 C 
ENDROOT
BRANCH   2   3
ATOM      3  N   LIG    1       28.016 -21.072   6.735  0.00  0.00    -0.297 NA
ATOM      4  C   LIG    1       28.721 -20.224   5.775  0.00  0.00    +0.085 C 
ATOM      5  C   LIG    1       29.284 -18.909   6.310  0.00  0.00    +0.019 C 
ATOM      6  C   LIG    1       30.059 -19.017   7.628  0.00  0.00    -0.004 C 
ATOM      7  C   LIG    1       29.698 -20.273   8.467  0.00  0.00    +0.019 C 
ATOM      8  C   LIG    1       29.019 -21.442   7.741  0.00  0.00    +0.085 C 
BRANCH   6   9
ATOM      9  C   LIG    1       29.849 -17.752   8.510  0.00  0.00    +0.038 C 
BRANCH   9  10
ATOM     10  C   LIG    1       30.885 -17.353   9.546  0.00  0.00    -0.047 A 
ATOM     11  C   LIG    1       30.623 -17.410  10.921  0.00  0.00    +0.003 A 
ATOM     12  C   LIG    1       31.522 -16.850  11.840  0.00  0.00    +0.000 A 
ATOM     13  C   LIG    1       32.694 -16.234  11.400  0.00  0.00    +0.000 A 
ATOM     14  C   LIG    1       32.985 -16.204  10.041  0.00  0.00    +0.000 A 
ATOM     15  C   LIG    1       32.090 -16.763   9.124  0.00  0.00    +0.003 A 
ENDBRANCH   9  10
ENDBRANCH   6   9
ENDBRANCH   2   3
BRANCH   2  16
ATOM     16  C   LIG    1       25.359 -21.053   6.446  0.00  0.00    +0.161 C 
BRANCH  16  17
ATOM     17  C   LIG    1       24.960 -22.520   6.573  0.00  0.00    -0.017 A 
ATOM     18  C   LIG    1       25.899 -23.555   6.490  0.00  0.00    +0.010 A 
ATOM     19  C   LIG    1       25.526 -24.882   6.304  0.00  0.00    +0.046 A 
ATOM     20  C   LIG    1       24.164 -25.197   6.353  0.00  0.00    +0.117 A 
ATOM     21  C   LIG    1       23.225 -24.214   6.595  0.00  0.00    +0.046 A 
ATOM     22  C   LIG    1       23.604 -22.873   6.700  0.00  0.00    +0.010 A 
BRANCH  20  23
ATOM     23  O   LIG    1       23.820 -26.494   6.125  0.00  0.00    -0.507 OA
ATOM     24  H   LIG    1       23.995 -26.700   5.184  0.00  0.00    +0.292 HD
ENDBRANCH  20  23
ENDBRANCH  16  17
BRANCH  16  25
ATOM     25  O   LIG    1       24.225 -20.232   6.761  0.00  0.00    -0.386 OA
ATOM     26  H   LIG    1       24.283 -19.995   7.702  0.00  0.00    +0.210 HD
ENDBRANCH  16  25
ENDBRANCH   2  16
TORSDOF 7
ENDMDL
MODEL 5
REMARK VINA RESULT:      -9.0      2.433      6.546
REMARK  Name = *****
REMARK                            x       y       z     vdW  Elec       q    Type
REMARK                         _______ _______ _______ _____ _____    ______ ____
ROOT
ATOM      1  C   LIG    1       22.659 -23.311   7.015  0.00  0.00    +0.027 C 
ATOM      2  C   LIG    1       23.184 -22.604   5.728  0.00  0.00    +0.086 C 
ENDROOT
BRANCH   2   3
ATOM      3  N   LIG    1       23.218 -21.130   5.988  0.00  0.00    -0.297 NA
ATOM      4  C   LIG    1       23.525 -20.688   7.348  0.00  0.00    +0.085 C 
ATOM      5  C   LIG    1       24.958 -20.906   7.830  0.00  0.00    +0.019 C 
ATOM      6  C   LIG    1       26.052 -20.474   6.847  0.00  0.00    -0.004 C 
ATOM      7  C   LIG    1       25.578 -20.409   5.369  0.00  0.00    +0.019 C 
ATOM      8  C   LIG    1       24.067 -20.316   5.112  0.00  0.00    +0.085 C 
BRANCH   6   9
ATOM      9  C   LIG    1       27.288 -21.415   6.930  0.00  0.00    +0.038 C 
BRANCH   9  10
ATOM     10  C   LIG    1       28.688 -20.841   7.059  0.00  0.00    -0.047 A 
ATOM     11  C   LIG    1       29.570 -21.248   8.068  0.00  0.00    +0.003 A 
ATOM     12  C   LIG    1       30.774 -20.561   8.281  0.00  0.00    +0.000 A 
ATOM     13  C   LIG    1       31.115 -19.466   7.486  0.00  0.00    +0.000 A 
ATOM     14  C   LIG    1       30.267 -19.075   6.455  0.00  0.00    +0.000 A 
ATOM     15  C   LIG    1       29.067 -19.760   6.242  0.00  0.00    +0.003 A 
ENDBRANCH   9  10
ENDBRANCH   6   9
ENDBRANCH   2   3
BRANCH   2  16
ATOM     16  C   LIG    1       24.562 -23.349   5.344  0.00  0.00    +0.161 C 
BRANCH  16  17
ATOM     17  C   LIG    1       24.773 -24.739   5.937  0.00  0.00    -0.017 A 
ATOM     18  C   LIG    1       25.774 -24.999   6.881  0.00  0.00    +0.010 A 
ATOM     19  C   LIG    1       26.173 -26.292   7.202  0.00  0.00    +0.046 A 
ATOM     20  C   LIG    1       25.441 -27.359   6.670  0.00  0.00    +0.117 A 
ATOM     21  C   LIG    1       24.346 -27.124   5.862  0.00  0.00    +0.046 A 
ATOM     22  C   LIG    1       24.003 -25.824   5.481  0.00  0.00    +0.010 A 
BRANCH  20  23
ATOM     23  O   LIG    1       25.875 -28.615   6.962  0.00  0.00    -0.507 OA
ATOM     24  H   LIG    1       25.165 -29.083   7.447  0.00  0.00    +0.292 HD
ENDBRANCH  20  23
ENDBRANCH  16  17
BRANCH  16  25
ATOM     25  O   LIG    1       24.776 -23.410   3.926  0.00  0.00    -0.386 OA
ATOM     26  H   LIG    1       25.721 -23.576   3.775  0.00  0.00    +0.210 HD
ENDBRANCH  16  25
ENDBRANCH   2  16
TORSDOF 7
ENDMDL
MODEL 6
REMARK VINA RESULT:      -9.0      1.610      2.223
REMARK  Name = *****
REMARK                            x       y       z     vdW  Elec       q    Type
REMARK                         _______ _______ _______ _____ _____    ______ ____
ROOT
ATOM      1  C   LIG    1       25.114 -20.806   7.941  0.00  0.00    +0.027 C 
ATOM      2  C   LIG    1       25.553 -21.399   6.567  0.00  0.00    +0.086 C 
ENDROOT
BRANCH   2   3
ATOM      3  N   LIG    1       24.324 -21.852   5.842  0.00  0.00    -0.297 NA
ATOM      4  C   LIG    1       24.506 -22.655   4.634  0.00  0.00    +0.085 C 
ATOM      5  C   LIG    1       25.033 -24.075   4.831  0.00  0.00    +0.019 C 
ATOM      6  C   LIG    1       24.340 -24.883   5.934  0.00  0.00    -0.004 C 
ATOM      7  C   LIG    1       23.634 -24.007   7.004  0.00  0.00    +0.019 C 
ATOM      8  C   LIG    1       23.305 -22.555   6.629  0.00  0.00    +0.085 C 
BRANCH   6   9
ATOM      9  C   LIG    1       25.343 -25.832   6.652  0.00  0.00    +0.038 C 
BRANCH   9  10
ATOM     10  C   LIG    1       25.129 -27.335   6.636  0.00  0.00    -0.047 A 
ATOM     11  C   LIG    1       24.356 -27.967   5.654  0.00  0.00    +0.003 A 
ATOM     12  C   LIG    1       24.014 -29.322   5.779  0.00  0.00    +0.000 A 
ATOM     13  C   LIG    1       24.446 -30.062   6.880  0.00  0.00    +0.000 A 
ATOM     14  C   LIG    1       25.246 -29.458   7.843  0.00  0.00    +0.000 A 
ATOM     15  C   LIG    1       25.588 -28.108   7.719  0.00  0.00    +0.003 A 
ENDBRANCH   9  10
ENDBRANCH   6   9
ENDBRANCH   2   3
BRANCH   2  16
ATOM     16  C   LIG    1       26.482 -20.275   5.877  0.00  0.00    +0.161 C 
BRANCH  16  17
ATOM     17  C   LIG    1       27.947 -20.248   6.301  0.00  0.00    -0.017 A 
ATOM     18  C   LIG    1       28.479 -21.188   7.193  0.00  0.00    +0.010 A 
ATOM     19  C   LIG    1       29.709 -21.005   7.815  0.00  0.00    +0.046 A 
ATOM     20  C   LIG    1       30.496 -19.920   7.414  0.00  0.00    +0.117 A 
ATOM     21  C   LIG    1       30.062 -19.068   6.418  0.00  0.00    +0.046 A 
ATOM     22  C   LIG    1       28.790 -19.213   5.857  0.00  0.00    +0.010 A 
BRANCH  20  23
ATOM     23  O   LIG    1       31.676 -19.737   8.067  0.00  0.00    -0.507 OA
ATOM     24  H   LIG    1       31.526 -19.116   8.809  0.00  0.00    +0.292 HD
ENDBRANCH  20  23
ENDBRANCH  16  17
BRANCH  16  25
ATOM     25  O   LIG    1       26.412 -20.311   4.443  0.00  0.00    -0.386 OA
ATOM     26  H   LIG    1       27.036 -20.988   4.133  0.00  0.00    +0.210 HD
ENDBRANCH  16  25
ENDBRANCH   2  16
TORSDOF 7
ENDMDL
MODEL 7
REMARK VINA RESULT:      -8.9      3.428      8.597
REMARK  Name = *****
REMARK                            x       y       z     vdW  Elec       q    Type
REMARK                         _______ _______ _______ _____ _____    ______ ____
ROOT
ATOM      1  C   LIG    1       26.992 -20.417   8.630  0.00  0.00    +0.027 C 
ATOM      2  C   LIG    1       26.956 -20.444   7.071  0.00  0.00    +0.086 C 
ENDROOT
BRANCH   2   3
ATOM      3  N   LIG    1       28.307 -20.864   6.583  0.00  0.00    -0.297 NA
ATOM      4  C   LIG    1       29.015 -19.956   5.681  0.00  0.00    +0.085 C 
ATOM      5  C   LIG    1       29.532 -18.653   6.291  0.00  0.00    +0.019 C 
ATOM      6  C   LIG    1       30.276 -18.804   7.622  0.00  0.00    -0.004 C 
ATOM      7  C   LIG    1       29.925 -20.106   8.394  0.00  0.00    +0.019 C 
ATOM      8  C   LIG    1       29.293 -21.256   7.597  0.00  0.00    +0.085 C 
BRANCH   6   9
ATOM      9  C   LIG    1       30.013 -17.588   8.556  0.00  0.00    +0.038 C 
BRANCH   9  10
ATOM     10  C   LIG    1       31.000 -17.227   9.651  0.00  0.00    -0.047 A 
ATOM     11  C   LIG    1       30.708 -17.415  11.008  0.00  0.00    +0.003 A 
ATOM     12  C   LIG    1       31.553 -16.891  11.998  0.00  0.00    +0.000 A 
ATOM     13  C   LIG    1       32.702 -16.182  11.645  0.00  0.00    +0.000 A 
ATOM     14  C   LIG    1       33.025 -16.021  10.302  0.00  0.00    +0.000 A 
ATOM     15  C   LIG    1       32.183 -16.544   9.316  0.00  0.00    +0.003 A 
ENDBRANCH   9  10
ENDBRANCH   6   9
ENDBRANCH   2   3
BRANCH   2  16
ATOM     16  C   LIG    1       25.680 -21.346   6.673  0.00  0.00    +0.161 C 
BRANCH  16  17
ATOM     17  C   LIG    1       24.646 -20.699   5.757  0.00  0.00    -0.017 A 
ATOM     18  C   LIG    1       25.009 -20.054   4.568  0.00  0.00    +0.010 A 
ATOM     19  C   LIG    1       24.138 -19.212   3.886  0.00  0.00    +0.046 A 
ATOM     20  C   LIG    1       22.813 -19.135   4.329  0.00  0.00    +0.117 A 
ATOM     21  C   LIG    1       22.389 -19.888   5.406  0.00  0.00    +0.046 A 
ATOM     22  C   LIG    1       23.292 -20.668   6.134  0.00  0.00    +0.010 A 
BRANCH  20  23
ATOM     23  O   LIG    1       21.990 -18.273   3.673  0.00  0.00    -0.507 OA
ATOM     24  H   LIG    1       21.190 -18.131   4.220  0.00  0.00    +0.292 HD
ENDBRANCH  20  23
ENDBRANCH  16  17
BRANCH  16  25
ATOM     25  O   LIG    1       26.057 -22.618   6.125  0.00  0.00    -0.386 OA
ATOM     26  H   LIG    1       25.641 -23.309   6.666  0.00  0.00    +0.210 HD
ENDBRANCH  16  25
ENDBRANCH   2  16
TORSDOF 7
ENDMDL
MODEL 8
REMARK VINA RESULT:      -8.8      2.448      4.572
REMARK  Name = *****
REMARK                            x       y       z     vdW  Elec       q    Type
REMARK                         _______ _______ _______ _____ _____    ______ ____
ROOT
ATOM      1  C   LIG    1       29.466 -21.859   7.987  0.00  0.00    +0.027 C 
ATOM      2  C   LIG    1       28.117 -21.223   7.531  0.00  0.00    +0.086 C 
ENDROOT
BRANCH   2   3
ATOM      3  N   LIG    1       27.091 -21.506   8.584  0.00  0.00    -0.297 NA
ATOM      4  C   LIG    1       25.967 -20.577   8.704  0.00  0.00    +0.085 C 
ATOM      5  C   LIG    1       24.947 -20.589   7.567  0.00  0.00    +0.019 C 
ATOM      6  C   LIG    1       24.473 -21.979   7.128  0.00  0.00    -0.004 C 
ATOM      7  C   LIG    1       25.458 -23.123   7.492  0.00  0.00    +0.019 C 
ATOM      8  C   LIG    1       26.493 -22.846   8.591  0.00  0.00    +0.085 C 
BRANCH   6   9
ATOM      9  C   LIG    1       24.203 -22.024   5.596  0.00  0.00    +0.038 C 
BRANCH   9  10
ATOM     10  C   LIG    1       23.802 -20.768   4.845  0.00  0.00    -0.047 A 
ATOM     11  C   LIG    1       24.698 -20.077   4.018  0.00  0.00    +0.003 A 
ATOM     12  C   LIG    1       24.362 -18.818   3.500  0.00  0.00    +0.000 A 
ATOM     13  C   LIG    1       23.128 -18.237   3.793  0.00  0.00    +0.000 A 
ATOM     14  C   LIG    1       22.214 -18.928   4.581  0.00  0.00    +0.000 A 
ATOM     15  C   LIG    1       22.548 -20.183   5.097  0.00  0.00    +0.003 A 
ENDBRANCH   9  10
ENDBRANCH   6   9
ENDBRANCH   2   3
BRANCH   2  16
ATOM     16  C   LIG    1       28.449 -19.685   7.175  0.00  0.00    +0.161 C 
BRANCH  16  17
ATOM     17  C   LIG    1       29.661 -19.072   7.869  0.00  0.00    -0.017 A 
ATOM     18  C   LIG    1       29.549 -18.374   9.079  0.00  0.00    +0.010 A 
ATOM     19  C   LIG    1       30.570 -17.565   9.564  0.00  0.00    +0.046 A 
ATOM     20  C   LIG    1       31.796 -17.575   8.892  0.00  0.00    +0.117 A 
ATOM     21  C   LIG    1       31.983 -18.380   7.785  0.00  0.00    +0.046 A 
ATOM     22  C   LIG    1       30.927 -19.128   7.259  0.00  0.00    +0.010 A 
BRANCH  20  23
ATOM     23  O   LIG    1       32.766 -16.742   9.359  0.00  0.00    -0.507 OA
ATOM     24  H   LIG    1       33.324 -17.241   9.991  0.00  0.00    +0.292 HD
ENDBRANCH  20  23
ENDBRANCH  16  17
BRANCH  16  25
ATOM     25  O   LIG    1       28.559 -19.461   5.762  0.00  0.00    -0.386 OA
ATOM     26  H   LIG    1       29.217 -18.760   5.623  0.00  0.00    +0.210 HD
ENDBRANCH  16  25
ENDBRANCH   2  16
TORSDOF 7
ENDMDL
MODEL 9
REMARK VINA RESULT:      -7.9      2.646      4.550
REMARK  Name = *****
REMARK                            x       y       z     vdW  Elec       q    Type
REMARK                         _______ _______ _______ _____ _____    ______ ____
ROOT
ATOM      1  C   LIG    1       22.820 -23.652   6.465  0.00  0.00    +0.027 C 
ATOM      2  C   LIG    1       24.253 -23.622   7.080  0.00  0.00    +0.086 C 
ENDROOT
BRANCH   2   3
ATOM      3  N   LIG    1       25.225 -24.013   6.011  0.00  0.00    -0.297 NA
ATOM      4  C   LIG    1       26.392 -24.799   6.409  0.00  0.00    +0.085 C 
ATOM      5  C   LIG    1       26.130 -26.242   6.836  0.00  0.00    +0.019 C 
ATOM      6  C   LIG    1       25.214 -27.044   5.905  0.00  0.00    -0.004 C 
ATOM      7  C   LIG    1       24.287 -26.162   5.024  0.00  0.00    +0.019 C 
ATOM      8  C   LIG    1       24.681 -24.692   4.828  0.00  0.00    +0.085 C 
BRANCH   6   9
ATOM      9  C   LIG    1       24.333 -28.045   6.706  0.00  0.00    +0.038 C 
BRANCH   9  10
ATOM     10  C   LIG    1       24.848 -29.434   7.037  0.00  0.00    -0.047 A 
ATOM     11  C   LIG    1       25.149 -29.824   8.348  0.00  0.00    +0.003 A 
ATOM     12  C   LIG    1       25.808 -31.037   8.597  0.00  0.00    +0.000 A 
ATOM     13  C   LIG    1       26.166 -31.877   7.543  0.00  0.00    +0.000 A 
ATOM     14  C   LIG    1       25.840 -31.521   6.239  0.00  0.00    +0.000 A 
ATOM     15  C   LIG    1       25.183 -30.313   5.990  0.00  0.00    +0.003 A 
ENDBRANCH   9  10
ENDBRANCH   6   9
ENDBRANCH   2   3
BRANCH   2  16
ATOM     16  C   LIG    1       24.409 -22.172   7.769  0.00  0.00    +0.161 C 
BRANCH  16  17
ATOM     17  C   LIG    1       25.448 -21.236   7.159  0.00  0.00    -0.017 A 
ATOM     18  C   LIG    1       25.290 -20.682   5.882  0.00  0.00    +0.010 A 
ATOM     19  C   LIG    1       26.342 -20.082   5.199  0.00  0.00    +0.046 A 
ATOM     20  C   LIG    1       27.551 -19.900   5.878  0.00  0.00    +0.117 A 
ATOM     21  C   LIG    1       27.682 -20.295   7.195  0.00  0.00    +0.046 A 
ATOM     22  C   LIG    1       26.646 -20.969   7.847  0.00  0.00    +0.010 A 
BRANCH  20  23
ATOM     23  O   LIG    1       28.579 -19.351   5.176  0.00  0.00    -0.507 OA
ATOM     24  H   LIG    1       28.991 -18.653   5.725  0.00  0.00    +0.292 HD
ENDBRANCH  20  23
ENDBRANCH  16  17
BRANCH  16  25
ATOM     25  O   LIG    1       23.158 -21.476   7.871  0.00  0.00    -0.386 OA
ATOM     26  H   LIG    1       22.448 -22.116   7.698  0.00  0.00    +0.210 HD
ENDBRANCH  16  25
ENDBRANCH   2  16
TORSDOF 7
ENDMDL
