MODEL 1
REMARK VINA RESULT:      -3.7      0.000      0.000
REMARK  Name = *****
REMARK                            x       y       z     vdW  Elec       q    Type
REMARK                         _______ _______ _______ _____ _____    ______ ____
ROOT
ATOM      1  C   LIG    1       26.154 -14.365   4.197  0.00  0.00    +0.129 C 
ATOM      2  C   LIG    1       26.829 -13.812   2.945  0.00  0.00    +0.236 C 
ATOM      3  O   LIG    1       26.362 -13.934   1.812  0.00  0.00    -0.274 OA
ATOM      4  N   LIG    1       28.035 -13.192   3.108  0.00  0.00    -0.239 N 
ATOM      5  H   LIG    1       28.459 -12.820   2.270  0.00  0.00    +0.159 HD
ATOM      6  C   LIG    1       28.493 -12.674   4.276  0.00  0.00    +0.312 C 
ATOM      7  O   LIG    1       29.384 -11.836   4.298  0.00  0.00    -0.252 OA
ATOM      8  N   LIG    1       27.865 -13.075   5.412  0.00  0.00    -0.239 N 
ATOM      9  H   LIG    1       28.168 -12.625   6.264  0.00  0.00    +0.159 HD
ATOM     10  C   LIG    1       26.655 -13.705   5.472  0.00  0.00    +0.236 C 
ATOM     11  O   LIG    1       26.056 -13.761   6.547  0.00  0.00    -0.274 OA
ENDROOT
BRANCH   1  12
ATOM     12  C   LIG    1       26.443 -15.925   4.264  0.00  0.00    +0.010 C 
ATOM     13  C   LIG    1       27.931 -16.274   4.060  0.00  0.00    +0.009 C 
BRANCH  12  14
ATOM     14  C   LIG    1       25.579 -16.755   3.270  0.00  0.00    +0.004 C 
BRANCH  14  15
ATOM     15  C   LIG    1       25.570 -18.264   3.546  0.00  0.00    -0.003 C 
ATOM     16  C   LIG    1       24.150 -18.810   3.616  0.00  0.00    +0.004 C 
ENDBRANCH  14  15
ENDBRANCH  12  14
ENDBRANCH   1  12
BRANCH   1  17
ATOM     17  C   LIG    1       24.626 -14.078   4.062  0.00  0.00    +0.052 C 
BRANCH  17  19
ATOM     18  C   LIG    1       23.928 -11.861   3.099  0.00  0.00    +0.004 C 
ATOM     19  C   LIG    1       24.238 -12.619   4.160  0.00  0.00    -0.033 C 
ENDBRANCH  17  19
ENDBRANCH   1  17
TORSDOF 5
ENDMDL
MODEL 2
REMARK VINA RESULT:      -2.9      1.936      3.610
REMARK  Name = *****
REMARK                            x       y       z     vdW  Elec       q    Type
REMARK                         _______ _______ _______ _____ _____    ______ ____
ROOT
ATOM      1  C   LIG    1       25.704 -14.671   3.652  0.00  0.00    +0.129 C 
ATOM      2  C   LIG    1       24.596 -13.905   4.370  0.00  0.00    +0.236 C 
ATOM      3  O   LIG    1       24.311 -14.074   5.555  0.00  0.00    -0.274 OA
ATOM      4  N   LIG    1       23.866 -13.023   3.626  0.00  0.00    -0.239 N 
ATOM      5  H   LIG    1       23.146 -12.515   4.122  0.00  0.00    +0.159 HD
ATOM      6  C   LIG    1       24.268 -12.473   2.452  0.00  0.00    +0.312 C 
ATOM      7  O   LIG    1       23.761 -11.447   2.019  0.00  0.00    -0.252 OA
ATOM      8  N   LIG    1       25.309 -13.074   1.819  0.00  0.00    -0.239 N 
ATOM      9  H   LIG    1       25.644 -12.611   0.986  0.00  0.00    +0.159 HD
ATOM     10  C   LIG    1       26.164 -13.979   2.379  0.00  0.00    +0.236 C 
ATOM     11  O   LIG    1       27.227 -14.236   1.812  0.00  0.00    -0.274 OA
ENDROOT
BRANCH   1  12
ATOM     12  C   LIG    1       25.152 -16.117   3.296  0.00  0.00    +0.010 C 
ATOM     13  C   LIG    1       23.827 -16.451   4.009  0.00  0.00    +0.009 C 
BRANCH  12  14
ATOM     14  C   LIG    1       26.182 -17.253   3.562  0.00  0.00    +0.004 C 
BRANCH  14  15
ATOM     15  C   LIG    1       25.654 -18.665   3.278  0.00  0.00    -0.003 C 
ATOM     16  C   LIG    1       25.764 -19.558   4.507  0.00  0.00    +0.004 C 
ENDBRANCH  14  15
ENDBRANCH  12  14
ENDBRANCH   1  12
BRANCH   1  17
ATOM     17  C   LIG    1       26.916 -14.754   4.632  0.00  0.00    +0.052 C 
BRANCH  17  19
ATOM     18  C   LIG    1       28.452 -12.780   4.899  0.00  0.00    +0.004 C 
ATOM     19  C   LIG    1       27.336 -13.436   5.244  0.00  0.00    -0.033 C 
ENDBRANCH  17  19
ENDBRANCH   1  17
TORSDOF 5
ENDMDL
MODEL 3
REMARK VINA RESULT:      -2.6      2.082      4.465
REMARK  Name = *****
REMARK                            x       y       z     vdW  Elec       q    Type
REMARK                         _______ _______ _______ _____ _____    ______ ____
ROOT
ATOM      1  C   LIG    1       25.559 -14.726   3.455  0.00  0.00    +0.129 C 
ATOM      2  C   LIG    1       26.196 -13.824   2.401  0.00  0.00    +0.236 C 
ATOM      3  O   LIG    1       27.246 -14.096   1.820  0.00  0.00    -0.274 OA
ATOM      4  N   LIG    1       25.574 -12.637   2.139  0.00  0.00    -0.239 N 
ATOM      5  H   LIG    1       26.003 -12.060   1.429  0.00  0.00    +0.159 HD
ATOM      6  C   LIG    1       24.272 -12.361   2.411  0.00  0.00    +0.312 C 
ATOM      7  O   LIG    1       23.680 -11.450   1.848  0.00  0.00    -0.252 OA
ATOM      8  N   LIG    1       23.640 -13.191   3.281  0.00  0.00    -0.239 N 
ATOM      9  H   LIG    1       22.654 -13.018   3.415  0.00  0.00    +0.159 HD
ATOM     10  C   LIG    1       24.085 -14.421   3.674  0.00  0.00    +0.236 C 
ATOM     11  O   LIG    1       23.306 -15.196   4.229  0.00  0.00    -0.274 OA
ENDROOT
BRANCH   1  12
ATOM     12  C   LIG    1       26.346 -14.523   4.819  0.00  0.00    +0.010 C 
ATOM     13  C   LIG    1       25.761 -13.397   5.693  0.00  0.00    +0.009 C 
BRANCH  12  14
ATOM     14  C   LIG    1       27.871 -14.280   4.619  0.00  0.00    +0.004 C 
BRANCH  14  15
ATOM     15  C   LIG    1       28.367 -12.919   5.125  0.00  0.00    -0.003 C 
ATOM     16  C   LIG    1       29.142 -12.173   4.047  0.00  0.00    +0.004 C 
ENDBRANCH  14  15
ENDBRANCH  12  14
ENDBRANCH   1  12
BRANCH   1  17
ATOM     17  C   LIG    1       25.686 -16.194   2.942  0.00  0.00    +0.052 C 
BRANCH  17  19
ATOM     18  C   LIG    1       26.492 -18.338   3.982  0.00  0.00    +0.004 C 
ATOM     19  C   LIG    1       26.692 -17.047   3.683  0.00  0.00    -0.033 C 
ENDBRANCH  17  19
ENDBRANCH   1  17
TORSDOF 5
ENDMDL
MODEL 4
REMARK VINA RESULT:      -2.3      1.218      3.613
REMARK  Name = *****
REMARK                            x       y       z     vdW  Elec       q    Type
REMARK                         _______ _______ _______ _____ _____    ______ ____
ROOT
ATOM      1  C   LIG    1       26.105 -14.109   4.030  0.00  0.00    +0.129 C 
ATOM      2  C   LIG    1       26.601 -13.669   5.405  0.00  0.00    +0.236 C 
ATOM      3  O   LIG    1       26.140 -14.097   6.463  0.00  0.00    -0.274 OA
ATOM      4  N   LIG    1       27.578 -12.715   5.438  0.00  0.00    -0.239 N 
ATOM      5  H   LIG    1       27.904 -12.447   6.357  0.00  0.00    +0.159 HD
ATOM      6  C   LIG    1       28.414 -12.418   4.411  0.00  0.00    +0.312 C 
ATOM      7  O   LIG    1       29.474 -11.835   4.596  0.00  0.00    -0.252 OA
ATOM      8  N   LIG    1       28.053 -12.865   3.180  0.00  0.00    -0.239 N 
ATOM      9  H   LIG    1       28.721 -12.701   2.439  0.00  0.00    +0.159 HD
ATOM     10  C   LIG    1       27.106 -13.814   2.924  0.00  0.00    +0.236 C 
ATOM     11  O   LIG    1       27.065 -14.343   1.813  0.00  0.00    -0.274 OA
ENDROOT
BRANCH   1  12
ATOM     12  C   LIG    1       24.747 -13.343   3.729  0.00  0.00    +0.010 C 
ATOM     13  C   LIG    1       24.444 -12.225   4.746  0.00  0.00    +0.009 C 
BRANCH  12  14
ATOM     14  C   LIG    1       23.516 -14.290   3.622  0.00  0.00    +0.004 C 
BRANCH  14  15
ATOM     15  C   LIG    1       23.028 -14.848   4.965  0.00  0.00    -0.003 C 
ATOM     16  C   LIG    1       22.433 -16.241   4.806  0.00  0.00    +0.004 C 
ENDBRANCH  14  15
ENDBRANCH  12  14
ENDBRANCH   1  12
BRANCH   1  17
ATOM     17  C   LIG    1       25.882 -15.652   4.094  0.00  0.00    +0.052 C 
BRANCH  17  19
ATOM     18  C   LIG    1       27.954 -17.047   4.398  0.00  0.00    +0.004 C 
ATOM     19  C   LIG    1       27.040 -16.487   3.593  0.00  0.00    -0.033 C 
ENDBRANCH  17  19
ENDBRANCH   1  17
TORSDOF 5
ENDMDL
MODEL 5
REMARK VINA RESULT:      -2.1      2.445      4.604
REMARK  Name = *****
REMARK                            x       y       z     vdW  Elec       q    Type
REMARK                         _______ _______ _______ _____ _____    ______ ____
ROOT
ATOM      1  C   LIG    1       25.575 -14.565   3.842  0.00  0.00    +0.129 C 
ATOM      2  C   LIG    1       26.786 -15.468   3.621  0.00  0.00    +0.236 C 
ATOM      3  O   LIG    1       27.949 -15.075   3.707  0.00  0.00    -0.274 OA
ATOM      4  N   LIG    1       26.542 -16.763   3.265  0.00  0.00    -0.239 N 
ATOM      5  H   LIG    1       27.356 -17.348   3.137  0.00  0.00    +0.159 HD
ATOM      6  C   LIG    1       25.374 -17.422   3.475  0.00  0.00    +0.312 C 
ATOM      7  O   LIG    1       25.320 -18.645   3.473  0.00  0.00    -0.252 OA
ATOM      8  N   LIG    1       24.284 -16.662   3.759  0.00  0.00    -0.239 N 
ATOM      9  H   LIG    1       23.441 -17.170   3.985  0.00  0.00    +0.159 HD
ATOM     10  C   LIG    1       24.306 -15.351   4.138  0.00  0.00    +0.236 C 
ATOM     11  O   LIG    1       23.300 -14.851   4.643  0.00  0.00    -0.274 OA
ENDROOT
BRANCH   1  12
ATOM     12  C   LIG    1       25.361 -13.697   2.529  0.00  0.00    +0.010 C 
ATOM     13  C   LIG    1       26.442 -12.616   2.336  0.00  0.00    +0.009 C 
BRANCH  12  14
ATOM     14  C   LIG    1       23.953 -13.038   2.449  0.00  0.00    +0.004 C 
BRANCH  14  15
ATOM     15  C   LIG    1       23.914 -11.571   2.896  0.00  0.00    -0.003 C 
ATOM     16  C   LIG    1       23.566 -11.448   4.373  0.00  0.00    +0.004 C 
ENDBRANCH  14  15
ENDBRANCH  12  14
ENDBRANCH   1  12
BRANCH   1  17
ATOM     17  C   LIG    1       25.892 -13.661   5.073  0.00  0.00    +0.052 C 
BRANCH  17  19
ATOM     18  C   LIG    1       28.138 -12.582   5.417  0.00  0.00    +0.004 C 
ATOM     19  C   LIG    1       27.341 -13.656   5.507  0.00  0.00    -0.033 C 
ENDBRANCH  17  19
ENDBRANCH   1  17
TORSDOF 5
ENDMDL
MODEL 6
REMARK VINA RESULT:      -2.0      0.916      1.717
REMARK  Name = *****
REMARK                            x       y       z     vdW  Elec       q    Type
REMARK                         _______ _______ _______ _____ _____    ______ ____
ROOT
ATOM      1  C   LIG    1       26.296 -14.339   3.989  0.00  0.00    +0.129 C 
ATOM      2  C   LIG    1       26.747 -13.407   2.867  0.00  0.00    +0.236 C 
ATOM      3  O   LIG    1       26.128 -13.265   1.813  0.00  0.00    -0.274 OA
ATOM      4  N   LIG    1       27.926 -12.741   3.046  0.00  0.00    -0.239 N 
ATOM      5  H   LIG    1       28.201 -12.119   2.299  0.00  0.00    +0.159 HD
ATOM      6  C   LIG    1       28.519 -12.514   4.246  0.00  0.00    +0.312 C 
ATOM      7  O   LIG    1       29.353 -11.631   4.390  0.00  0.00    -0.252 OA
ATOM      8  N   LIG    1       28.088 -13.264   5.294  0.00  0.00    -0.239 N 
ATOM      9  H   LIG    1       28.485 -13.032   6.193  0.00  0.00    +0.159 HD
ATOM     10  C   LIG    1       26.939 -14.000   5.325  0.00  0.00    +0.236 C 
ATOM     11  O   LIG    1       26.507 -14.400   6.407  0.00  0.00    -0.274 OA
ENDROOT
BRANCH   1  12
ATOM     12  C   LIG    1       26.683 -15.824   3.581  0.00  0.00    +0.010 C 
ATOM     13  C   LIG    1       25.497 -16.804   3.669  0.00  0.00    +0.009 C 
BRANCH  12  14
ATOM     14  C   LIG    1       27.883 -16.393   4.393  0.00  0.00    +0.004 C 
BRANCH  14  15
ATOM     15  C   LIG    1       27.875 -17.919   4.550  0.00  0.00    -0.003 C 
ATOM     16  C   LIG    1       29.017 -18.394   5.438  0.00  0.00    +0.004 C 
ENDBRANCH  14  15
ENDBRANCH  12  14
ENDBRANCH   1  12
BRANCH   1  17
ATOM     17  C   LIG    1       24.751 -14.175   4.131  0.00  0.00    +0.052 C 
BRANCH  17  19
ATOM     18  C   LIG    1       23.936 -11.808   3.881  0.00  0.00    +0.004 C 
ATOM     19  C   LIG    1       24.296 -12.835   4.665  0.00  0.00    -0.033 C 
ENDBRANCH  17  19
ENDBRANCH   1  17
TORSDOF 5
ENDMDL
MODEL 7
REMARK VINA RESULT:      -1.9      2.522      4.685
REMARK  Name = *****
REMARK                            x       y       z     vdW  Elec       q    Type
REMARK                         _______ _______ _______ _____ _____    ______ ____
ROOT
ATOM      1  C   LIG    1       24.854 -14.538   3.750  0.00  0.00    +0.129 C 
ATOM      2  C   LIG    1       23.799 -15.518   4.257  0.00  0.00    +0.236 C 
ATOM      3  O   LIG    1       22.703 -15.169   4.696  0.00  0.00    -0.274 OA
ATOM      4  N   LIG    1       24.127 -16.844   4.255  0.00  0.00    -0.239 N 
ATOM      5  H   LIG    1       23.411 -17.478   4.581  0.00  0.00    +0.159 HD
ATOM      6  C   LIG    1       25.106 -17.404   3.498  0.00  0.00    +0.312 C 
ATOM      7  O   LIG    1       25.123 -18.604   3.262  0.00  0.00    -0.252 OA
ATOM      8  N   LIG    1       26.020 -16.558   2.956  0.00  0.00    -0.239 N 
ATOM      9  H   LIG    1       26.697 -16.980   2.337  0.00  0.00    +0.159 HD
ATOM     10  C   LIG    1       25.888 -15.203   2.854  0.00  0.00    +0.236 C 
ATOM     11  O   LIG    1       26.633 -14.579   2.098  0.00  0.00    -0.274 OA
ENDROOT
BRANCH   1  12
ATOM     12  C   LIG    1       25.581 -13.903   5.011  0.00  0.00    +0.010 C 
ATOM     13  C   LIG    1       25.246 -12.412   5.215  0.00  0.00    +0.009 C 
BRANCH  12  14
ATOM     14  C   LIG    1       27.127 -14.085   4.986  0.00  0.00    +0.004 C 
BRANCH  14  15
ATOM     15  C   LIG    1       27.921 -12.790   5.207  0.00  0.00    -0.003 C 
ATOM     16  C   LIG    1       28.868 -12.513   4.048  0.00  0.00    +0.004 C 
ENDBRANCH  14  15
ENDBRANCH  12  14
ENDBRANCH   1  12
BRANCH   1  17
ATOM     17  C   LIG    1       24.109 -13.449   2.917  0.00  0.00    +0.052 C 
BRANCH  17  19
ATOM     18  C   LIG    1       25.225 -11.452   1.871  0.00  0.00    +0.004 C 
ATOM     19  C   LIG    1       24.950 -12.763   1.863  0.00  0.00    -0.033 C 
ENDBRANCH  17  19
ENDBRANCH   1  17
TORSDOF 5
ENDMDL
MODEL 8
REMARK VINA RESULT:      -1.7      1.681      2.470
REMARK  Name = *****
REMARK                            x       y       z     vdW  Elec       q    Type
REMARK                         _______ _______ _______ _____ _____    ______ ____
ROOT
ATOM      1  C   LIG    1       24.447 -13.846   3.559  0.00  0.00    +0.129 C 
ATOM      2  C   LIG    1       25.815 -14.395   3.162  0.00  0.00    +0.236 C 
ATOM      3  O   LIG    1       26.043 -14.926   2.075  0.00  0.00    -0.274 OA
ATOM      4  N   LIG    1       26.810 -14.322   4.093  0.00  0.00    -0.239 N 
ATOM      5  H   LIG    1       27.712 -14.677   3.806  0.00  0.00    +0.159 HD
ATOM      6  C   LIG    1       26.824 -13.476   5.155  0.00  0.00    +0.312 C 
ATOM      7  O   LIG    1       27.864 -13.197   5.737  0.00  0.00    -0.252 OA
ATOM      8  N   LIG    1       25.642 -12.898   5.493  0.00  0.00    -0.239 N 
ATOM      9  H   LIG    1       25.683 -12.216   6.237  0.00  0.00    +0.159 HD
ATOM     10  C   LIG    1       24.526 -12.854   4.709  0.00  0.00    +0.236 C 
ATOM     11  O   LIG    1       23.621 -12.067   4.990  0.00  0.00    -0.274 OA
ENDROOT
BRANCH   1  12
ATOM     12  C   LIG    1       23.530 -15.071   3.984  0.00  0.00    +0.010 C 
ATOM     13  C   LIG    1       22.842 -14.868   5.348  0.00  0.00    +0.009 C 
BRANCH  12  14
ATOM     14  C   LIG    1       24.283 -16.434   3.984  0.00  0.00    +0.004 C 
BRANCH  14  15
ATOM     15  C   LIG    1       23.376 -17.658   4.160  0.00  0.00    -0.003 C 
ATOM     16  C   LIG    1       24.058 -18.931   3.676  0.00  0.00    +0.004 C 
ENDBRANCH  14  15
ENDBRANCH  12  14
ENDBRANCH   1  12
BRANCH   1  17
ATOM     17  C   LIG    1       23.865 -13.110   2.313  0.00  0.00    +0.052 C 
BRANCH  17  19
ATOM     18  C   LIG    1       25.686 -11.447   1.812  0.00  0.00    +0.004 C 
ATOM     19  C   LIG    1       24.401 -11.713   2.087  0.00  0.00    -0.033 C 
ENDBRANCH  17  19
ENDBRANCH   1  17
TORSDOF 5
ENDMDL
MODEL 9
REMARK VINA RESULT:      -1.6      5.033      7.372
REMARK  Name = *****
REMARK                            x       y       z     vdW  Elec       q    Type
REMARK                         _______ _______ _______ _____ _____    ______ ____
ROOT
ATOM      1  C   LIG    1       24.773 -19.936   4.621  0.00  0.00    +0.129 C 
ATOM      2  C   LIG    1       24.027 -20.552   3.440  0.00  0.00    +0.236 C 
ATOM      3  O   LIG    1       24.548 -20.766   2.346  0.00  0.00    -0.274 OA
ATOM      4  N   LIG    1       22.701 -20.828   3.615  0.00  0.00    -0.239 N 
ATOM      5  H   LIG    1       22.228 -21.248   2.827  0.00  0.00    +0.159 HD
ATOM      6  C   LIG    1       22.090 -20.986   4.817  0.00  0.00    +0.312 C 
ATOM      7  O   LIG    1       21.020 -21.572   4.919  0.00  0.00    -0.252 OA
ATOM      8  N   LIG    1       22.757 -20.528   5.908  0.00  0.00    -0.239 N 
ATOM      9  H   LIG    1       22.324 -20.719   6.801  0.00  0.00    +0.159 HD
ATOM     10  C   LIG    1       24.081 -20.198   5.950  0.00  0.00    +0.236 C 
ATOM     11  O   LIG    1       24.638 -20.074   7.042  0.00  0.00    -0.274 OA
ENDROOT
BRANCH   1  12
ATOM     12  C   LIG    1       24.871 -18.370   4.380  0.00  0.00    +0.010 C 
ATOM     13  C   LIG    1       23.509 -17.718   4.072  0.00  0.00    +0.009 C 
BRANCH  12  14
ATOM     14  C   LIG    1       25.891 -17.981   3.269  0.00  0.00    +0.004 C 
BRANCH  14  15
ATOM     15  C   LIG    1       26.893 -16.896   3.683  0.00  0.00    -0.003 C 
ATOM     16  C   LIG    1       26.398 -15.507   3.304  0.00  0.00    +0.004 C 
ENDBRANCH  14  15
ENDBRANCH  12  14
ENDBRANCH   1  12
BRANCH   1  17
ATOM     17  C   LIG    1       26.187 -20.592   4.665  0.00  0.00    +0.052 C 
BRANCH  17  19
ATOM     18  C   LIG    1       28.340 -19.721   5.635  0.00  0.00    +0.004 C 
ATOM     19  C   LIG    1       27.073 -20.128   5.801  0.00  0.00    -0.033 C 
ENDBRANCH  17  19
ENDBRANCH   1  17
TORSDOF 5
ENDMDL
