MODEL 1
REMARK VINA RESULT:      -3.8      0.000      0.000
REMARK  Name = *****
REMARK                            x       y       z     vdW  Elec       q    Type
REMARK                         _______ _______ _______ _____ _____    ______ ____
ROOT
ATOM      1  C   LIG    1       22.586 -18.093   4.019  0.00  0.00    +0.024 C 
ATOM      2  C   LIG    1       23.904 -18.884   3.849  0.00  0.00    +0.054 C 
ATOM      3  C   LIG    1       23.698 -19.834   2.637  0.00  0.00    +0.024 C 
ENDROOT
BRANCH   2   4
ATOM      4  C   LIG    1       24.233 -19.789   5.040  0.00  0.00    -0.016 A 
ATOM      5  C   LIG    1       25.510 -20.320   5.233  0.00  0.00    +0.115 A 
ATOM      6  N   LIG    1       25.842 -21.180   6.228  0.00  0.00    -0.263 NA
ATOM      7  C   LIG    1       24.858 -21.570   7.062  0.00  0.00    +0.111 A 
ATOM      8  C   LIG    1       23.552 -21.137   6.951  0.00  0.00    +0.020 A 
ATOM      9  C   LIG    1       23.242 -20.240   5.930  0.00  0.00    +0.007 A 
ENDBRANCH   2   4
BRANCH   2  10
ATOM     10  C   LIG    1       25.030 -17.883   3.464  0.00  0.00    +0.174 C 
ATOM     11  O   LIG    1       26.074 -18.267   2.931  0.00  0.00    -0.291 OA
BRANCH  10  12
ATOM     12  C   LIG    1       24.894 -16.409   3.657  0.00  0.00    +0.036 A 
ATOM     13  C   LIG    1       23.758 -15.775   4.128  0.00  0.00    +0.122 A 
ATOM     14  N   LIG    1       23.665 -14.430   4.328  0.00  0.00    -0.263 NA
ATOM     15  C   LIG    1       24.764 -13.685   4.057  0.00  0.00    +0.111 A 
ATOM     16  C   LIG    1       25.946 -14.221   3.582  0.00  0.00    +0.020 A 
ATOM     17  C   LIG    1       26.011 -15.600   3.383  0.00  0.00    +0.014 A 
ENDBRANCH  10  12
ENDBRANCH   2  10
TORSDOF 3
ENDMDL
MODEL 2
REMARK VINA RESULT:      -3.7      2.754      6.288
REMARK  Name = *****
REMARK                            x       y       z     vdW  Elec       q    Type
REMARK                         _______ _______ _______ _____ _____    ______ ____
ROOT
ATOM      1  C   LIG    1       24.193 -13.451   2.124  0.00  0.00    +0.024 C 
ATOM      2  C   LIG    1       24.550 -13.535   3.626  0.00  0.00    +0.054 C 
ATOM      3  C   LIG    1       23.882 -12.312   4.311  0.00  0.00    +0.024 C 
ENDROOT
BRANCH   2   4
ATOM      4  C   LIG    1       26.049 -13.407   3.907  0.00  0.00    -0.016 A 
ATOM      5  C   LIG    1       26.549 -13.271   5.204  0.00  0.00    +0.115 A 
ATOM      6  N   LIG    1       27.857 -13.085   5.508  0.00  0.00    -0.263 NA
ATOM      7  C   LIG    1       28.724 -12.993   4.480  0.00  0.00    +0.111 A 
ATOM      8  C   LIG    1       28.343 -13.081   3.156  0.00  0.00    +0.020 A 
ATOM      9  C   LIG    1       26.995 -13.290   2.873  0.00  0.00    +0.007 A 
ENDBRANCH   2   4
BRANCH   2  10
ATOM     10  C   LIG    1       23.885 -14.813   4.216  0.00  0.00    +0.174 C 
ATOM     11  O   LIG    1       22.908 -14.738   4.964  0.00  0.00    -0.291 OA
BRANCH  10  12
ATOM     12  C   LIG    1       24.346 -16.190   3.871  0.00  0.00    +0.036 A 
ATOM     13  C   LIG    1       25.612 -16.507   3.411  0.00  0.00    +0.122 A 
ATOM     14  N   LIG    1       26.023 -17.777   3.131  0.00  0.00    -0.263 NA
ATOM     15  C   LIG    1       25.131 -18.776   3.334  0.00  0.00    +0.111 A 
ATOM     16  C   LIG    1       23.844 -18.565   3.789  0.00  0.00    +0.020 A 
ATOM     17  C   LIG    1       23.449 -17.255   4.064  0.00  0.00    +0.014 A 
ENDBRANCH  10  12
ENDBRANCH   2  10
TORSDOF 3
ENDMDL
MODEL 3
REMARK VINA RESULT:      -3.6      0.694      1.170
REMARK  Name = *****
REMARK                            x       y       z     vdW  Elec       q    Type
REMARK                         _______ _______ _______ _____ _____    ______ ____
ROOT
ATOM      1  C   LIG    1       22.712 -18.061   3.858  0.00  0.00    +0.024 C 
ATOM      2  C   LIG    1       24.012 -18.893   3.771  0.00  0.00    +0.054 C 
ATOM      3  C   LIG    1       23.846 -19.850   2.559  0.00  0.00    +0.024 C 
ENDROOT
BRANCH   2   4
ATOM      4  C   LIG    1       24.247 -19.792   4.987  0.00  0.00    -0.016 A 
ATOM      5  C   LIG    1       25.470 -20.426   5.213  0.00  0.00    +0.115 A 
ATOM      6  N   LIG    1       25.714 -21.285   6.232  0.00  0.00    -0.263 NA
ATOM      7  C   LIG    1       24.690 -21.568   7.061  0.00  0.00    +0.111 A 
ATOM      8  C   LIG    1       23.428 -21.027   6.920  0.00  0.00    +0.020 A 
ATOM      9  C   LIG    1       23.209 -20.133   5.874  0.00  0.00    +0.007 A 
ENDBRANCH   2   4
BRANCH   2  10
ATOM     10  C   LIG    1       25.188 -17.929   3.438  0.00  0.00    +0.174 C 
ATOM     11  O   LIG    1       26.236 -18.346   2.940  0.00  0.00    -0.291 OA
BRANCH  10  12
ATOM     12  C   LIG    1       25.099 -16.453   3.643  0.00  0.00    +0.036 A 
ATOM     13  C   LIG    1       26.117 -15.556   3.371  0.00  0.00    +0.122 A 
ATOM     14  N   LIG    1       26.005 -14.207   3.535  0.00  0.00    -0.263 NA
ATOM     15  C   LIG    1       24.816 -13.733   3.977  0.00  0.00    +0.111 A 
ATOM     16  C   LIG    1       23.739 -14.545   4.278  0.00  0.00    +0.020 A 
ATOM     17  C   LIG    1       23.883 -15.921   4.105  0.00  0.00    +0.014 A 
ENDBRANCH  10  12
ENDBRANCH   2  10
TORSDOF 3
ENDMDL
MODEL 4
REMARK VINA RESULT:      -3.5      1.523      5.155
REMARK  Name = *****
REMARK                            x       y       z     vdW  Elec       q    Type
REMARK                         _______ _______ _______ _____ _____    ______ ____
ROOT
ATOM      1  C   LIG    1       21.936 -18.957   3.323  0.00  0.00    +0.024 C 
ATOM      2  C   LIG    1       23.186 -18.696   4.195  0.00  0.00    +0.054 C 
ATOM      3  C   LIG    1       22.710 -18.723   5.674  0.00  0.00    +0.024 C 
ENDROOT
BRANCH   2   4
ATOM      4  C   LIG    1       23.806 -17.313   3.980  0.00  0.00    -0.016 A 
ATOM      5  C   LIG    1       25.090 -17.152   3.455  0.00  0.00    +0.115 A 
ATOM      6  N   LIG    1       25.716 -15.958   3.307  0.00  0.00    -0.263 NA
ATOM      7  C   LIG    1       25.059 -14.859   3.729  0.00  0.00    +0.111 A 
ATOM      8  C   LIG    1       23.799 -14.897   4.292  0.00  0.00    +0.020 A 
ATOM      9  C   LIG    1       23.172 -16.135   4.416  0.00  0.00    +0.007 A 
ENDBRANCH   2   4
BRANCH   2  10
ATOM     10  C   LIG    1       24.171 -19.886   4.007  0.00  0.00    +0.174 C 
ATOM     11  O   LIG    1       24.230 -20.506   2.943  0.00  0.00    -0.291 OA
BRANCH  10  12
ATOM     12  C   LIG    1       25.133 -20.307   5.068  0.00  0.00    +0.036 A 
ATOM     13  C   LIG    1       24.836 -21.174   6.104  0.00  0.00    +0.122 A 
ATOM     14  N   LIG    1       25.739 -21.572   7.045  0.00  0.00    -0.263 NA
ATOM     15  C   LIG    1       27.001 -21.091   6.936  0.00  0.00    +0.111 A 
ATOM     16  C   LIG    1       27.398 -20.220   5.940  0.00  0.00    +0.020 A 
ATOM     17  C   LIG    1       26.452 -19.827   4.993  0.00  0.00    +0.014 A 
ENDBRANCH  10  12
ENDBRANCH   2  10
TORSDOF 3
ENDMDL
MODEL 5
REMARK VINA RESULT:      -3.4      1.790      5.441
REMARK  Name = *****
REMARK                            x       y       z     vdW  Elec       q    Type
REMARK                         _______ _______ _______ _____ _____    ______ ____
ROOT
ATOM      1  C   LIG    1       24.500 -20.100   2.685  0.00  0.00    +0.024 C 
ATOM      2  C   LIG    1       24.054 -19.239   3.889  0.00  0.00    +0.054 C 
ATOM      3  C   LIG    1       22.507 -19.126   3.805  0.00  0.00    +0.024 C 
ENDROOT
BRANCH   2   4
ATOM      4  C   LIG    1       24.582 -17.803   3.845  0.00  0.00    -0.016 A 
ATOM      5  C   LIG    1       23.764 -16.706   4.120  0.00  0.00    +0.115 A 
ATOM      6  N   LIG    1       24.158 -15.411   4.030  0.00  0.00    -0.263 NA
ATOM      7  C   LIG    1       25.418 -15.176   3.613  0.00  0.00    +0.111 A 
ATOM      8  C   LIG    1       26.308 -16.179   3.284  0.00  0.00    +0.020 A 
ATOM      9  C   LIG    1       25.883 -17.500   3.402  0.00  0.00    +0.007 A 
ENDBRANCH   2   4
BRANCH   2  10
ATOM     10  C   LIG    1       24.388 -20.015   5.196  0.00  0.00    +0.174 C 
ATOM     11  O   LIG    1       23.497 -20.469   5.917  0.00  0.00    -0.291 OA
BRANCH  10  12
ATOM     12  C   LIG    1       25.789 -20.305   5.622  0.00  0.00    +0.036 A 
ATOM     13  C   LIG    1       26.910 -19.645   5.150  0.00  0.00    +0.122 A 
ATOM     14  N   LIG    1       28.180 -19.903   5.575  0.00  0.00    -0.263 NA
ATOM     15  C   LIG    1       28.333 -20.855   6.527  0.00  0.00    +0.111 A 
ATOM     16  C   LIG    1       27.279 -21.571   7.062  0.00  0.00    +0.020 A 
ATOM     17  C   LIG    1       25.992 -21.289   6.605  0.00  0.00    +0.014 A 
ENDBRANCH  10  12
ENDBRANCH   2  10
TORSDOF 3
ENDMDL
MODEL 6
REMARK VINA RESULT:      -3.1      1.320      5.384
REMARK  Name = *****
REMARK                            x       y       z     vdW  Elec       q    Type
REMARK                         _______ _______ _______ _____ _____    ______ ____
ROOT
ATOM      1  C   LIG    1       21.903 -18.799   3.271  0.00  0.00    +0.024 C 
ATOM      2  C   LIG    1       23.139 -18.617   4.182  0.00  0.00    +0.054 C 
ATOM      3  C   LIG    1       22.641 -18.776   5.645  0.00  0.00    +0.024 C 
ENDROOT
BRANCH   2   4
ATOM      4  C   LIG    1       23.761 -17.221   4.100  0.00  0.00    -0.016 A 
ATOM      5  C   LIG    1       23.051 -16.073   4.456  0.00  0.00    +0.115 A 
ATOM      6  N   LIG    1       23.525 -14.808   4.340  0.00  0.00    -0.263 NA
ATOM      7  C   LIG    1       24.755 -14.655   3.810  0.00  0.00    +0.111 A 
ATOM      8  C   LIG    1       25.538 -15.713   3.393  0.00  0.00    +0.020 A 
ATOM      9  C   LIG    1       25.034 -17.003   3.541  0.00  0.00    +0.007 A 
ENDBRANCH   2   4
BRANCH   2  10
ATOM     10  C   LIG    1       24.128 -19.786   3.903  0.00  0.00    +0.174 C 
ATOM     11  O   LIG    1       24.152 -20.358   2.811  0.00  0.00    -0.291 OA
BRANCH  10  12
ATOM     12  C   LIG    1       25.135 -20.242   4.906  0.00  0.00    +0.036 A 
ATOM     13  C   LIG    1       26.449 -19.810   4.959  0.00  0.00    +0.122 A 
ATOM     14  N   LIG    1       27.345 -20.215   5.903  0.00  0.00    -0.263 NA
ATOM     15  C   LIG    1       26.903 -21.080   6.847  0.00  0.00    +0.111 A 
ATOM     16  C   LIG    1       25.612 -21.572   6.882  0.00  0.00    +0.020 A 
ATOM     17  C   LIG    1       24.717 -21.144   5.901  0.00  0.00    +0.014 A 
ENDBRANCH  10  12
ENDBRANCH   2  10
TORSDOF 3
ENDMDL
MODEL 7
REMARK VINA RESULT:      -3.1      1.348      1.790
REMARK  Name = *****
REMARK                            x       y       z     vdW  Elec       q    Type
REMARK                         _______ _______ _______ _____ _____    ______ ____
ROOT
ATOM      1  C   LIG    1       23.380 -19.415   2.561  0.00  0.00    +0.024 C 
ATOM      2  C   LIG    1       24.124 -18.805   3.771  0.00  0.00    +0.054 C 
ATOM      3  C   LIG    1       25.594 -18.582   3.322  0.00  0.00    +0.024 C 
ENDROOT
BRANCH   2   4
ATOM      4  C   LIG    1       24.193 -19.739   4.983  0.00  0.00    -0.016 A 
ATOM      5  C   LIG    1       25.385 -20.349   5.378  0.00  0.00    +0.115 A 
ATOM      6  N   LIG    1       25.492 -21.237   6.398  0.00  0.00    -0.263 NA
ATOM      7  C   LIG    1       24.360 -21.572   7.048  0.00  0.00    +0.111 A 
ATOM      8  C   LIG    1       23.120 -21.057   6.727  0.00  0.00    +0.020 A 
ATOM      9  C   LIG    1       23.041 -20.134   5.686  0.00  0.00    +0.007 A 
ENDBRANCH   2   4
BRANCH   2  10
ATOM     10  C   LIG    1       23.515 -17.404   4.065  0.00  0.00    +0.174 C 
ATOM     11  O   LIG    1       22.375 -17.284   4.521  0.00  0.00    -0.291 OA
BRANCH  10  12
ATOM     12  C   LIG    1       24.282 -16.138   3.872  0.00  0.00    +0.036 A 
ATOM     13  C   LIG    1       25.547 -16.059   3.316  0.00  0.00    +0.122 A 
ATOM     14  N   LIG    1       26.218 -14.888   3.119  0.00  0.00    -0.263 NA
ATOM     15  C   LIG    1       25.590 -13.744   3.481  0.00  0.00    +0.111 A 
ATOM     16  C   LIG    1       24.328 -13.716   4.044  0.00  0.00    +0.020 A 
ATOM     17  C   LIG    1       23.666 -14.929   4.238  0.00  0.00    +0.014 A 
ENDBRANCH  10  12
ENDBRANCH   2  10
TORSDOF 3
ENDMDL
MODEL 8
REMARK VINA RESULT:      -3.1      2.347      6.039
REMARK  Name = *****
REMARK                            x       y       z     vdW  Elec       q    Type
REMARK                         _______ _______ _______ _____ _____    ______ ____
ROOT
ATOM      1  C   LIG    1       24.812 -14.055   2.157  0.00  0.00    +0.024 C 
ATOM      2  C   LIG    1       25.318 -14.604   3.510  0.00  0.00    +0.054 C 
ATOM      3  C   LIG    1       24.211 -14.299   4.556  0.00  0.00    +0.024 C 
ENDROOT
BRANCH   2   4
ATOM      4  C   LIG    1       26.582 -13.907   4.021  0.00  0.00    -0.016 A 
ATOM      5  C   LIG    1       26.683 -13.424   5.327  0.00  0.00    +0.115 A 
ATOM      6  N   LIG    1       27.747 -12.739   5.813  0.00  0.00    -0.263 NA
ATOM      7  C   LIG    1       28.759 -12.482   4.960  0.00  0.00    +0.111 A 
ATOM      8  C   LIG    1       28.758 -12.883   3.639  0.00  0.00    +0.020 A 
ATOM      9  C   LIG    1       27.659 -13.600   3.170  0.00  0.00    +0.007 A 
ENDBRANCH   2   4
BRANCH   2  10
ATOM     10  C   LIG    1       25.430 -16.152   3.399  0.00  0.00    +0.174 C 
ATOM     11  O   LIG    1       26.470 -16.693   3.013  0.00  0.00    -0.291 OA
BRANCH  10  12
ATOM     12  C   LIG    1       24.324 -17.069   3.803  0.00  0.00    +0.036 A 
ATOM     13  C   LIG    1       23.086 -16.657   4.263  0.00  0.00    +0.122 A 
ATOM     14  N   LIG    1       22.076 -17.510   4.597  0.00  0.00    -0.263 NA
ATOM     15  C   LIG    1       22.311 -18.836   4.450  0.00  0.00    +0.111 A 
ATOM     16  C   LIG    1       23.512 -19.349   3.999  0.00  0.00    +0.020 A 
ATOM     17  C   LIG    1       24.529 -18.453   3.669  0.00  0.00    +0.014 A 
ENDBRANCH  10  12
ENDBRANCH   2  10
TORSDOF 3
ENDMDL
MODEL 9
REMARK VINA RESULT:      -3.0      2.843      6.115
REMARK  Name = *****
REMARK                            x       y       z     vdW  Elec       q    Type
REMARK                         _______ _______ _______ _____ _____    ______ ____
ROOT
ATOM      1  C   LIG    1       24.342 -13.747   1.912  0.00  0.00    +0.024 C 
ATOM      2  C   LIG    1       24.584 -13.573   3.429  0.00  0.00    +0.054 C 
ATOM      3  C   LIG    1       23.828 -12.285   3.855  0.00  0.00    +0.024 C 
ENDROOT
BRANCH   2   4
ATOM      4  C   LIG    1       26.053 -13.337   3.792  0.00  0.00    -0.016 A 
ATOM      5  C   LIG    1       27.052 -13.262   2.820  0.00  0.00    +0.115 A 
ATOM      6  N   LIG    1       28.374 -13.124   3.085  0.00  0.00    -0.263 NA
ATOM      7  C   LIG    1       28.745 -13.092   4.380  0.00  0.00    +0.111 A 
ATOM      8  C   LIG    1       27.851 -13.189   5.428  0.00  0.00    +0.020 A 
ATOM      9  C   LIG    1       26.496 -13.312   5.127  0.00  0.00    +0.007 A 
ENDBRANCH   2   4
BRANCH   2  10
ATOM     10  C   LIG    1       23.915 -14.766   4.172  0.00  0.00    +0.174 C 
ATOM     11  O   LIG    1       22.993 -14.586   4.971  0.00  0.00    -0.291 OA
BRANCH  10  12
ATOM     12  C   LIG    1       24.301 -16.186   3.922  0.00  0.00    +0.036 A 
ATOM     13  C   LIG    1       23.446 -17.268   4.036  0.00  0.00    +0.122 A 
ATOM     14  N   LIG    1       23.810 -18.555   3.772  0.00  0.00    -0.263 NA
ATOM     15  C   LIG    1       25.084 -18.768   3.362  0.00  0.00    +0.111 A 
ATOM     16  C   LIG    1       26.014 -17.756   3.218  0.00  0.00    +0.020 A 
ATOM     17  C   LIG    1       25.615 -16.450   3.498  0.00  0.00    +0.014 A 
ENDBRANCH  10  12
ENDBRANCH   2  10
TORSDOF 3
ENDMDL
