MODEL 1
REMARK VINA RESULT:      -5.7      0.000      0.000
REMARK  Name = *****
REMARK                            x       y       z     vdW  Elec       q    Type
REMARK                         _______ _______ _______ _____ _____    ______ ____
ROOT
ATOM      1  C   LIG    1       25.079 -29.723   7.182  0.00  0.00    +0.167 C 
ATOM      2  N   LIG    1       25.090 -30.469   8.446  0.00  0.00    -0.233 N 
ATOM      3  C   LIG    1       25.979 -31.567   8.664  0.00  0.00    +0.269 C 
ATOM      4  O   LIG    1       25.138 -32.628   9.064  0.00  0.00    -0.298 OA
ATOM      5  C   LIG    1       24.049 -32.078   9.835  0.00  0.00    +0.220 C 
ATOM      6  C   LIG    1       26.846 -31.920   7.440  0.00  0.00    +0.156 C 
ATOM      7  N   LIG    1       26.157 -31.737   6.175  0.00  0.00    -0.290 N 
ATOM      8  C   LIG    1       26.614 -32.686   5.173  0.00  0.00    +0.108 C 
ATOM      9  C   LIG    1       27.758 -33.433   5.864  0.00  0.00    +0.021 C 
ATOM     10  C   LIG    1       27.386 -33.350   7.346  0.00  0.00    +0.031 C 
ATOM     11  C   LIG    1       23.904 -30.731   9.106  0.00  0.00    +0.271 C 
ATOM     12  O   LIG    1       22.930 -29.978   9.136  0.00  0.00    -0.270 OA
ATOM     13  C   LIG    1       25.256 -30.710   5.973  0.00  0.00    +0.237 C 
ATOM     14  O   LIG    1       24.729 -30.512   4.881  0.00  0.00    -0.274 OA
ENDROOT
BRANCH   5  15
ATOM     15  N   LIG    1       24.446 -31.891  11.229  0.00  0.00    -0.279 N 
ATOM     16  H   LIG    1       25.050 -31.102  11.424  0.00  0.00    +0.152 HD
ATOM     17  C   LIG    1       24.141 -32.782  12.237  0.00  0.00    +0.224 C 
ATOM     18  O   LIG    1       23.515 -33.823  12.036  0.00  0.00    -0.275 OA
BRANCH  17  19
ATOM     19  C   LIG    1       24.752 -32.467  13.614  0.00  0.00    +0.112 C 
ATOM     20  C   LIG    1       26.283 -32.236  13.444  0.00  0.00    +0.101 C 
ATOM     21  N   LIG    1       26.851 -31.015  14.054  0.00  0.00    -0.297 NA
ATOM     22  C   LIG    1       27.032 -31.174  15.500  0.00  0.00    +0.105 C 
ATOM     23  C   LIG    1       25.992 -29.850  13.691  0.00  0.00    +0.091 C 
ATOM     24  C   LIG    1       24.544 -30.033  14.213  0.00  0.00    -0.025 C 
ATOM     25  C   LIG    1       23.776 -28.841  14.640  0.00  0.00    -0.011 C 
ATOM     26  C   LIG    1       24.444 -27.618  14.472  0.00  0.00    +0.011 C 
ATOM     27  C   LIG    1       23.816 -26.404  14.716  0.00  0.00    +0.048 C 
ATOM     28  N   LIG    1       24.728 -25.424  14.391  0.00  0.00    -0.349 NA
ATOM     29  H   LIG    1       24.558 -24.430  14.442  0.00  0.00    +0.166 HD
ATOM     30  C   LIG    1       25.917 -25.995  14.019  0.00  0.00    +0.087 C 
ATOM     31 BR   LIG    1       27.440 -25.037  13.545  0.00  0.00    -0.030 Br
ATOM     32  C   LIG    1       22.507 -26.336  15.196  0.00  0.00    +0.026 C 
ATOM     33  C   LIG    1       21.853 -27.554  15.420  0.00  0.00    +0.003 C 
ATOM     34  C   LIG    1       25.782 -27.360  14.090  0.00  0.00    -0.006 C 
ATOM     35  C   LIG    1       22.468 -28.783  15.139  0.00  0.00    +0.009 C 
ATOM     36  C   LIG    1       26.734 -28.486  13.917  0.00  0.00    +0.062 C 
ATOM     37  C   LIG    1       23.997 -31.267  14.164  0.00  0.00    -0.007 C 
ENDBRANCH  17  19
ENDBRANCH   5  15
BRANCH   5  38
ATOM     38  C   LIG    1       22.802 -32.979   9.638  0.00  0.00    +0.043 C 
ATOM     39  C   LIG    1       21.495 -32.237   9.942  0.00  0.00    +0.012 C 
ATOM     40  C   LIG    1       22.707 -33.639   8.259  0.00  0.00    +0.012 C 
ENDBRANCH   5  38
BRANCH   3  41
ATOM     41  O   LIG    1       26.833 -31.197   9.727  0.00  0.00    -0.348 OA
ATOM     42  H   LIG    1       26.358 -31.496  10.526  0.00  0.00    +0.214 HD
ENDBRANCH   3  41
BRANCH   1  43
ATOM     43  C   LIG    1       26.146 -28.612   7.127  0.00  0.00    +0.035 C 
BRANCH  43  45
ATOM     44  C   LIG    1       26.656 -27.191   5.108  0.00  0.00    +0.007 C 
ATOM     45  C   LIG    1       25.781 -27.313   6.363  0.00  0.00    -0.015 C 
ATOM     46  C   LIG    1       24.318 -27.221   5.920  0.00  0.00    +0.007 C 
ENDBRANCH  43  45
ENDBRANCH   1  43
TORSDOF 6
ENDMDL
MODEL 2
REMARK VINA RESULT:      -5.6      2.918      3.957
REMARK  Name = *****
REMARK                            x       y       z     vdW  Elec       q    Type
REMARK                         _______ _______ _______ _____ _____    ______ ____
ROOT
ATOM      1  C   LIG    1       25.184 -30.842   5.800  0.00  0.00    +0.167 C 
ATOM      2  N   LIG    1       25.198 -31.132   7.240  0.00  0.00    -0.233 N 
ATOM      3  C   LIG    1       26.297 -31.803   7.862  0.00  0.00    +0.269 C 
ATOM      4  O   LIG    1       25.708 -32.889   8.543  0.00  0.00    -0.298 OA
ATOM      5  C   LIG    1       24.411 -32.475   9.022  0.00  0.00    +0.220 C 
ATOM      6  C   LIG    1       27.399 -32.241   6.877  0.00  0.00    +0.156 C 
ATOM      7  N   LIG    1       26.882 -32.659   5.585  0.00  0.00    -0.290 N 
ATOM      8  C   LIG    1       27.712 -33.691   4.984  0.00  0.00    +0.108 C 
ATOM      9  C   LIG    1       28.894 -33.825   5.949  0.00  0.00    +0.021 C 
ATOM     10  C   LIG    1       28.296 -33.409   7.294  0.00  0.00    +0.031 C 
ATOM     11  C   LIG    1       24.035 -31.516   7.880  0.00  0.00    +0.271 C 
ATOM     12  O   LIG    1       22.907 -31.108   7.601  0.00  0.00    -0.270 OA
ATOM     13  C   LIG    1       25.788 -32.052   5.002  0.00  0.00    +0.237 C 
ATOM     14  O   LIG    1       25.397 -32.357   3.877  0.00  0.00    -0.274 OA
ENDROOT
BRANCH   5  15
ATOM     15  N   LIG    1       24.534 -31.767  10.295  0.00  0.00    -0.279 N 
ATOM     16  H   LIG    1       25.217 -32.129  10.949  0.00  0.00    +0.152 HD
ATOM     17  C   LIG    1       23.703 -30.734  10.679  0.00  0.00    +0.224 C 
ATOM     18  O   LIG    1       22.775 -30.333   9.976  0.00  0.00    -0.275 OA
BRANCH  17  19
ATOM     19  C   LIG    1       23.919 -30.199  12.105  0.00  0.00    +0.112 C 
ATOM     20  C   LIG    1       23.935 -28.643  12.061  0.00  0.00    +0.101 C 
ATOM     21  N   LIG    1       23.070 -27.933  13.029  0.00  0.00    -0.297 NA
ATOM     22  C   LIG    1       23.672 -27.905  14.364  0.00  0.00    +0.105 C 
ATOM     23  C   LIG    1       21.713 -28.553  13.007  0.00  0.00    +0.091 C 
ATOM     24  C   LIG    1       21.770 -30.051  13.403  0.00  0.00    -0.025 C 
ATOM     25  C   LIG    1       20.634 -30.644  14.145  0.00  0.00    -0.011 C 
ATOM     26  C   LIG    1       19.560 -29.771  14.375  0.00  0.00    +0.011 C 
ATOM     27  C   LIG    1       18.375 -30.208  14.953  0.00  0.00    +0.048 C 
ATOM     28  N   LIG    1       17.527 -29.122  14.968  0.00  0.00    -0.349 NA
ATOM     29  H   LIG    1       16.578 -29.128  15.311  0.00  0.00    +0.166 HD
ATOM     30  C   LIG    1       18.174 -28.017  14.480  0.00  0.00    +0.087 C 
ATOM     31 BR   LIG    1       17.417 -26.321  14.365  0.00  0.00    -0.030 Br
ATOM     32  C   LIG    1       18.210 -31.523  15.390  0.00  0.00    +0.026 C 
ATOM     33  C   LIG    1       19.300 -32.386  15.215  0.00  0.00    +0.003 C 
ATOM     34  C   LIG    1       19.451 -28.381  14.131  0.00  0.00    -0.006 C 
ATOM     35  C   LIG    1       20.485 -31.963  14.597  0.00  0.00    +0.009 C 
ATOM     36  C   LIG    1       20.634 -27.617  13.656  0.00  0.00    +0.062 C 
ATOM     37  C   LIG    1       22.814 -30.789  12.967  0.00  0.00    -0.007 C 
ENDBRANCH  17  19
ENDBRANCH   5  15
BRANCH   5  38
ATOM     38  C   LIG    1       23.482 -33.716   9.065  0.00  0.00    +0.043 C 
ATOM     39  C   LIG    1       22.718 -33.825  10.390  0.00  0.00    +0.012 C 
ATOM     40  C   LIG    1       22.496 -33.812   7.897  0.00  0.00    +0.012 C 
ENDBRANCH   5  38
BRANCH   3  41
ATOM     41  O   LIG    1       26.859 -30.895   8.787  0.00  0.00    -0.348 OA
ATOM     42  H   LIG    1       26.120 -30.297   9.008  0.00  0.00    +0.214 HD
ENDBRANCH   3  41
BRANCH   1  43
ATOM     43  C   LIG    1       25.925 -29.539   5.441  0.00  0.00    +0.035 C 
BRANCH  43  45
ATOM     44  C   LIG    1       24.497 -27.832   6.626  0.00  0.00    +0.007 C 
ATOM     45  C   LIG    1       25.067 -28.259   5.266  0.00  0.00    -0.015 C 
ATOM     46  C   LIG    1       25.819 -27.060   4.682  0.00  0.00    +0.007 C 
ENDBRANCH  43  45
ENDBRANCH   1  43
TORSDOF 6
ENDMDL
MODEL 3
REMARK VINA RESULT:      -5.3      3.235      5.954
REMARK  Name = *****
REMARK                            x       y       z     vdW  Elec       q    Type
REMARK                         _______ _______ _______ _____ _____    ______ ____
ROOT
ATOM      1  C   LIG    1       25.183 -32.469   9.082  0.00  0.00    +0.167 C 
ATOM      2  N   LIG    1       24.891 -31.356   9.995  0.00  0.00    -0.233 N 
ATOM      3  C   LIG    1       24.410 -30.097   9.516  0.00  0.00    +0.269 C 
ATOM      4  O   LIG    1       25.305 -29.149  10.057  0.00  0.00    -0.298 OA
ATOM      5  C   LIG    1       25.724 -29.610  11.358  0.00  0.00    +0.220 C 
ATOM      6  C   LIG    1       24.303 -30.013   7.981  0.00  0.00    +0.156 C 
ATOM      7  N   LIG    1       25.354 -30.739   7.291  0.00  0.00    -0.290 N 
ATOM      8  C   LIG    1       25.699 -30.110   6.026  0.00  0.00    +0.108 C 
ATOM      9  C   LIG    1       24.688 -28.967   5.892  0.00  0.00    +0.021 C 
ATOM     10  C   LIG    1       24.357 -28.621   7.345  0.00  0.00    +0.031 C 
ATOM     11  C   LIG    1       25.706 -31.124  11.086  0.00  0.00    +0.271 C 
ATOM     12  O   LIG    1       26.270 -31.998  11.746  0.00  0.00    -0.270 OA
ATOM     13  C   LIG    1       25.862 -31.928   7.774  0.00  0.00    +0.237 C 
ATOM     14  O   LIG    1       26.699 -32.579   7.152  0.00  0.00    -0.274 OA
ENDROOT
BRANCH   5  15
ATOM     15  N   LIG    1       24.744 -29.239  12.377  0.00  0.00    -0.279 N 
ATOM     16  H   LIG    1       24.056 -29.941  12.618  0.00  0.00    +0.152 HD
ATOM     17  C   LIG    1       24.647 -27.974  12.920  0.00  0.00    +0.224 C 
ATOM     18  O   LIG    1       25.378 -27.046  12.574  0.00  0.00    -0.275 OA
BRANCH  17  19
ATOM     19  C   LIG    1       23.474 -27.753  13.890  0.00  0.00    +0.112 C 
ATOM     20  C   LIG    1       22.345 -26.980  13.146  0.00  0.00    +0.101 C 
ATOM     21  N   LIG    1       20.977 -27.533  13.238  0.00  0.00    -0.297 NA
ATOM     22  C   LIG    1       20.355 -27.210  14.525  0.00  0.00    +0.105 C 
ATOM     23  C   LIG    1       21.029 -28.998  12.960  0.00  0.00    +0.091 C 
ATOM     24  C   LIG    1       21.929 -29.736  13.985  0.00  0.00    -0.025 C 
ATOM     25  C   LIG    1       21.579 -31.117  14.388  0.00  0.00    -0.011 C 
ATOM     26  C   LIG    1       20.459 -31.655  13.736  0.00  0.00    +0.011 C 
ATOM     27  C   LIG    1       20.074 -32.977  13.918  0.00  0.00    +0.048 C 
ATOM     28  N   LIG    1       18.993 -33.184  13.089  0.00  0.00    -0.349 NA
ATOM     29  H   LIG    1       18.500 -34.057  12.982  0.00  0.00    +0.166 HD
ATOM     30  C   LIG    1       18.660 -32.016  12.455  0.00  0.00    +0.087 C 
ATOM     31 BR   LIG    1       17.229 -31.829  11.280  0.00  0.00    -0.030 Br
ATOM     32  C   LIG    1       20.745 -33.824  14.802  0.00  0.00    +0.026 C 
ATOM     33  C   LIG    1       21.830 -33.276  15.499  0.00  0.00    +0.003 C 
ATOM     34  C   LIG    1       19.534 -31.038  12.861  0.00  0.00    -0.006 C 
ATOM     35  C   LIG    1       22.248 -31.954  15.291  0.00  0.00    +0.009 C 
ATOM     36  C   LIG    1       19.613 -29.576  12.610  0.00  0.00    +0.062 C 
ATOM     37  C   LIG    1       23.060 -29.125  14.399  0.00  0.00    -0.007 C 
ENDBRANCH  17  19
ENDBRANCH   5  15
BRANCH   5  38
ATOM     38  C   LIG    1       27.159 -29.088  11.627  0.00  0.00    +0.043 C 
ATOM     39  C   LIG    1       27.610 -29.342  13.071  0.00  0.00    +0.012 C 
ATOM     40  C   LIG    1       28.221 -29.620  10.659  0.00  0.00    +0.012 C 
ENDBRANCH   5  38
BRANCH   3  41
ATOM     41  O   LIG    1       23.121 -29.917  10.066  0.00  0.00    -0.348 OA
ATOM     42  H   LIG    1       23.227 -29.160  10.674  0.00  0.00    +0.214 HD
ENDBRANCH   3  41
BRANCH   1  43
ATOM     43  C   LIG    1       23.935 -33.304   8.733  0.00  0.00    +0.035 C 
BRANCH  43  45
ATOM     44  C   LIG    1       21.463 -33.747   8.959  0.00  0.00    +0.007 C 
ATOM     45  C   LIG    1       22.696 -33.151   9.653  0.00  0.00    -0.015 C 
ATOM     46  C   LIG    1       22.828 -33.824  11.021  0.00  0.00    +0.007 C 
ENDBRANCH  43  45
ENDBRANCH   1  43
TORSDOF 6
ENDMDL
MODEL 4
REMARK VINA RESULT:      -5.2      3.571      7.882
REMARK  Name = *****
REMARK                            x       y       z     vdW  Elec       q    Type
REMARK                         _______ _______ _______ _____ _____    ______ ____
ROOT
ATOM      1  C   LIG    1       20.402 -29.204  13.938  0.00  0.00    +0.167 C 
ATOM      2  N   LIG    1       21.285 -30.208  13.332  0.00  0.00    -0.233 N 
ATOM      3  C   LIG    1       20.851 -31.037  12.250  0.00  0.00    +0.269 C 
ATOM      4  O   LIG    1       21.111 -32.353  12.688  0.00  0.00    -0.298 OA
ATOM      5  C   LIG    1       22.308 -32.336  13.493  0.00  0.00    +0.220 C 
ATOM      6  C   LIG    1       19.379 -30.818  11.849  0.00  0.00    +0.156 C 
ATOM      7  N   LIG    1       18.514 -30.523  12.978  0.00  0.00    -0.290 N 
ATOM      8  C   LIG    1       17.166 -31.027  12.767  0.00  0.00    +0.108 C 
ATOM      9  C   LIG    1       17.195 -31.577  11.338  0.00  0.00    +0.021 C 
ATOM     10  C   LIG    1       18.661 -31.973  11.145  0.00  0.00    +0.031 C 
ATOM     11  C   LIG    1       22.144 -30.945  14.126  0.00  0.00    +0.271 C 
ATOM     12  O   LIG    1       22.711 -30.522  15.135  0.00  0.00    -0.270 OA
ATOM     13  C   LIG    1       18.941 -29.768  14.052  0.00  0.00    +0.237 C 
ATOM     14  O   LIG    1       18.187 -29.457  14.971  0.00  0.00    -0.274 OA
ENDROOT
BRANCH   5  15
ATOM     15  N   LIG    1       23.499 -32.402  12.648  0.00  0.00    -0.279 N 
ATOM     16  H   LIG    1       23.463 -33.044  11.867  0.00  0.00    +0.152 HD
ATOM     17  C   LIG    1       24.674 -31.736  12.930  0.00  0.00    +0.224 C 
ATOM     18  O   LIG    1       24.817 -31.037  13.934  0.00  0.00    -0.275 OA
BRANCH  17  19
ATOM     19  C   LIG    1       25.850 -32.028  11.983  0.00  0.00    +0.112 C 
ATOM     20  C   LIG    1       25.797 -33.527  11.563  0.00  0.00    +0.101 C 
ATOM     21  N   LIG    1       25.896 -33.825  10.118  0.00  0.00    -0.297 NA
ATOM     22  C   LIG    1       27.281 -33.739   9.647  0.00  0.00    +0.105 C 
ATOM     23  C   LIG    1       24.963 -32.927   9.376  0.00  0.00    +0.091 C 
ATOM     24  C   LIG    1       25.322 -31.435   9.596  0.00  0.00    -0.025 C 
ATOM     25  C   LIG    1       25.097 -30.469   8.496  0.00  0.00    -0.011 C 
ATOM     26  C   LIG    1       24.511 -31.016   7.344  0.00  0.00    +0.011 C 
ATOM     27  C   LIG    1       24.130 -30.219   6.272  0.00  0.00    +0.048 C 
ATOM     28  N   LIG    1       23.538 -31.060   5.355  0.00  0.00    -0.349 NA
ATOM     29  H   LIG    1       23.139 -30.773   4.474  0.00  0.00    +0.166 HD
ATOM     30  C   LIG    1       23.603 -32.355   5.798  0.00  0.00    +0.087 C 
ATOM     31 BR   LIG    1       22.966 -33.824   4.850  0.00  0.00    -0.030 Br
ATOM     32  C   LIG    1       24.362 -28.843   6.258  0.00  0.00    +0.026 C 
ATOM     33  C   LIG    1       24.999 -28.300   7.382  0.00  0.00    +0.003 C 
ATOM     34  C   LIG    1       24.231 -32.364   7.020  0.00  0.00    -0.006 C 
ATOM     35  C   LIG    1       25.350 -29.091   8.485  0.00  0.00    +0.009 C 
ATOM     36  C   LIG    1       24.679 -33.453   7.925  0.00  0.00    +0.062 C 
ATOM     37  C   LIG    1       25.734 -31.050  10.824  0.00  0.00    -0.007 C 
ENDBRANCH  17  19
ENDBRANCH   5  15
BRANCH   5  38
ATOM     38  C   LIG    1       22.208 -33.468  14.549  0.00  0.00    +0.043 C 
ATOM     39  C   LIG    1       23.487 -33.600  15.384  0.00  0.00    +0.012 C 
ATOM     40  C   LIG    1       20.997 -33.360  15.482  0.00  0.00    +0.012 C 
ENDBRANCH   5  38
BRANCH   3  41
ATOM     41  O   LIG    1       21.669 -30.722  11.142  0.00  0.00    -0.348 OA
ATOM     42  H   LIG    1       22.343 -31.429  11.139  0.00  0.00    +0.214 HD
ENDBRANCH   3  41
BRANCH   1  43
ATOM     43  C   LIG    1       20.401 -27.864  13.176  0.00  0.00    +0.035 C 
BRANCH  43  45
ATOM     44  C   LIG    1       21.228 -26.823  15.318  0.00  0.00    +0.007 C 
ATOM     45  C   LIG    1       21.219 -26.697  13.788  0.00  0.00    -0.015 C 
ATOM     46  C   LIG    1       22.674 -26.621  13.320  0.00  0.00    +0.007 C 
ENDBRANCH  43  45
ENDBRANCH   1  43
TORSDOF 6
ENDMDL
MODEL 5
REMARK VINA RESULT:      -4.9      1.635      2.069
REMARK  Name = *****
REMARK                            x       y       z     vdW  Elec       q    Type
REMARK                         _______ _______ _______ _____ _____    ______ ____
ROOT
ATOM      1  C   LIG    1       25.261 -30.420   6.612  0.00  0.00    +0.167 C 
ATOM      2  N   LIG    1       25.017 -31.075   7.903  0.00  0.00    -0.233 N 
ATOM      3  C   LIG    1       25.942 -32.016   8.456  0.00  0.00    +0.269 C 
ATOM      4  O   LIG    1       25.162 -33.161   8.724  0.00  0.00    -0.298 OA
ATOM      5  C   LIG    1       23.843 -32.730   9.121  0.00  0.00    +0.220 C 
ATOM      6  C   LIG    1       27.149 -32.313   7.545  0.00  0.00    +0.156 C 
ATOM      7  N   LIG    1       26.817 -32.313   6.132  0.00  0.00    -0.290 N 
ATOM      8  C   LIG    1       27.646 -33.245   5.385  0.00  0.00    +0.108 C 
ATOM      9  C   LIG    1       28.640 -33.771   6.425  0.00  0.00    +0.021 C 
ATOM     10  C   LIG    1       27.867 -33.651   7.740  0.00  0.00    +0.031 C 
ATOM     11  C   LIG    1       23.738 -31.468   8.249  0.00  0.00    +0.271 C 
ATOM     12  O   LIG    1       22.707 -30.865   7.945  0.00  0.00    -0.270 OA
ATOM     13  C   LIG    1       25.886 -31.444   5.598  0.00  0.00    +0.237 C 
ATOM     14  O   LIG    1       25.659 -31.393   4.391  0.00  0.00    -0.274 OA
ENDROOT
BRANCH   5  15
ATOM     15  N   LIG    1       23.815 -32.400  10.544  0.00  0.00    -0.279 N 
ATOM     16  H   LIG    1       24.226 -33.079  11.173  0.00  0.00    +0.152 HD
ATOM     17  C   LIG    1       23.166 -31.297  11.061  0.00  0.00    +0.224 C 
ATOM     18  O   LIG    1       22.543 -30.503  10.356  0.00  0.00    -0.275 OA
BRANCH  17  19
ATOM     19  C   LIG    1       23.151 -31.191  12.596  0.00  0.00    +0.112 C 
ATOM     20  C   LIG    1       24.166 -32.217  13.181  0.00  0.00    +0.101 C 
ATOM     21  N   LIG    1       25.133 -31.713  14.179  0.00  0.00    -0.297 NA
ATOM     22  C   LIG    1       24.513 -31.569  15.499  0.00  0.00    +0.105 C 
ATOM     23  C   LIG    1       25.737 -30.447  13.670  0.00  0.00    +0.091 C 
ATOM     24  C   LIG    1       24.656 -29.360  13.438  0.00  0.00    -0.025 C 
ATOM     25  C   LIG    1       25.003 -27.938  13.666  0.00  0.00    -0.011 C 
ATOM     26  C   LIG    1       26.339 -27.709  14.029  0.00  0.00    +0.011 C 
ATOM     27  C   LIG    1       26.849 -26.424  14.163  0.00  0.00    +0.048 C 
ATOM     28  N   LIG    1       28.187 -26.567  14.459  0.00  0.00    -0.349 NA
ATOM     29  H   LIG    1       28.837 -25.807  14.595  0.00  0.00    +0.166 HD
ATOM     30  C   LIG    1       28.501 -27.895  14.576  0.00  0.00    +0.087 C 
ATOM     31 BR   LIG    1       30.191 -28.541  15.015  0.00  0.00    -0.030 Br
ATOM     32  C   LIG    1       26.047 -25.294  14.002  0.00  0.00    +0.026 C 
ATOM     33  C   LIG    1       24.698 -25.516  13.694  0.00  0.00    +0.003 C 
ATOM     34  C   LIG    1       27.365 -28.631  14.346  0.00  0.00    -0.006 C 
ATOM     35  C   LIG    1       24.185 -26.810  13.519  0.00  0.00    +0.009 C 
ATOM     36  C   LIG    1       27.057 -30.082  14.435  0.00  0.00    +0.062 C 
ATOM     37  C   LIG    1       23.461 -29.741  12.938  0.00  0.00    -0.007 C 
ENDBRANCH  17  19
ENDBRANCH   5  15
BRANCH   5  38
ATOM     38  C   LIG    1       22.821 -33.815   8.693  0.00  0.00    +0.043 C 
ATOM     39  C   LIG    1       21.520 -33.739   9.501  0.00  0.00    +0.012 C 
ATOM     40  C   LIG    1       22.494 -33.825   7.196  0.00  0.00    +0.012 C 
ENDBRANCH   5  38
BRANCH   3  41
ATOM     41  O   LIG    1       26.418 -31.458   9.664  0.00  0.00    -0.348 OA
ATOM     42  H   LIG    1       25.620 -31.075  10.077  0.00  0.00    +0.214 HD
ENDBRANCH   3  41
BRANCH   1  43
ATOM     43  C   LIG    1       26.155 -29.170   6.730  0.00  0.00    +0.035 C 
BRANCH  43  45
ATOM     44  C   LIG    1       24.403 -28.188   5.205  0.00  0.00    +0.007 C 
ATOM     45  C   LIG    1       25.735 -27.916   5.920  0.00  0.00    -0.015 C 
ATOM     46  C   LIG    1       25.561 -26.644   6.754  0.00  0.00    +0.007 C 
ENDBRANCH  43  45
ENDBRANCH   1  43
TORSDOF 6
ENDMDL
MODEL 6
REMARK VINA RESULT:      -4.7      3.380      7.716
REMARK  Name = *****
REMARK                            x       y       z     vdW  Elec       q    Type
REMARK                         _______ _______ _______ _____ _____    ______ ____
ROOT
ATOM      1  C   LIG    1       19.500 -30.049  14.242  0.00  0.00    +0.167 C 
ATOM      2  N   LIG    1       20.772 -30.279  13.546  0.00  0.00    -0.233 N 
ATOM      3  C   LIG    1       20.817 -30.719  12.186  0.00  0.00    +0.269 C 
ATOM      4  O   LIG    1       21.636 -31.868  12.214  0.00  0.00    -0.298 OA
ATOM      5  C   LIG    1       22.654 -31.676  13.219  0.00  0.00    +0.220 C 
ATOM      6  C   LIG    1       19.430 -30.988  11.571  0.00  0.00    +0.156 C 
ATOM      7  N   LIG    1       18.478 -31.539  12.519  0.00  0.00    -0.290 N 
ATOM      8  C   LIG    1       17.526 -32.426  11.870  0.00  0.00    +0.108 C 
ATOM      9  C   LIG    1       17.868 -32.311  10.382  0.00  0.00    +0.021 C 
ATOM     10  C   LIG    1       19.357 -31.961  10.391  0.00  0.00    +0.031 C 
ATOM     11  C   LIG    1       21.839 -30.842  14.221  0.00  0.00    +0.271 C 
ATOM     12  O   LIG    1       22.102 -30.654  15.409  0.00  0.00    -0.270 OA
ATOM     13  C   LIG    1       18.462 -31.159  13.847  0.00  0.00    +0.237 C 
ATOM     14  O   LIG    1       17.609 -31.570  14.631  0.00  0.00    -0.274 OA
ENDROOT
BRANCH   5  15
ATOM     15  N   LIG    1       23.776 -30.911  12.677  0.00  0.00    -0.279 N 
ATOM     16  H   LIG    1       24.407 -31.410  12.063  0.00  0.00    +0.152 HD
ATOM     17  C   LIG    1       24.069 -29.615  13.049  0.00  0.00    +0.224 C 
ATOM     18  O   LIG    1       23.408 -29.000  13.886  0.00  0.00    -0.275 OA
BRANCH  17  19
ATOM     19  C   LIG    1       25.360 -29.027  12.455  0.00  0.00    +0.112 C 
ATOM     20  C   LIG    1       26.543 -29.989  12.770  0.00  0.00    +0.101 C 
ATOM     21  N   LIG    1       27.417 -30.374  11.641  0.00  0.00    -0.297 NA
ATOM     22  C   LIG    1       28.368 -29.308  11.312  0.00  0.00    +0.105 C 
ATOM     23  C   LIG    1       26.562 -30.779  10.486  0.00  0.00    +0.091 C 
ATOM     24  C   LIG    1       25.647 -29.615  10.026  0.00  0.00    -0.025 C 
ATOM     25  C   LIG    1       25.311 -29.487   8.590  0.00  0.00    -0.011 C 
ATOM     26  C   LIG    1       25.832 -30.500   7.770  0.00  0.00    +0.011 C 
ATOM     27  C   LIG    1       25.510 -30.586   6.422  0.00  0.00    +0.048 C 
ATOM     28  N   LIG    1       26.132 -31.719   5.946  0.00  0.00    -0.349 NA
ATOM     29  H   LIG    1       26.071 -32.063   4.999  0.00  0.00    +0.166 HD
ATOM     30  C   LIG    1       26.879 -32.295   6.940  0.00  0.00    +0.087 C 
ATOM     31 BR   LIG    1       27.922 -33.820   6.720  0.00  0.00    -0.030 Br
ATOM     32  C   LIG    1       24.700 -29.636   5.797  0.00  0.00    +0.026 C 
ATOM     33  C   LIG    1       24.223 -28.590   6.597  0.00  0.00    +0.003 C 
ATOM     34  C   LIG    1       26.738 -31.542   8.079  0.00  0.00    -0.006 C 
ATOM     35  C   LIG    1       24.511 -28.519   7.968  0.00  0.00    +0.009 C 
ATOM     36  C   LIG    1       27.371 -31.600   9.422  0.00  0.00    +0.062 C 
ATOM     37  C   LIG    1       25.104 -28.816  10.970  0.00  0.00    -0.007 C 
ENDBRANCH  17  19
ENDBRANCH   5  15
BRANCH   5  38
ATOM     38  C   LIG    1       23.042 -33.061  13.799  0.00  0.00    +0.043 C 
ATOM     39  C   LIG    1       24.371 -33.020  14.563  0.00  0.00    +0.012 C 
ATOM     40  C   LIG    1       21.965 -33.706  14.678  0.00  0.00    +0.012 C 
ENDBRANCH   5  38
BRANCH   3  41
ATOM     41  O   LIG    1       21.445 -29.693  11.445  0.00  0.00    -0.348 OA
ATOM     42  H   LIG    1       20.884 -29.599  10.651  0.00  0.00    +0.214 HD
ENDBRANCH   3  41
BRANCH   1  43
ATOM     43  C   LIG    1       18.913 -28.648  13.978  0.00  0.00    +0.035 C 
BRANCH  43  45
ATOM     44  C   LIG    1       19.080 -26.132  13.957  0.00  0.00    +0.007 C 
ATOM     45  C   LIG    1       19.871 -27.438  14.122  0.00  0.00    -0.015 C 
ATOM     46  C   LIG    1       20.612 -27.364  15.460  0.00  0.00    +0.007 C 
ENDBRANCH  43  45
ENDBRANCH   1  43
TORSDOF 6
ENDMDL
MODEL 7
REMARK VINA RESULT:      -4.1      3.839      8.309
REMARK  Name = *****
REMARK                            x       y       z     vdW  Elec       q    Type
REMARK                         _______ _______ _______ _____ _____    ______ ____
ROOT
ATOM      1  C   LIG    1       27.737 -29.666  13.218  0.00  0.00    +0.167 C 
ATOM      2  N   LIG    1       27.202 -29.230  11.922  0.00  0.00    -0.233 N 
ATOM      3  C   LIG    1       26.315 -28.114  11.811  0.00  0.00    +0.269 C 
ATOM      4  O   LIG    1       25.200 -28.619  11.109  0.00  0.00    -0.298 OA
ATOM      5  C   LIG    1       25.666 -29.602  10.160  0.00  0.00    +0.220 C 
ATOM      6  C   LIG    1       25.935 -27.483  13.164  0.00  0.00    +0.156 C 
ATOM      7  N   LIG    1       25.807 -28.454  14.236  0.00  0.00    -0.290 N 
ATOM      8  C   LIG    1       24.810 -28.047  15.213  0.00  0.00    +0.108 C 
ATOM      9  C   LIG    1       24.379 -26.654  14.745  0.00  0.00    +0.021 C 
ATOM     10  C   LIG    1       24.619 -26.703  13.234  0.00  0.00    +0.031 C 
ATOM     11  C   LIG    1       26.845 -30.167  10.970  0.00  0.00    +0.271 C 
ATOM     12  O   LIG    1       27.418 -31.241  10.786  0.00  0.00    -0.270 OA
ATOM     13  C   LIG    1       26.625 -29.563  14.322  0.00  0.00    +0.237 C 
ATOM     14  O   LIG    1       26.566 -30.344  15.269  0.00  0.00    -0.274 OA
ENDROOT
BRANCH   5  15
ATOM     15  N   LIG    1       26.124 -28.955   8.932  0.00  0.00    -0.279 N 
ATOM     16  H   LIG    1       27.113 -28.748   8.872  0.00  0.00    +0.152 HD
ATOM     17  C   LIG    1       25.276 -28.521   7.934  0.00  0.00    +0.224 C 
ATOM     18  O   LIG    1       24.052 -28.634   8.008  0.00  0.00    -0.275 OA
BRANCH  17  19
ATOM     19  C   LIG    1       25.943 -27.758   6.776  0.00  0.00    +0.112 C 
ATOM     20  C   LIG    1       25.029 -27.855   5.518  0.00  0.00    +0.101 C 
ATOM     21  N   LIG    1       24.719 -26.593   4.813  0.00  0.00    -0.297 NA
ATOM     22  C   LIG    1       25.839 -26.162   3.971  0.00  0.00    +0.105 C 
ATOM     23  C   LIG    1       24.307 -25.569   5.817  0.00  0.00    +0.091 C 
ATOM     24  C   LIG    1       25.438 -25.295   6.841  0.00  0.00    -0.025 C 
ATOM     25  C   LIG    1       25.591 -23.932   7.399  0.00  0.00    -0.011 C 
ATOM     26  C   LIG    1       24.628 -23.007   6.968  0.00  0.00    +0.011 C 
ATOM     27  C   LIG    1       24.566 -21.722   7.489  0.00  0.00    +0.048 C 
ATOM     28  N   LIG    1       23.478 -21.116   6.900  0.00  0.00    -0.349 NA
ATOM     29  H   LIG    1       23.159 -20.178   7.091  0.00  0.00    +0.166 HD
ATOM     30  C   LIG    1       22.910 -21.963   5.985  0.00  0.00    +0.087 C 
ATOM     31 BR   LIG    1       21.444 -21.534   4.923  0.00  0.00    -0.030 Br
ATOM     32  C   LIG    1       25.493 -21.262   8.426  0.00  0.00    +0.026 C 
ATOM     33  C   LIG    1       26.492 -22.162   8.819  0.00  0.00    +0.003 C 
ATOM     34  C   LIG    1       23.622 -23.138   5.981  0.00  0.00    -0.006 C 
ATOM     35  C   LIG    1       26.537 -23.474   8.326  0.00  0.00    +0.009 C 
ATOM     36  C   LIG    1       23.557 -24.365   5.146  0.00  0.00    +0.062 C 
ATOM     37  C   LIG    1       26.183 -26.339   7.266  0.00  0.00    -0.007 C 
ENDBRANCH  17  19
ENDBRANCH   5  15
BRANCH   5  38
ATOM     38  C   LIG    1       24.548 -30.656   9.952  0.00  0.00    +0.043 C 
ATOM     39  C   LIG    1       25.015 -31.837   9.093  0.00  0.00    +0.012 C 
ATOM     40  C   LIG    1       23.922 -31.182  11.248  0.00  0.00    +0.012 C 
ENDBRANCH   5  38
BRANCH   3  41
ATOM     41  O   LIG    1       26.979 -27.140  11.032  0.00  0.00    -0.348 OA
ATOM     42  H   LIG    1       27.923 -27.378  11.113  0.00  0.00    +0.214 HD
ENDBRANCH   3  41
BRANCH   1  43
ATOM     43  C   LIG    1       28.992 -28.880  13.646  0.00  0.00    +0.035 C 
BRANCH  43  45
ATOM     44  C   LIG    1       31.301 -29.685  13.028  0.00  0.00    +0.007 C 
ATOM     45  C   LIG    1       30.220 -29.703  14.118  0.00  0.00    -0.015 C 
ATOM     46  C   LIG    1       30.862 -29.206  15.416  0.00  0.00    +0.007 C 
ENDBRANCH  43  45
ENDBRANCH   1  43
TORSDOF 6
ENDMDL
MODEL 8
REMARK VINA RESULT:      -3.8      3.646      7.771
REMARK  Name = *****
REMARK                            x       y       z     vdW  Elec       q    Type
REMARK                         _______ _______ _______ _____ _____    ______ ____
ROOT
ATOM      1  C   LIG    1       22.882 -29.452  12.264  0.00  0.00    +0.167 C 
ATOM      2  N   LIG    1       23.633 -29.567  11.008  0.00  0.00    -0.233 N 
ATOM      3  C   LIG    1       23.329 -30.575  10.039  0.00  0.00    +0.269 C 
ATOM      4  O   LIG    1       24.559 -31.227   9.811  0.00  0.00    -0.298 OA
ATOM      5  C   LIG    1       25.617 -30.252   9.915  0.00  0.00    +0.220 C 
ATOM      6  C   LIG    1       22.210 -31.541  10.475  0.00  0.00    +0.156 C 
ATOM      7  N   LIG    1       22.223 -31.831  11.898  0.00  0.00    -0.290 N 
ATOM      8  C   LIG    1       21.741 -33.175  12.176  0.00  0.00    +0.108 C 
ATOM      9  C   LIG    1       21.295 -33.699  10.808  0.00  0.00    +0.021 C 
ATOM     10  C   LIG    1       22.187 -32.930   9.831  0.00  0.00    +0.031 C 
ATOM     11  C   LIG    1       24.998 -29.349  10.995  0.00  0.00    +0.271 C 
ATOM     12  O   LIG    1       25.590 -28.530  11.699  0.00  0.00    -0.270 OA
ATOM     13  C   LIG    1       22.567 -30.879  12.837  0.00  0.00    +0.237 C 
ATOM     14  O   LIG    1       22.506 -31.103  14.044  0.00  0.00    -0.274 OA
ENDROOT
BRANCH   5  15
ATOM     15  N   LIG    1       25.784 -29.536   8.651  0.00  0.00    -0.279 N 
ATOM     16  H   LIG    1       25.669 -30.080   7.805  0.00  0.00    +0.152 HD
ATOM     17  C   LIG    1       26.194 -28.221   8.566  0.00  0.00    +0.224 C 
ATOM     18  O   LIG    1       26.468 -27.545   9.558  0.00  0.00    -0.275 OA
BRANCH  17  19
ATOM     19  C   LIG    1       26.424 -27.685   7.142  0.00  0.00    +0.112 C 
ATOM     20  C   LIG    1       25.190 -28.048   6.264  0.00  0.00    +0.101 C 
ATOM     21  N   LIG    1       24.583 -26.956   5.472  0.00  0.00    -0.297 NA
ATOM     22  C   LIG    1       25.364 -26.672   4.265  0.00  0.00    +0.105 C 
ATOM     23  C   LIG    1       24.405 -25.764   6.352  0.00  0.00    +0.091 C 
ATOM     24  C   LIG    1       25.762 -25.269   6.915  0.00  0.00    -0.025 C 
ATOM     25  C   LIG    1       25.962 -23.820   7.144  0.00  0.00    -0.011 C 
ATOM     26  C   LIG    1       24.842 -23.020   6.869  0.00  0.00    +0.011 C 
ATOM     27  C   LIG    1       24.832 -21.659   7.145  0.00  0.00    +0.048 C 
ATOM     28  N   LIG    1       23.573 -21.206   6.818  0.00  0.00    -0.349 NA
ATOM     29  H   LIG    1       23.249 -20.257   6.925  0.00  0.00    +0.166 HD
ATOM     30  C   LIG    1       22.830 -22.229   6.289  0.00  0.00    +0.087 C 
ATOM     31 BR   LIG    1       21.086 -22.050   5.668  0.00  0.00    -0.030 Br
ATOM     32  C   LIG    1       25.954 -21.003   7.653  0.00  0.00    +0.026 C 
ATOM     33  C   LIG    1       27.095 -21.786   7.877  0.00  0.00    +0.003 C 
ATOM     34  C   LIG    1       23.603 -23.365   6.279  0.00  0.00    -0.006 C 
ATOM     35  C   LIG    1       27.099 -23.168   7.638  0.00  0.00    +0.009 C 
ATOM     36  C   LIG    1       23.394 -24.733   5.739  0.00  0.00    +0.062 C 
ATOM     37  C   LIG    1       26.682 -26.192   7.271  0.00  0.00    -0.007 C 
ENDBRANCH  17  19
ENDBRANCH   5  15
BRANCH   5  38
ATOM     38  C   LIG    1       26.898 -30.965  10.421  0.00  0.00    +0.043 C 
ATOM     39  C   LIG    1       27.451 -31.964   9.398  0.00  0.00    +0.012 C 
ATOM     40  C   LIG    1       28.016 -30.019  10.869  0.00  0.00    +0.012 C 
ENDBRANCH   5  38
BRANCH   3  41
ATOM     41  O   LIG    1       22.910 -29.903   8.869  0.00  0.00    -0.348 OA
ATOM     42  H   LIG    1       23.594 -30.130   8.210  0.00  0.00    +0.214 HD
ENDBRANCH   3  41
BRANCH   1  43
ATOM     43  C   LIG    1       21.583 -28.635  12.116  0.00  0.00    +0.035 C 
BRANCH  43  45
ATOM     44  C   LIG    1       22.562 -26.613  13.261  0.00  0.00    +0.007 C 
ATOM     45  C   LIG    1       21.324 -27.515  13.157  0.00  0.00    -0.015 C 
ATOM     46  C   LIG    1       20.122 -26.619  12.848  0.00  0.00    +0.007 C 
ENDBRANCH  43  45
ENDBRANCH   1  43
TORSDOF 6
ENDMDL
MODEL 9
REMARK VINA RESULT:      -3.7      2.652      5.205
REMARK  Name = *****
REMARK                            x       y       z     vdW  Elec       q    Type
REMARK                         _______ _______ _______ _____ _____    ______ ____
ROOT
ATOM      1  C   LIG    1       23.362 -32.560   9.298  0.00  0.00    +0.167 C 
ATOM      2  N   LIG    1       24.041 -31.561  10.132  0.00  0.00    -0.233 N 
ATOM      3  C   LIG    1       24.195 -30.204   9.707  0.00  0.00    +0.269 C 
ATOM      4  O   LIG    1       25.579 -29.954   9.821  0.00  0.00    -0.298 OA
ATOM      5  C   LIG    1       26.083 -30.690  10.955  0.00  0.00    +0.220 C 
ATOM      6  C   LIG    1       23.651 -29.929   8.292  0.00  0.00    +0.156 C 
ATOM      7  N   LIG    1       23.841 -31.041   7.377  0.00  0.00    -0.290 N 
ATOM      8  C   LIG    1       24.030 -30.584   6.009  0.00  0.00    +0.108 C 
ATOM      9  C   LIG    1       23.826 -29.069   6.093  0.00  0.00    +0.021 C 
ATOM     10  C   LIG    1       24.238 -28.739   7.529  0.00  0.00    +0.031 C 
ATOM     11  C   LIG    1       25.158 -31.916  10.866  0.00  0.00    +0.271 C 
ATOM     12  O   LIG    1       25.337 -33.014  11.394  0.00  0.00    -0.270 OA
ATOM     13  C   LIG    1       23.747 -32.355   7.790  0.00  0.00    +0.237 C 
ATOM     14  O   LIG    1       23.835 -33.294   7.001  0.00  0.00    -0.274 OA
ENDROOT
BRANCH   5  15
ATOM     15  N   LIG    1       25.864 -29.945  12.193  0.00  0.00    -0.279 N 
ATOM     16  H   LIG    1       25.584 -30.485  13.002  0.00  0.00    +0.152 HD
ATOM     17  C   LIG    1       25.903 -28.568  12.274  0.00  0.00    +0.224 C 
ATOM     18  O   LIG    1       26.116 -27.852  11.295  0.00  0.00    -0.275 OA
BRANCH  17  19
ATOM     19  C   LIG    1       25.529 -27.969  13.640  0.00  0.00    +0.112 C 
ATOM     20  C   LIG    1       25.150 -26.471  13.445  0.00  0.00    +0.101 C 
ATOM     21  N   LIG    1       23.879 -26.014  14.047  0.00  0.00    -0.297 NA
ATOM     22  C   LIG    1       24.018 -25.795  15.490  0.00  0.00    +0.105 C 
ATOM     23  C   LIG    1       22.803 -26.989  13.700  0.00  0.00    +0.091 C 
ATOM     24  C   LIG    1       23.126 -28.404  14.245  0.00  0.00    -0.025 C 
ATOM     25  C   LIG    1       22.015 -29.278  14.686  0.00  0.00    -0.011 C 
ATOM     26  C   LIG    1       20.733 -28.735  14.509  0.00  0.00    +0.011 C 
ATOM     27  C   LIG    1       19.586 -29.475  14.764  0.00  0.00    +0.048 C 
ATOM     28  N   LIG    1       18.522 -28.669  14.425  0.00  0.00    -0.349 NA
ATOM     29  H   LIG    1       17.549 -28.934  14.480  0.00  0.00    +0.166 HD
ATOM     30  C   LIG    1       18.974 -27.436  14.034  0.00  0.00    +0.087 C 
ATOM     31 BR   LIG    1       17.872 -26.022  13.535  0.00  0.00    -0.030 Br
ATOM     32  C   LIG    1       19.646 -30.776  15.266  0.00  0.00    +0.026 C 
ATOM     33  C   LIG    1       20.923 -31.304  15.500  0.00  0.00    +0.003 C 
ATOM     34  C   LIG    1       20.345 -27.436  14.105  0.00  0.00    -0.006 C 
ATOM     35  C   LIG    1       22.086 -30.577  15.207  0.00  0.00    +0.009 C 
ATOM     36  C   LIG    1       21.374 -26.380  13.915  0.00  0.00    +0.062 C 
ATOM     37  C   LIG    1       24.408 -28.829  14.204  0.00  0.00    -0.007 C 
ENDBRANCH  17  19
ENDBRANCH   5  15
BRANCH   5  38
ATOM     38  C   LIG    1       27.563 -31.062  10.683  0.00  0.00    +0.043 C 
ATOM     39  C   LIG    1       27.776 -31.603   9.264  0.00  0.00    +0.012 C 
ATOM     40  C   LIG    1       28.562 -29.933  10.955  0.00  0.00    +0.012 C 
ENDBRANCH   5  38
BRANCH   3  41
ATOM     41  O   LIG    1       23.478 -29.405  10.626  0.00  0.00    -0.348 OA
ATOM     42  H   LIG    1       23.851 -28.511  10.500  0.00  0.00    +0.214 HD
ENDBRANCH   3  41
BRANCH   1  43
ATOM     43  C   LIG    1       21.829 -32.544   9.467  0.00  0.00    +0.035 C 
BRANCH  43  45
ATOM     44  C   LIG    1       19.776 -31.404  10.385  0.00  0.00    +0.007 C 
ATOM     45  C   LIG    1       21.253 -31.726  10.652  0.00  0.00    -0.015 C 
ATOM     46  C   LIG    1       21.336 -32.425  12.012  0.00  0.00    +0.007 C 
ENDBRANCH  43  45
ENDBRANCH   1  43
TORSDOF 6
ENDMDL
