MODEL 1
REMARK VINA RESULT:      -6.9      0.000      0.000
REMARK  Name = *****
REMARK                            x       y       z     vdW  Elec       q    Type
REMARK                         _______ _______ _______ _____ _____    ______ ____
ROOT
ATOM      1  C   LIG    1       24.825 -23.456   6.363  0.00  0.00    +0.201 C 
ATOM      2  C   LIG    1       23.475 -24.087   6.742  0.00  0.00    +0.067 C 
ATOM      3  C   LIG    1       25.812 -24.640   6.199  0.00  0.00    +0.067 C 
ENDROOT
BRANCH   1   4
ATOM      4  C   LIG    1       25.453 -22.604   7.493  0.00  0.00    +0.351 C 
ATOM      5  O   LIG    1       24.831 -21.999   8.347  0.00  0.00    -0.246 OA
BRANCH   4   6
ATOM      6  O   LIG    1       26.809 -22.533   7.321  0.00  0.00    -0.462 OA
BRANCH   6   8
ATOM      7  C   LIG    1       27.575 -20.389   6.626  0.00  0.00    +0.048 C 
ATOM      8  C   LIG    1       27.436 -21.341   7.802  0.00  0.00    +0.229 C 
ENDBRANCH   6   8
ENDBRANCH   4   6
ENDBRANCH   1   4
BRANCH   1   9
ATOM      9  O   LIG    1       24.756 -22.813   5.080  0.00  0.00    -0.475 OA
BRANCH   9  10
ATOM     10  C   LIG    1       24.127 -21.601   4.958  0.00  0.00    +0.122 A 
ATOM     11  C   LIG    1       22.910 -21.245   5.541  0.00  0.00    +0.047 A 
ATOM     12  C   LIG    1       22.349 -19.984   5.309  0.00  0.00    +0.023 A 
ATOM     13  C   LIG    1       23.021 -19.058   4.517  0.00  0.00    +0.041 A 
ATOM     14 CL   LIG    1       22.324 -17.511   4.238  0.00  0.00    -0.084 Cl
ATOM     15  C   LIG    1       24.254 -19.383   3.962  0.00  0.00    +0.023 A 
ATOM     16  C   LIG    1       24.806 -20.651   4.186  0.00  0.00    +0.047 A 
ENDBRANCH   9  10
ENDBRANCH   1   9
TORSDOF 5
ENDMDL
MODEL 2
REMARK VINA RESULT:      -6.8      3.490      5.273
REMARK  Name = *****
REMARK                            x       y       z     vdW  Elec       q    Type
REMARK                         _______ _______ _______ _____ _____    ______ ____
ROOT
ATOM      1  C   LIG    1       28.663 -20.104   7.573  0.00  0.00    +0.201 C 
ATOM      2  C   LIG    1       29.458 -21.419   7.649  0.00  0.00    +0.067 C 
ATOM      3  C   LIG    1       28.220 -19.966   6.094  0.00  0.00    +0.067 C 
ENDROOT
BRANCH   1   4
ATOM      4  C   LIG    1       29.524 -18.842   7.822  0.00  0.00    +0.351 C 
ATOM      5  O   LIG    1       30.159 -18.244   6.972  0.00  0.00    -0.246 OA
BRANCH   4   6
ATOM      6  O   LIG    1       29.562 -18.562   9.160  0.00  0.00    -0.462 OA
BRANCH   6   8
ATOM      7  C   LIG    1       30.533 -17.445  11.024  0.00  0.00    +0.048 C 
ATOM      8  C   LIG    1       30.274 -17.378   9.529  0.00  0.00    +0.229 C 
ENDBRANCH   6   8
ENDBRANCH   4   6
ENDBRANCH   1   4
BRANCH   1   9
ATOM      9  O   LIG    1       27.456 -20.181   8.346  0.00  0.00    -0.475 OA
BRANCH   9  10
ATOM     10  C   LIG    1       26.473 -21.068   7.989  0.00  0.00    +0.122 A 
ATOM     11  C   LIG    1       26.626 -22.447   7.837  0.00  0.00    +0.047 A 
ATOM     12  C   LIG    1       25.551 -23.245   7.430  0.00  0.00    +0.023 A 
ATOM     13  C   LIG    1       24.304 -22.670   7.204  0.00  0.00    +0.041 A 
ATOM     14 CL   LIG    1       22.989 -23.659   6.703  0.00  0.00    -0.084 Cl
ATOM     15  C   LIG    1       24.124 -21.304   7.389  0.00  0.00    +0.023 A 
ATOM     16  C   LIG    1       25.207 -20.507   7.785  0.00  0.00    +0.047 A 
ENDBRANCH   9  10
ENDBRANCH   1   9
TORSDOF 5
ENDMDL
MODEL 3
REMARK VINA RESULT:      -6.8      3.185      4.884
REMARK  Name = *****
REMARK                            x       y       z     vdW  Elec       q    Type
REMARK                         _______ _______ _______ _____ _____    ______ ____
ROOT
ATOM      1  C   LIG    1       24.529 -21.381   6.871  0.00  0.00    +0.201 C 
ATOM      2  C   LIG    1       24.878 -21.489   5.376  0.00  0.00    +0.067 C 
ATOM      3  C   LIG    1       23.345 -20.384   6.954  0.00  0.00    +0.067 C 
ENDROOT
BRANCH   1   4
ATOM      4  C   LIG    1       25.637 -20.715   7.722  0.00  0.00    +0.351 C 
ATOM      5  O   LIG    1       25.570 -20.500   8.919  0.00  0.00    -0.246 OA
BRANCH   4   6
ATOM      6  O   LIG    1       26.655 -20.294   6.912  0.00  0.00    -0.462 OA
BRANCH   6   8
ATOM      7  C   LIG    1       28.968 -20.130   6.376  0.00  0.00    +0.048 C 
ATOM      8  C   LIG    1       27.959 -20.296   7.499  0.00  0.00    +0.229 C 
ENDBRANCH   6   8
ENDBRANCH   4   6
ENDBRANCH   1   4
BRANCH   1   9
ATOM      9  O   LIG    1       24.036 -22.630   7.380  0.00  0.00    -0.475 OA
BRANCH   9  10
ATOM     10  C   LIG    1       24.540 -23.810   6.897  0.00  0.00    +0.122 A 
ATOM     11  C   LIG    1       25.880 -24.201   6.919  0.00  0.00    +0.047 A 
ATOM     12  C   LIG    1       26.279 -25.420   6.358  0.00  0.00    +0.023 A 
ATOM     13  C   LIG    1       25.331 -26.272   5.799  0.00  0.00    +0.041 A 
ATOM     14 CL   LIG    1       25.829 -27.767   5.112  0.00  0.00    -0.084 Cl
ATOM     15  C   LIG    1       23.986 -25.915   5.805  0.00  0.00    +0.023 A 
ATOM     16  C   LIG    1       23.594 -24.689   6.357  0.00  0.00    +0.047 A 
ENDBRANCH   9  10
ENDBRANCH   1   9
TORSDOF 5
ENDMDL
MODEL 4
REMARK VINA RESULT:      -6.8      2.627      4.936
REMARK  Name = *****
REMARK                            x       y       z     vdW  Elec       q    Type
REMARK                         _______ _______ _______ _____ _____    ______ ____
ROOT
ATOM      1  C   LIG    1       24.500 -21.930   6.484  0.00  0.00    +0.201 C 
ATOM      2  C   LIG    1       25.398 -23.178   6.525  0.00  0.00    +0.067 C 
ATOM      3  C   LIG    1       23.195 -22.327   7.222  0.00  0.00    +0.067 C 
ENDROOT
BRANCH   1   4
ATOM      4  C   LIG    1       24.021 -21.553   5.061  0.00  0.00    +0.351 C 
ATOM      5  O   LIG    1       24.462 -22.016   4.025  0.00  0.00    -0.246 OA
BRANCH   4   6
ATOM      6  O   LIG    1       23.109 -20.536   5.132  0.00  0.00    -0.462 OA
BRANCH   6   8
ATOM      7  C   LIG    1       22.149 -18.499   4.362  0.00  0.00    +0.048 C 
ATOM      8  C   LIG    1       23.357 -19.417   4.278  0.00  0.00    +0.229 C 
ENDBRANCH   6   8
ENDBRANCH   4   6
ENDBRANCH   1   4
BRANCH   1   9
ATOM      9  O   LIG    1       25.074 -20.852   7.240  0.00  0.00    -0.475 OA
BRANCH   9  10
ATOM     10  C   LIG    1       26.363 -20.457   6.992  0.00  0.00    +0.122 A 
ATOM     11  C   LIG    1       26.887 -20.094   5.751  0.00  0.00    +0.047 A 
ATOM     12  C   LIG    1       28.236 -19.743   5.618  0.00  0.00    +0.023 A 
ATOM     13  C   LIG    1       29.062 -19.723   6.738  0.00  0.00    +0.041 A 
ATOM     14 CL   LIG    1       30.718 -19.292   6.566  0.00  0.00    -0.084 Cl
ATOM     15  C   LIG    1       28.546 -20.043   7.989  0.00  0.00    +0.023 A 
ATOM     16  C   LIG    1       27.199 -20.406   8.115  0.00  0.00    +0.047 A 
ENDBRANCH   9  10
ENDBRANCH   1   9
TORSDOF 5
ENDMDL
MODEL 5
REMARK VINA RESULT:      -6.7      3.907      5.794
REMARK  Name = *****
REMARK                            x       y       z     vdW  Elec       q    Type
REMARK                         _______ _______ _______ _____ _____    ______ ____
ROOT
ATOM      1  C   LIG    1       29.801 -19.932   8.085  0.00  0.00    +0.201 C 
ATOM      2  C   LIG    1       29.805 -21.470   8.049  0.00  0.00    +0.067 C 
ATOM      3  C   LIG    1       30.325 -19.478   6.698  0.00  0.00    +0.067 C 
ENDROOT
BRANCH   1   4
ATOM      4  C   LIG    1       30.821 -19.330   9.081  0.00  0.00    +0.351 C 
ATOM      5  O   LIG    1       31.992 -19.652   9.171  0.00  0.00    -0.246 OA
BRANCH   4   6
ATOM      6  O   LIG    1       30.186 -18.465   9.930  0.00  0.00    -0.462 OA
BRANCH   6   8
ATOM      7  C   LIG    1       31.031 -16.581  11.115  0.00  0.00    +0.048 C 
ATOM      8  C   LIG    1       30.520 -17.083   9.775  0.00  0.00    +0.229 C 
ENDBRANCH   6   8
ENDBRANCH   4   6
ENDBRANCH   1   4
BRANCH   1   9
ATOM      9  O   LIG    1       28.465 -19.418   8.194  0.00  0.00    -0.475 OA
BRANCH   9  10
ATOM     10  C   LIG    1       27.411 -20.152   7.717  0.00  0.00    +0.122 A 
ATOM     11  C   LIG    1       27.084 -20.342   6.373  0.00  0.00    +0.047 A 
ATOM     12  C   LIG    1       25.955 -21.086   6.009  0.00  0.00    +0.023 A 
ATOM     13  C   LIG    1       25.163 -21.673   6.992  0.00  0.00    +0.041 A 
ATOM     14 CL   LIG    1       23.777 -22.584   6.537  0.00  0.00    -0.084 Cl
ATOM     15  C   LIG    1       25.497 -21.527   8.334  0.00  0.00    +0.023 A 
ATOM     16  C   LIG    1       26.621 -20.771   8.693  0.00  0.00    +0.047 A 
ENDBRANCH   9  10
ENDBRANCH   1   9
TORSDOF 5
ENDMDL
MODEL 6
REMARK VINA RESULT:      -6.6      3.062      5.352
REMARK  Name = *****
REMARK                            x       y       z     vdW  Elec       q    Type
REMARK                         _______ _______ _______ _____ _____    ______ ____
ROOT
ATOM      1  C   LIG    1       25.621 -21.459   7.263  0.00  0.00    +0.201 C 
ATOM      2  C   LIG    1       25.719 -22.938   7.673  0.00  0.00    +0.067 C 
ATOM      3  C   LIG    1       26.005 -20.647   8.527  0.00  0.00    +0.067 C 
ENDROOT
BRANCH   1   4
ATOM      4  C   LIG    1       24.178 -20.994   6.950  0.00  0.00    +0.351 C 
ATOM      5  O   LIG    1       23.237 -21.049   7.721  0.00  0.00    -0.246 OA
BRANCH   4   6
ATOM      6  O   LIG    1       24.086 -20.621   5.637  0.00  0.00    -0.462 OA
BRANCH   6   8
ATOM      7  C   LIG    1       22.458 -19.074   4.848  0.00  0.00    +0.048 C 
ATOM      8  C   LIG    1       22.761 -20.541   5.104  0.00  0.00    +0.229 C 
ENDBRANCH   6   8
ENDBRANCH   4   6
ENDBRANCH   1   4
BRANCH   1   9
ATOM      9  O   LIG    1       26.599 -21.130   6.265  0.00  0.00    -0.475 OA
BRANCH   9  10
ATOM     10  C   LIG    1       27.833 -20.670   6.644  0.00  0.00    +0.122 A 
ATOM     11  C   LIG    1       28.676 -21.262   7.586  0.00  0.00    +0.047 A 
ATOM     12  C   LIG    1       29.902 -20.674   7.918  0.00  0.00    +0.023 A 
ATOM     13  C   LIG    1       30.307 -19.504   7.282  0.00  0.00    +0.041 A 
ATOM     14 CL   LIG    1       31.815 -18.788   7.695  0.00  0.00    -0.084 Cl
ATOM     15  C   LIG    1       29.497 -18.923   6.312  0.00  0.00    +0.023 A 
ATOM     16  C   LIG    1       28.265 -19.509   5.992  0.00  0.00    +0.047 A 
ENDBRANCH   9  10
ENDBRANCH   1   9
TORSDOF 5
ENDMDL
MODEL 7
REMARK VINA RESULT:      -6.6      1.640      2.335
REMARK  Name = *****
REMARK                            x       y       z     vdW  Elec       q    Type
REMARK                         _______ _______ _______ _____ _____    ______ ____
ROOT
ATOM      1  C   LIG    1       26.429 -21.495   7.270  0.00  0.00    +0.201 C 
ATOM      2  C   LIG    1       25.581 -20.502   8.084  0.00  0.00    +0.067 C 
ATOM      3  C   LIG    1       26.207 -22.878   7.933  0.00  0.00    +0.067 C 
ENDROOT
BRANCH   1   4
ATOM      4  C   LIG    1       27.954 -21.263   7.398  0.00  0.00    +0.351 C 
ATOM      5  O   LIG    1       28.629 -21.543   8.372  0.00  0.00    -0.246 OA
BRANCH   4   6
ATOM      6  O   LIG    1       28.414 -20.589   6.300  0.00  0.00    -0.462 OA
BRANCH   6   8
ATOM      7  C   LIG    1       29.393 -18.505   5.698  0.00  0.00    +0.048 C 
ATOM      8  C   LIG    1       29.572 -19.776   6.509  0.00  0.00    +0.229 C 
ENDBRANCH   6   8
ENDBRANCH   4   6
ENDBRANCH   1   4
BRANCH   1   9
ATOM      9  O   LIG    1       25.940 -21.614   5.925  0.00  0.00    -0.475 OA
BRANCH   9  10
ATOM     10  C   LIG    1       24.861 -20.871   5.523  0.00  0.00    +0.122 A 
ATOM     11  C   LIG    1       23.579 -20.918   6.074  0.00  0.00    +0.047 A 
ATOM     12  C   LIG    1       22.546 -20.133   5.549  0.00  0.00    +0.023 A 
ATOM     13  C   LIG    1       22.799 -19.269   4.488  0.00  0.00    +0.041 A 
ATOM     14 CL   LIG    1       21.523 -18.309   3.849  0.00  0.00    -0.084 Cl
ATOM     15  C   LIG    1       24.080 -19.180   3.954  0.00  0.00    +0.023 A 
ATOM     16  C   LIG    1       25.108 -19.977   4.474  0.00  0.00    +0.047 A 
ENDBRANCH   9  10
ENDBRANCH   1   9
TORSDOF 5
ENDMDL
MODEL 8
REMARK VINA RESULT:      -6.5      3.341      5.662
REMARK  Name = *****
REMARK                            x       y       z     vdW  Elec       q    Type
REMARK                         _______ _______ _______ _____ _____    ______ ____
ROOT
ATOM      1  C   LIG    1       24.450 -22.175   6.536  0.00  0.00    +0.201 C 
ATOM      2  C   LIG    1       23.229 -23.017   6.946  0.00  0.00    +0.067 C 
ATOM      3  C   LIG    1       24.717 -21.217   7.725  0.00  0.00    +0.067 C 
ENDROOT
BRANCH   1   4
ATOM      4  C   LIG    1       24.177 -21.222   5.347  0.00  0.00    +0.351 C 
ATOM      5  O   LIG    1       24.697 -21.301   4.249  0.00  0.00    -0.246 OA
BRANCH   4   6
ATOM      6  O   LIG    1       23.354 -20.205   5.746  0.00  0.00    -0.462 OA
BRANCH   6   8
ATOM      7  C   LIG    1       22.349 -18.443   4.501  0.00  0.00    +0.048 C 
ATOM      8  C   LIG    1       22.258 -19.913   4.875  0.00  0.00    +0.229 C 
ENDBRANCH   6   8
ENDBRANCH   4   6
ENDBRANCH   1   4
BRANCH   1   9
ATOM      9  O   LIG    1       25.624 -22.990   6.408  0.00  0.00    -0.475 OA
BRANCH   9  10
ATOM     10  C   LIG    1       25.503 -24.312   6.068  0.00  0.00    +0.122 A 
ATOM     11  C   LIG    1       25.046 -24.807   4.845  0.00  0.00    +0.047 A 
ATOM     12  C   LIG    1       24.930 -26.186   4.630  0.00  0.00    +0.023 A 
ATOM     13  C   LIG    1       25.304 -27.079   5.629  0.00  0.00    +0.041 A 
ATOM     14 CL   LIG    1       25.158 -28.771   5.356  0.00  0.00    -0.084 Cl
ATOM     15  C   LIG    1       25.799 -26.604   6.839  0.00  0.00    +0.023 A 
ATOM     16  C   LIG    1       25.901 -25.223   7.054  0.00  0.00    +0.047 A 
ENDBRANCH   9  10
ENDBRANCH   1   9
TORSDOF 5
ENDMDL
MODEL 9
REMARK VINA RESULT:      -6.4      1.817      3.447
REMARK  Name = *****
REMARK                            x       y       z     vdW  Elec       q    Type
REMARK                         _______ _______ _______ _____ _____    ______ ____
ROOT
ATOM      1  C   LIG    1       24.885 -23.832   6.286  0.00  0.00    +0.201 C 
ATOM      2  C   LIG    1       25.603 -23.064   7.409  0.00  0.00    +0.067 C 
ATOM      3  C   LIG    1       23.410 -23.966   6.744  0.00  0.00    +0.067 C 
ENDROOT
BRANCH   1   4
ATOM      4  C   LIG    1       25.360 -25.298   6.133  0.00  0.00    +0.351 C 
ATOM      5  O   LIG    1       26.499 -25.646   5.880  0.00  0.00    -0.246 OA
BRANCH   4   6
ATOM      6  O   LIG    1       24.287 -26.143   6.206  0.00  0.00    -0.462 OA
BRANCH   6   8
ATOM      7  C   LIG    1       24.648 -28.435   6.734  0.00  0.00    +0.048 C 
ATOM      8  C   LIG    1       24.466 -27.430   5.610  0.00  0.00    +0.229 C 
ENDBRANCH   6   8
ENDBRANCH   4   6
ENDBRANCH   1   4
BRANCH   1   9
ATOM      9  O   LIG    1       24.858 -23.069   5.070  0.00  0.00    -0.475 OA
BRANCH   9  10
ATOM     10  C   LIG    1       24.216 -21.859   5.039  0.00  0.00    +0.122 A 
ATOM     11  C   LIG    1       23.247 -21.419   5.943  0.00  0.00    +0.047 A 
ATOM     12  C   LIG    1       22.634 -20.171   5.783  0.00  0.00    +0.023 A 
ATOM     13  C   LIG    1       23.011 -19.340   4.733  0.00  0.00    +0.041 A 
ATOM     14 CL   LIG    1       22.252 -17.809   4.543  0.00  0.00    -0.084 Cl
ATOM     15  C   LIG    1       24.003 -19.746   3.846  0.00  0.00    +0.023 A 
ATOM     16  C   LIG    1       24.605 -21.001   4.003  0.00  0.00    +0.047 A 
ENDBRANCH   9  10
ENDBRANCH   1   9
TORSDOF 5
ENDMDL
