MODEL 1
REMARK VINA RESULT:      -4.9      0.000      0.000
REMARK  Name = *****
REMARK                            x       y       z     vdW  Elec       q    Type
REMARK                         _______ _______ _______ _____ _____    ______ ____
ROOT
ATOM      1  C   LIG    1       27.838 -18.765   4.930  0.00  0.00    +0.099 A 
ATOM      2  C   LIG    1       27.342 -20.053   5.201  0.00  0.00    +0.137 A 
ATOM      3  N   LIG    1       27.897 -20.806   6.186  0.00  0.00    -0.239 NA
ATOM      4  C   LIG    1       28.922 -20.317   6.910  0.00  0.00    +0.113 A 
ATOM      5  C   LIG    1       29.475 -19.076   6.694  0.00  0.00    +0.021 A 
ATOM      6  C   LIG    1       28.927 -18.293   5.685  0.00  0.00    +0.020 A 
ENDROOT
BRANCH   1   8
ATOM      7  O   LIG    1       26.462 -18.290   3.012  0.00  0.00    -0.245 OA
ATOM      8  C   LIG    1       27.204 -17.893   3.896  0.00  0.00    +0.346 C 
BRANCH   8   9
ATOM      9  O   LIG    1       27.598 -16.609   4.069  0.00  0.00    -0.417 OA
BRANCH   9  10
ATOM     10  C   LIG    1       26.922 -15.647   3.262  0.00  0.00    +0.403 C 
ATOM     11  C   LIG    1       27.156 -14.304   3.858  0.00  0.00    +0.047 A 
ATOM     12  C   LIG    1       25.969 -13.830   4.371  0.00  0.00    +0.069 A 
ATOM     13  C   LIG    1       25.865 -12.625   5.042  0.00  0.00    +0.015 A 
ATOM     14  C   LIG    1       27.025 -11.867   5.187  0.00  0.00    +0.001 A 
ATOM     15  C   LIG    1       28.241 -12.322   4.648  0.00  0.00    +0.001 A 
ATOM     16  C   LIG    1       24.911 -14.789   4.070  0.00  0.00    +0.343 C 
ATOM     17  O   LIG    1       23.748 -14.687   4.368  0.00  0.00    -0.245 OA
ATOM     18  C   LIG    1       28.313 -13.550   3.977  0.00  0.00    +0.012 A 
ATOM     19  O   LIG    1       25.494 -15.805   3.366  0.00  0.00    -0.417 OA
ENDBRANCH   9  10
ENDBRANCH   8   9
ENDBRANCH   1   8
BRANCH   2  20
ATOM     20  N   LIG    1       26.190 -20.540   4.552  0.00  0.00    -0.299 N 
ATOM     21  H   LIG    1       26.397 -21.156   3.769  0.00  0.00    +0.154 HD
BRANCH  20  22
ATOM     22  C   LIG    1       24.829 -20.470   4.891  0.00  0.00    +0.033 A 
ATOM     23  C   LIG    1       23.948 -19.512   4.380  0.00  0.00    +0.035 A 
ATOM     24  C   LIG    1       22.567 -19.549   4.636  0.00  0.00    +0.057 A 
ATOM     25  C   LIG    1       22.050 -20.589   5.414  0.00  0.00    +0.012 A 
ATOM     26  C   LIG    1       22.902 -21.572   5.916  0.00  0.00    +0.002 A 
ATOM     27  C   LIG    1       24.276 -21.510   5.653  0.00  0.00    +0.023 A 
BRANCH  24  28
ATOM     28  C   LIG    1       21.691 -18.475   4.048  0.00  0.00    +0.417 C 
ATOM     29  F   LIG    1       21.996 -18.201   2.748  0.00  0.00    -0.166 F 
ATOM     30  F   LIG    1       21.798 -17.291   4.713  0.00  0.00    -0.166 F 
ATOM     31  F   LIG    1       20.364 -18.786   4.059  0.00  0.00    -0.166 F 
ENDBRANCH  24  28
ENDBRANCH  20  22
ENDBRANCH   2  20
TORSDOF 6
ENDMDL
MODEL 2
REMARK VINA RESULT:      -2.3      3.069      6.152
REMARK  Name = *****
REMARK                            x       y       z     vdW  Elec       q    Type
REMARK                         _______ _______ _______ _____ _____    ______ ____
ROOT
ATOM      1  C   LIG    1       25.085 -14.908   4.143  0.00  0.00    +0.099 A 
ATOM      2  C   LIG    1       26.122 -15.658   3.560  0.00  0.00    +0.137 A 
ATOM      3  N   LIG    1       27.414 -15.261   3.696  0.00  0.00    -0.239 NA
ATOM      4  C   LIG    1       27.705 -14.148   4.397  0.00  0.00    +0.113 A 
ATOM      5  C   LIG    1       26.748 -13.351   4.981  0.00  0.00    +0.021 A 
ATOM      6  C   LIG    1       25.419 -13.736   4.846  0.00  0.00    +0.020 A 
ENDROOT
BRANCH   1   8
ATOM      7  O   LIG    1       22.723 -14.642   3.757  0.00  0.00    -0.245 OA
ATOM      8  C   LIG    1       23.663 -15.358   4.062  0.00  0.00    +0.346 C 
BRANCH   8   9
ATOM      9  O   LIG    1       23.572 -16.666   4.405  0.00  0.00    -0.417 OA
BRANCH   9  10
ATOM     10  C   LIG    1       22.321 -17.067   4.959  0.00  0.00    +0.403 C 
ATOM     11  C   LIG    1       22.410 -18.516   5.286  0.00  0.00    +0.047 A 
ATOM     12  C   LIG    1       21.581 -19.216   4.437  0.00  0.00    +0.069 A 
ATOM     13  C   LIG    1       21.480 -20.596   4.450  0.00  0.00    +0.015 A 
ATOM     14  C   LIG    1       22.253 -21.289   5.380  0.00  0.00    +0.001 A 
ATOM     15  C   LIG    1       23.084 -20.590   6.272  0.00  0.00    +0.001 A 
ATOM     16  C   LIG    1       20.872 -18.268   3.585  0.00  0.00    +0.343 C 
ATOM     17  O   LIG    1       20.065 -18.538   2.732  0.00  0.00    -0.245 OA
ATOM     18  C   LIG    1       23.167 -19.192   6.230  0.00  0.00    +0.012 A 
ATOM     19  O   LIG    1       21.281 -17.021   3.964  0.00  0.00    -0.417 OA
ENDBRANCH   9  10
ENDBRANCH   8   9
ENDBRANCH   1   8
BRANCH   2  20
ATOM     20  N   LIG    1       25.862 -16.893   2.934  0.00  0.00    -0.299 N 
ATOM     21  H   LIG    1       25.709 -16.816   1.931  0.00  0.00    +0.154 HD
BRANCH  20  22
ATOM     22  C   LIG    1       25.945 -18.214   3.407  0.00  0.00    +0.033 A 
ATOM     23  C   LIG    1       26.794 -18.617   4.443  0.00  0.00    +0.035 A 
ATOM     24  C   LIG    1       26.758 -19.915   4.979  0.00  0.00    +0.057 A 
ATOM     25  C   LIG    1       25.831 -20.832   4.475  0.00  0.00    +0.012 A 
ATOM     26  C   LIG    1       24.956 -20.449   3.460  0.00  0.00    +0.002 A 
ATOM     27  C   LIG    1       25.015 -19.152   2.935  0.00  0.00    +0.023 A 
BRANCH  24  28
ATOM     28  C   LIG    1       27.710 -20.266   6.092  0.00  0.00    +0.417 C 
ATOM     29  F   LIG    1       28.986 -20.456   5.653  0.00  0.00    -0.166 F 
ATOM     30  F   LIG    1       27.361 -21.415   6.735  0.00  0.00    -0.166 F 
ATOM     31  F   LIG    1       27.791 -19.311   7.062  0.00  0.00    -0.166 F 
ENDBRANCH  24  28
ENDBRANCH  20  22
ENDBRANCH   2  20
TORSDOF 6
ENDMDL
MODEL 3
REMARK VINA RESULT:      -2.3      2.149      6.072
REMARK  Name = *****
REMARK                            x       y       z     vdW  Elec       q    Type
REMARK                         _______ _______ _______ _____ _____    ______ ____
ROOT
ATOM      1  C   LIG    1       26.965 -19.369   4.636  0.00  0.00    +0.099 A 
ATOM      2  C   LIG    1       27.711 -18.184   4.505  0.00  0.00    +0.137 A 
ATOM      3  N   LIG    1       28.861 -18.018   5.208  0.00  0.00    -0.239 NA
ATOM      4  C   LIG    1       29.293 -18.992   6.031  0.00  0.00    +0.113 A 
ATOM      5  C   LIG    1       28.612 -20.171   6.229  0.00  0.00    +0.021 A 
ATOM      6  C   LIG    1       27.428 -20.357   5.525  0.00  0.00    +0.020 A 
ENDROOT
BRANCH   1   8
ATOM      7  O   LIG    1       25.518 -19.112   2.729  0.00  0.00    -0.245 OA
ATOM      8  C   LIG    1       25.732 -19.602   3.826  0.00  0.00    +0.346 C 
BRANCH   8   9
ATOM      9  O   LIG    1       24.881 -20.410   4.503  0.00  0.00    -0.417 OA
BRANCH   9  10
ATOM     10  C   LIG    1       23.945 -19.743   5.346  0.00  0.00    +0.403 C 
ATOM     11  C   LIG    1       22.577 -20.132   4.909  0.00  0.00    +0.047 A 
ATOM     12  C   LIG    1       21.956 -19.034   4.355  0.00  0.00    +0.069 A 
ATOM     13  C   LIG    1       20.689 -19.083   3.803  0.00  0.00    +0.015 A 
ATOM     14  C   LIG    1       20.023 -20.307   3.826  0.00  0.00    +0.001 A 
ATOM     15  C   LIG    1       20.630 -21.432   4.411  0.00  0.00    +0.001 A 
ATOM     16  C   LIG    1       22.845 -17.883   4.473  0.00  0.00    +0.343 C 
ATOM     17  O   LIG    1       22.616 -16.762   4.097  0.00  0.00    -0.245 OA
ATOM     18  C   LIG    1       21.917 -21.350   4.959  0.00  0.00    +0.012 A 
ATOM     19  O   LIG    1       23.969 -18.322   5.115  0.00  0.00    -0.417 OA
ENDBRANCH   9  10
ENDBRANCH   8   9
ENDBRANCH   1   8
BRANCH   2  20
ATOM     20  N   LIG    1       27.356 -17.204   3.557  0.00  0.00    -0.299 N 
ATOM     21  H   LIG    1       27.181 -17.583   2.629  0.00  0.00    +0.154 HD
BRANCH  20  22
ATOM     22  C   LIG    1       27.036 -15.843   3.697  0.00  0.00    +0.033 A 
ATOM     23  C   LIG    1       25.728 -15.350   3.709  0.00  0.00    +0.035 A 
ATOM     24  C   LIG    1       25.437 -14.002   3.982  0.00  0.00    +0.057 A 
ATOM     25  C   LIG    1       26.488 -13.127   4.271  0.00  0.00    +0.012 A 
ATOM     26  C   LIG    1       27.799 -13.598   4.291  0.00  0.00    +0.002 A 
ATOM     27  C   LIG    1       28.066 -14.943   4.008  0.00  0.00    +0.023 A 
BRANCH  24  28
ATOM     28  C   LIG    1       23.999 -13.555   3.972  0.00  0.00    +0.417 C 
ATOM     29  F   LIG    1       23.263 -14.123   4.969  0.00  0.00    -0.166 F 
ATOM     30  F   LIG    1       23.361 -13.872   2.811  0.00  0.00    -0.166 F 
ATOM     31  F   LIG    1       23.845 -12.208   4.120  0.00  0.00    -0.166 F 
ENDBRANCH  24  28
ENDBRANCH  20  22
ENDBRANCH   2  20
TORSDOF 6
ENDMDL
MODEL 4
REMARK VINA RESULT:      -2.3      1.347      2.080
REMARK  Name = *****
REMARK                            x       y       z     vdW  Elec       q    Type
REMARK                         _______ _______ _______ _____ _____    ______ ____
ROOT
ATOM      1  C   LIG    1       27.822 -18.063   4.635  0.00  0.00    +0.099 A 
ATOM      2  C   LIG    1       27.312 -19.367   4.775  0.00  0.00    +0.137 A 
ATOM      3  N   LIG    1       27.868 -20.226   5.668  0.00  0.00    -0.239 NA
ATOM      4  C   LIG    1       28.908 -19.829   6.426  0.00  0.00    +0.113 A 
ATOM      5  C   LIG    1       29.475 -18.579   6.336  0.00  0.00    +0.021 A 
ATOM      6  C   LIG    1       28.926 -17.687   5.423  0.00  0.00    +0.020 A 
ENDROOT
BRANCH   1   8
ATOM      7  O   LIG    1       27.573 -16.847   2.572  0.00  0.00    -0.245 OA
ATOM      8  C   LIG    1       27.189 -17.079   3.707  0.00  0.00    +0.346 C 
BRANCH   8   9
ATOM      9  O   LIG    1       26.148 -16.467   4.322  0.00  0.00    -0.417 OA
BRANCH   9  10
ATOM     10  C   LIG    1       26.407 -15.146   4.792  0.00  0.00    +0.403 C 
ATOM     11  C   LIG    1       25.593 -14.203   3.978  0.00  0.00    +0.047 A 
ATOM     12  C   LIG    1       26.437 -13.449   3.192  0.00  0.00    +0.069 A 
ATOM     13  C   LIG    1       25.982 -12.515   2.279  0.00  0.00    +0.015 A 
ATOM     14  C   LIG    1       24.604 -12.337   2.171  0.00  0.00    +0.001 A 
ATOM     15  C   LIG    1       23.729 -13.079   2.984  0.00  0.00    +0.001 A 
ATOM     16  C   LIG    1       27.816 -13.805   3.507  0.00  0.00    +0.343 C 
ATOM     17  O   LIG    1       28.807 -13.335   3.010  0.00  0.00    -0.245 OA
ATOM     18  C   LIG    1       24.222 -14.021   3.896  0.00  0.00    +0.012 A 
ATOM     19  O   LIG    1       27.759 -14.751   4.491  0.00  0.00    -0.417 OA
ENDBRANCH   9  10
ENDBRANCH   8   9
ENDBRANCH   1   8
BRANCH   2  20
ATOM     20  N   LIG    1       26.147 -19.768   4.092  0.00  0.00    -0.299 N 
ATOM     21  H   LIG    1       26.329 -20.129   3.158  0.00  0.00    +0.154 HD
BRANCH  20  22
ATOM     22  C   LIG    1       24.819 -19.920   4.524  0.00  0.00    +0.033 A 
ATOM     23  C   LIG    1       23.756 -19.138   4.061  0.00  0.00    +0.035 A 
ATOM     24  C   LIG    1       22.422 -19.402   4.414  0.00  0.00    +0.057 A 
ATOM     25  C   LIG    1       22.142 -20.494   5.240  0.00  0.00    +0.012 A 
ATOM     26  C   LIG    1       23.180 -21.305   5.696  0.00  0.00    +0.002 A 
ATOM     27  C   LIG    1       24.503 -21.019   5.338  0.00  0.00    +0.023 A 
BRANCH  24  28
ATOM     28  C   LIG    1       21.339 -18.507   3.872  0.00  0.00    +0.417 C 
ATOM     29  F   LIG    1       21.545 -18.160   2.570  0.00  0.00    -0.166 F 
ATOM     30  F   LIG    1       21.237 -17.335   4.558  0.00  0.00    -0.166 F 
ATOM     31  F   LIG    1       20.097 -19.067   3.912  0.00  0.00    -0.166 F 
ENDBRANCH  24  28
ENDBRANCH  20  22
ENDBRANCH   2  20
TORSDOF 6
ENDMDL
