MODEL 1
REMARK VINA RESULT:      -7.5      0.000      0.000
REMARK  Name = *****
REMARK                            x       y       z     vdW  Elec       q    Type
REMARK                         _______ _______ _______ _____ _____    ______ ____
ROOT
ATOM      1  C   LIG    1       25.775 -19.072   3.987  0.00  0.00    +0.000 C 
ENDROOT
BRANCH   1   2
ATOM      2  C   LIG    1       26.677 -20.126   4.646  0.00  0.00    -0.000 C 
BRANCH   2   3
ATOM      3  C   LIG    1       27.831 -19.425   5.371  0.00  0.00    +0.000 C 
BRANCH   3   4
ATOM      4  C   LIG    1       28.660 -20.341   6.277  0.00  0.00    +0.000 C 
BRANCH   4   5
ATOM      5  C   LIG    1       29.380 -19.493   7.328  0.00  0.00    +0.011 C 
BRANCH   5   6
ATOM      6  C   LIG    1       30.864 -19.293   7.034  0.00  0.00    +0.120 C 
BRANCH   6   7
ATOM      7  C   LIG    1       31.608 -18.907   8.296  0.00  0.00    +0.307 C 
ATOM      8  O   LIG    1       32.071 -19.693   9.107  0.00  0.00    -0.251 OA
BRANCH   7   9
ATOM      9  O   LIG    1       31.681 -17.549   8.390  0.00  0.00    -0.465 OA
BRANCH   9  11
ATOM     10  C   LIG    1       30.768 -16.710  10.477  0.00  0.00    +0.048 C 
ATOM     11  C   LIG    1       32.022 -17.056   9.695  0.00  0.00    +0.228 C 
ENDBRANCH   9  11
ENDBRANCH   7   9
ENDBRANCH   6   7
ENDBRANCH   5   6
ENDBRANCH   4   5
ENDBRANCH   3   4
ENDBRANCH   2   3
ENDBRANCH   1   2
BRANCH   1  12
ATOM     12  C   LIG    1       24.351 -19.565   3.719  0.00  0.00    +0.001 C 
BRANCH  12  13
ATOM     13  C   LIG    1       24.237 -21.072   4.016  0.00  0.00    +0.008 C 
BRANCH  13  14
ATOM     14  C   LIG    1       23.564 -21.395   5.375  0.00  0.00    +0.017 C 
ATOM     15  C   LIG    1       22.591 -20.270   5.760  0.00  0.00    +0.012 C 
BRANCH  14  16
ATOM     16  C   LIG    1       24.522 -21.631   6.539  0.00  0.00    -0.031 A 
ATOM     17  C   LIG    1       25.154 -22.870   6.778  0.00  0.00    +0.017 A 
ATOM     18  I   LIG    1       24.847 -24.592   5.600  0.00  0.00    -0.043 I 
ATOM     19  C   LIG    1       26.027 -23.032   7.864  0.00  0.00    +0.014 A 
ATOM     20  C   LIG    1       26.272 -21.974   8.738  0.00  0.00    +0.001 A 
ATOM     21  C   LIG    1       25.639 -20.756   8.540  0.00  0.00    +0.000 A 
ATOM     22  C   LIG    1       24.768 -20.592   7.462  0.00  0.00    +0.005 A 
ENDBRANCH  14  16
ENDBRANCH  13  14
ENDBRANCH  12  13
ENDBRANCH   1  12
TORSDOF 12
ENDMDL
MODEL 2
REMARK VINA RESULT:      -7.3      2.005      3.485
REMARK  Name = *****
REMARK                            x       y       z     vdW  Elec       q    Type
REMARK                         _______ _______ _______ _____ _____    ______ ____
ROOT
ATOM      1  C   LIG    1       28.553 -19.182   5.760  0.00  0.00    +0.000 C 
ENDROOT
BRANCH   1   2
ATOM      2  C   LIG    1       29.996 -18.674   5.892  0.00  0.00    -0.000 C 
BRANCH   2   3
ATOM      3  C   LIG    1       30.755 -19.554   6.891  0.00  0.00    +0.000 C 
BRANCH   3   4
ATOM      4  C   LIG    1       31.560 -18.777   7.937  0.00  0.00    +0.000 C 
BRANCH   4   5
ATOM      5  C   LIG    1       30.665 -18.475   9.141  0.00  0.00    +0.011 C 
BRANCH   5   6
ATOM      6  C   LIG    1       30.681 -17.007   9.558  0.00  0.00    +0.120 C 
BRANCH   6   7
ATOM      7  C   LIG    1       32.105 -16.503   9.669  0.00  0.00    +0.307 C 
ATOM      8  O   LIG    1       32.616 -15.670   8.936  0.00  0.00    -0.251 OA
BRANCH   7   9
ATOM      9  O   LIG    1       32.732 -17.120  10.711  0.00  0.00    -0.465 OA
BRANCH   9  11
ATOM     10  C   LIG    1       32.212 -16.678  13.041  0.00  0.00    +0.048 C 
ATOM     11  C   LIG    1       33.024 -16.264  11.827  0.00  0.00    +0.228 C 
ENDBRANCH   9  11
ENDBRANCH   7   9
ENDBRANCH   6   7
ENDBRANCH   5   6
ENDBRANCH   4   5
ENDBRANCH   3   4
ENDBRANCH   2   3
ENDBRANCH   1   2
BRANCH   1  12
ATOM     12  C   LIG    1       28.323 -20.551   6.405  0.00  0.00    +0.001 C 
BRANCH  12  13
ATOM     13  C   LIG    1       27.544 -20.402   7.725  0.00  0.00    +0.008 C 
BRANCH  13  14
ATOM     14  C   LIG    1       26.032 -20.721   7.600  0.00  0.00    +0.017 C 
ATOM     15  C   LIG    1       25.381 -20.733   8.992  0.00  0.00    +0.012 C 
BRANCH  14  16
ATOM     16  C   LIG    1       25.696 -22.030   6.892  0.00  0.00    -0.031 A 
ATOM     17  C   LIG    1       25.085 -22.084   5.621  0.00  0.00    +0.017 A 
ATOM     18  I   LIG    1       24.506 -20.381   4.522  0.00  0.00    -0.043 I 
ATOM     19  C   LIG    1       24.799 -23.317   5.016  0.00  0.00    +0.014 A 
ATOM     20  C   LIG    1       25.097 -24.511   5.668  0.00  0.00    +0.001 A 
ATOM     21  C   LIG    1       25.669 -24.482   6.931  0.00  0.00    +0.000 A 
ATOM     22  C   LIG    1       25.953 -23.258   7.538  0.00  0.00    +0.005 A 
ENDBRANCH  14  16
ENDBRANCH  13  14
ENDBRANCH  12  13
ENDBRANCH   1  12
TORSDOF 12
ENDMDL
MODEL 3
REMARK VINA RESULT:      -7.1      1.794      2.984
REMARK  Name = *****
REMARK                            x       y       z     vdW  Elec       q    Type
REMARK                         _______ _______ _______ _____ _____    ______ ____
ROOT
ATOM      1  C   LIG    1       27.819 -20.830   7.096  0.00  0.00    +0.000 C 
ENDROOT
BRANCH   1   2
ATOM      2  C   LIG    1       27.576 -19.921   5.882  0.00  0.00    -0.000 C 
BRANCH   2   3
ATOM      3  C   LIG    1       28.914 -19.352   5.397  0.00  0.00    +0.000 C 
BRANCH   3   4
ATOM      4  C   LIG    1       29.652 -18.496   6.431  0.00  0.00    +0.000 C 
BRANCH   4   5
ATOM      5  C   LIG    1       30.943 -19.205   6.844  0.00  0.00    +0.011 C 
BRANCH   5   6
ATOM      6  C   LIG    1       31.594 -18.605   8.087  0.00  0.00    +0.120 C 
BRANCH   6   7
ATOM      7  C   LIG    1       31.513 -19.572   9.249  0.00  0.00    +0.307 C 
ATOM      8  O   LIG    1       32.161 -20.601   9.354  0.00  0.00    -0.251 OA
BRANCH   7   9
ATOM      9  O   LIG    1       30.604 -19.121  10.161  0.00  0.00    -0.465 OA
BRANCH   9  11
ATOM     10  C   LIG    1       31.253 -17.164  11.442  0.00  0.00    +0.048 C 
ATOM     11  C   LIG    1       30.491 -17.692  10.239  0.00  0.00    +0.228 C 
ENDBRANCH   9  11
ENDBRANCH   7   9
ENDBRANCH   6   7
ENDBRANCH   5   6
ENDBRANCH   4   5
ENDBRANCH   3   4
ENDBRANCH   2   3
ENDBRANCH   1   2
BRANCH   1  12
ATOM     12  C   LIG    1       27.151 -20.331   8.378  0.00  0.00    +0.001 C 
BRANCH  12  13
ATOM     13  C   LIG    1       25.872 -21.139   8.669  0.00  0.00    +0.008 C 
BRANCH  13  14
ATOM     14  C   LIG    1       24.912 -21.251   7.457  0.00  0.00    +0.017 C 
ATOM     15  C   LIG    1       23.458 -21.068   7.920  0.00  0.00    +0.012 C 
BRANCH  14  16
ATOM     16  C   LIG    1       25.011 -22.550   6.662  0.00  0.00    -0.031 A 
ATOM     17  C   LIG    1       24.723 -22.634   5.284  0.00  0.00    +0.017 A 
ATOM     18  I   LIG    1       24.076 -21.000   4.117  0.00  0.00    -0.043 I 
ATOM     19  C   LIG    1       24.831 -23.855   4.602  0.00  0.00    +0.014 A 
ATOM     20  C   LIG    1       25.208 -25.012   5.279  0.00  0.00    +0.001 A 
ATOM     21  C   LIG    1       25.466 -24.959   6.641  0.00  0.00    +0.000 A 
ATOM     22  C   LIG    1       25.358 -23.748   7.323  0.00  0.00    +0.005 A 
ENDBRANCH  14  16
ENDBRANCH  13  14
ENDBRANCH  12  13
ENDBRANCH   1  12
TORSDOF 12
ENDMDL
MODEL 4
REMARK VINA RESULT:      -7.0      5.439      8.363
REMARK  Name = *****
REMARK                            x       y       z     vdW  Elec       q    Type
REMARK                         _______ _______ _______ _____ _____    ______ ____
ROOT
ATOM      1  C   LIG    1       24.776 -24.384   5.913  0.00  0.00    +0.000 C 
ENDROOT
BRANCH   1   2
ATOM      2  C   LIG    1       25.915 -24.886   6.812  0.00  0.00    -0.000 C 
BRANCH   2   3
ATOM      3  C   LIG    1       26.064 -26.402   6.646  0.00  0.00    +0.000 C 
BRANCH   3   4
ATOM      4  C   LIG    1       25.942 -26.897   5.201  0.00  0.00    +0.000 C 
BRANCH   4   5
ATOM      5  C   LIG    1       24.774 -27.881   5.101  0.00  0.00    +0.011 C 
BRANCH   5   6
ATOM      6  C   LIG    1       25.170 -29.324   5.399  0.00  0.00    +0.120 C 
BRANCH   6   7
ATOM      7  C   LIG    1       24.211 -29.943   6.395  0.00  0.00    +0.307 C 
ATOM      8  O   LIG    1       23.361 -30.778   6.128  0.00  0.00    -0.251 OA
BRANCH   7   9
ATOM      9  O   LIG    1       24.440 -29.426   7.636  0.00  0.00    -0.465 OA
BRANCH   9  11
ATOM     10  C   LIG    1       26.072 -28.990   9.380  0.00  0.00    +0.048 C 
ATOM     11  C   LIG    1       25.602 -29.947   8.299  0.00  0.00    +0.228 C 
ENDBRANCH   9  11
ENDBRANCH   7   9
ENDBRANCH   6   7
ENDBRANCH   5   6
ENDBRANCH   4   5
ENDBRANCH   3   4
ENDBRANCH   2   3
ENDBRANCH   1   2
BRANCH   1  12
ATOM     12  C   LIG    1       23.420 -24.320   6.620  0.00  0.00    +0.001 C 
BRANCH  12  13
ATOM     13  C   LIG    1       22.868 -22.882   6.600  0.00  0.00    +0.008 C 
BRANCH  13  14
ATOM     14  C   LIG    1       23.921 -21.801   6.957  0.00  0.00    +0.017 C 
ATOM     15  C   LIG    1       23.372 -20.876   8.054  0.00  0.00    +0.012 C 
BRANCH  14  16
ATOM     16  C   LIG    1       24.400 -20.943   5.790  0.00  0.00    -0.031 A 
ATOM     17  C   LIG    1       25.729 -20.487   5.664  0.00  0.00    +0.017 A 
ATOM     18  I   LIG    1       27.245 -20.878   7.076  0.00  0.00    -0.043 I 
ATOM     19  C   LIG    1       26.115 -19.700   4.568  0.00  0.00    +0.014 A 
ATOM     20  C   LIG    1       25.188 -19.341   3.593  0.00  0.00    +0.001 A 
ATOM     21  C   LIG    1       23.868 -19.753   3.713  0.00  0.00    +0.000 A 
ATOM     22  C   LIG    1       23.479 -20.533   4.802  0.00  0.00    +0.005 A 
ENDBRANCH  14  16
ENDBRANCH  13  14
ENDBRANCH  12  13
ENDBRANCH   1  12
TORSDOF 12
ENDMDL
MODEL 5
REMARK VINA RESULT:      -6.9      3.644      6.667
REMARK  Name = *****
REMARK                            x       y       z     vdW  Elec       q    Type
REMARK                         _______ _______ _______ _____ _____    ______ ____
ROOT
ATOM      1  C   LIG    1       24.859 -23.968   6.325  0.00  0.00    +0.000 C 
ENDROOT
BRANCH   1   2
ATOM      2  C   LIG    1       23.420 -24.076   6.851  0.00  0.00    -0.000 C 
BRANCH   2   3
ATOM      3  C   LIG    1       22.684 -22.757   6.593  0.00  0.00    +0.000 C 
BRANCH   3   4
ATOM      4  C   LIG    1       23.213 -21.567   7.400  0.00  0.00    +0.000 C 
BRANCH   4   5
ATOM      5  C   LIG    1       23.302 -20.340   6.489  0.00  0.00    +0.011 C 
BRANCH   5   6
ATOM      6  C   LIG    1       22.610 -20.533   5.142  0.00  0.00    +0.120 C 
BRANCH   6   7
ATOM      7  C   LIG    1       23.626 -20.532   4.019  0.00  0.00    +0.307 C 
ATOM      8  O   LIG    1       24.038 -21.527   3.443  0.00  0.00    -0.251 OA
BRANCH   7   9
ATOM      9  O   LIG    1       24.013 -19.252   3.749  0.00  0.00    -0.465 OA
BRANCH   9  11
ATOM     10  C   LIG    1       25.780 -17.626   3.392  0.00  0.00    +0.048 C 
ATOM     11  C   LIG    1       25.411 -19.097   3.461  0.00  0.00    +0.228 C 
ENDBRANCH   9  11
ENDBRANCH   7   9
ENDBRANCH   6   7
ENDBRANCH   5   6
ENDBRANCH   4   5
ENDBRANCH   3   4
ENDBRANCH   2   3
ENDBRANCH   1   2
BRANCH   1  12
ATOM     12  C   LIG    1       25.860 -23.477   7.373  0.00  0.00    +0.001 C 
BRANCH  12  13
ATOM     13  C   LIG    1       26.886 -22.523   6.734  0.00  0.00    +0.008 C 
BRANCH  13  14
ATOM     14  C   LIG    1       27.574 -21.572   7.747  0.00  0.00    +0.017 C 
ATOM     15  C   LIG    1       26.513 -20.815   8.561  0.00  0.00    +0.012 C 
BRANCH  14  16
ATOM     16  C   LIG    1       28.539 -20.557   7.140  0.00  0.00    -0.031 A 
ATOM     17  C   LIG    1       29.882 -20.429   7.554  0.00  0.00    +0.017 A 
ATOM     18  I   LIG    1       30.754 -21.580   9.091  0.00  0.00    -0.043 I 
ATOM     19  C   LIG    1       30.727 -19.479   6.961  0.00  0.00    +0.014 A 
ATOM     20  C   LIG    1       30.248 -18.631   5.964  0.00  0.00    +0.001 A 
ATOM     21  C   LIG    1       28.923 -18.719   5.564  0.00  0.00    +0.000 A 
ATOM     22  C   LIG    1       28.079 -19.661   6.153  0.00  0.00    +0.005 A 
ENDBRANCH  14  16
ENDBRANCH  13  14
ENDBRANCH  12  13
ENDBRANCH   1  12
TORSDOF 12
ENDMDL
MODEL 6
REMARK VINA RESULT:      -6.9      5.571      8.452
REMARK  Name = *****
REMARK                            x       y       z     vdW  Elec       q    Type
REMARK                         _______ _______ _______ _____ _____    ______ ____
ROOT
ATOM      1  C   LIG    1       24.549 -24.211   5.911  0.00  0.00    +0.000 C 
ENDROOT
BRANCH   1   2
ATOM      2  C   LIG    1       25.857 -24.576   6.628  0.00  0.00    -0.000 C 
BRANCH   2   3
ATOM      3  C   LIG    1       26.153 -26.065   6.417  0.00  0.00    +0.000 C 
BRANCH   3   4
ATOM      4  C   LIG    1       25.773 -26.598   5.032  0.00  0.00    +0.000 C 
BRANCH   4   5
ATOM      5  C   LIG    1       25.113 -27.971   5.183  0.00  0.00    +0.011 C 
BRANCH   5   6
ATOM      6  C   LIG    1       24.400 -28.158   6.520  0.00  0.00    +0.120 C 
BRANCH   6   7
ATOM      7  C   LIG    1       24.442 -29.610   6.946  0.00  0.00    +0.307 C 
ATOM      8  O   LIG    1       23.665 -30.137   7.726  0.00  0.00    -0.251 OA
BRANCH   7   9
ATOM      9  O   LIG    1       25.481 -30.242   6.328  0.00  0.00    -0.465 OA
BRANCH   9  11
ATOM     10  C   LIG    1       25.782 -31.840   4.526  0.00  0.00    +0.048 C 
ATOM     11  C   LIG    1       25.201 -31.585   5.905  0.00  0.00    +0.228 C 
ENDBRANCH   9  11
ENDBRANCH   7   9
ENDBRANCH   6   7
ENDBRANCH   5   6
ENDBRANCH   4   5
ENDBRANCH   3   4
ENDBRANCH   2   3
ENDBRANCH   1   2
BRANCH   1  12
ATOM     12  C   LIG    1       23.512 -23.554   6.825  0.00  0.00    +0.001 C 
BRANCH  12  13
ATOM     13  C   LIG    1       22.852 -22.355   6.119  0.00  0.00    +0.008 C 
BRANCH  13  14
ATOM     14  C   LIG    1       23.268 -20.979   6.699  0.00  0.00    +0.017 C 
ATOM     15  C   LIG    1       22.671 -19.848   5.847  0.00  0.00    +0.012 C 
BRANCH  14  16
ATOM     16  C   LIG    1       24.771 -20.751   6.829  0.00  0.00    -0.031 A 
ATOM     17  C   LIG    1       25.596 -20.409   5.736  0.00  0.00    +0.017 A 
ATOM     18  I   LIG    1       24.898 -20.201   3.757  0.00  0.00    -0.043 I 
ATOM     19  C   LIG    1       26.974 -20.211   5.912  0.00  0.00    +0.014 A 
ATOM     20  C   LIG    1       27.555 -20.365   7.168  0.00  0.00    +0.001 A 
ATOM     21  C   LIG    1       26.768 -20.730   8.251  0.00  0.00    +0.000 A 
ATOM     22  C   LIG    1       25.399 -20.931   8.080  0.00  0.00    +0.005 A 
ENDBRANCH  14  16
ENDBRANCH  13  14
ENDBRANCH  12  13
ENDBRANCH   1  12
TORSDOF 12
ENDMDL
MODEL 7
REMARK VINA RESULT:      -6.9      5.383      8.157
REMARK  Name = *****
REMARK                            x       y       z     vdW  Elec       q    Type
REMARK                         _______ _______ _______ _____ _____    ______ ____
ROOT
ATOM      1  C   LIG    1       23.624 -24.545   6.510  0.00  0.00    +0.000 C 
ENDROOT
BRANCH   1   2
ATOM      2  C   LIG    1       25.106 -24.304   6.832  0.00  0.00    -0.000 C 
BRANCH   2   3
ATOM      3  C   LIG    1       25.936 -25.487   6.323  0.00  0.00    +0.000 C 
BRANCH   3   4
ATOM      4  C   LIG    1       25.504 -26.024   4.955  0.00  0.00    +0.000 C 
BRANCH   4   5
ATOM      5  C   LIG    1       25.639 -27.548   4.945  0.00  0.00    +0.011 C 
BRANCH   5   6
ATOM      6  C   LIG    1       25.065 -28.216   6.191  0.00  0.00    +0.120 C 
BRANCH   6   7
ATOM      7  C   LIG    1       24.867 -29.699   5.955  0.00  0.00    +0.307 C 
ATOM      8  O   LIG    1       25.426 -30.355   5.091  0.00  0.00    -0.251 OA
BRANCH   7   9
ATOM      9  O   LIG    1       23.966 -30.191   6.853  0.00  0.00    -0.465 OA
BRANCH   9  11
ATOM     10  C   LIG    1       24.902 -30.786   9.012  0.00  0.00    +0.048 C 
ATOM     11  C   LIG    1       24.156 -29.740   8.203  0.00  0.00    +0.228 C 
ENDBRANCH   9  11
ENDBRANCH   7   9
ENDBRANCH   6   7
ENDBRANCH   5   6
ENDBRANCH   4   5
ENDBRANCH   3   4
ENDBRANCH   2   3
ENDBRANCH   1   2
BRANCH   1  12
ATOM     12  C   LIG    1       22.709 -23.393   6.930  0.00  0.00    +0.001 C 
BRANCH  12  13
ATOM     13  C   LIG    1       22.823 -22.223   5.936  0.00  0.00    +0.008 C 
BRANCH  13  14
ATOM     14  C   LIG    1       23.257 -20.885   6.588  0.00  0.00    +0.017 C 
ATOM     15  C   LIG    1       22.671 -19.702   5.803  0.00  0.00    +0.012 C 
BRANCH  14  16
ATOM     16  C   LIG    1       24.764 -20.682   6.724  0.00  0.00    -0.031 A 
ATOM     17  C   LIG    1       25.599 -20.359   5.633  0.00  0.00    +0.017 A 
ATOM     18  I   LIG    1       24.913 -20.147   3.650  0.00  0.00    -0.043 I 
ATOM     19  C   LIG    1       26.979 -20.183   5.814  0.00  0.00    +0.014 A 
ATOM     20  C   LIG    1       27.552 -20.341   7.074  0.00  0.00    +0.001 A 
ATOM     21  C   LIG    1       26.755 -20.689   8.155  0.00  0.00    +0.000 A 
ATOM     22  C   LIG    1       25.383 -20.867   7.978  0.00  0.00    +0.005 A 
ENDBRANCH  14  16
ENDBRANCH  13  14
ENDBRANCH  12  13
ENDBRANCH   1  12
TORSDOF 12
ENDMDL
MODEL 8
REMARK VINA RESULT:      -6.8      6.087      9.106
REMARK  Name = *****
REMARK                            x       y       z     vdW  Elec       q    Type
REMARK                         _______ _______ _______ _____ _____    ______ ____
ROOT
ATOM      1  C   LIG    1       24.021 -25.559   5.809  0.00  0.00    +0.000 C 
ENDROOT
BRANCH   1   2
ATOM      2  C   LIG    1       25.514 -25.619   5.455  0.00  0.00    -0.000 C 
BRANCH   2   3
ATOM      3  C   LIG    1       26.075 -26.989   5.847  0.00  0.00    +0.000 C 
BRANCH   3   4
ATOM      4  C   LIG    1       26.025 -27.290   7.348  0.00  0.00    +0.000 C 
BRANCH   4   5
ATOM      5  C   LIG    1       25.367 -28.654   7.568  0.00  0.00    +0.011 C 
BRANCH   5   6
ATOM      6  C   LIG    1       24.520 -29.117   6.385  0.00  0.00    +0.120 C 
BRANCH   6   7
ATOM      7  C   LIG    1       24.339 -30.620   6.417  0.00  0.00    +0.307 C 
ATOM      8  O   LIG    1       23.346 -31.217   6.033  0.00  0.00    -0.251 OA
BRANCH   7   9
ATOM      9  O   LIG    1       25.453 -31.207   6.941  0.00  0.00    -0.465 OA
BRANCH   9  11
ATOM     10  C   LIG    1       27.308 -32.697   6.459  0.00  0.00    +0.048 C 
ATOM     11  C   LIG    1       25.814 -32.457   6.334  0.00  0.00    +0.228 C 
ENDBRANCH   9  11
ENDBRANCH   7   9
ENDBRANCH   6   7
ENDBRANCH   5   6
ENDBRANCH   4   5
ENDBRANCH   3   4
ENDBRANCH   2   3
ENDBRANCH   1   2
BRANCH   1  12
ATOM     12  C   LIG    1       23.637 -24.335   6.642  0.00  0.00    +0.001 C 
BRANCH  12  13
ATOM     13  C   LIG    1       24.879 -23.476   6.945  0.00  0.00    +0.008 C 
BRANCH  13  14
ATOM     14  C   LIG    1       24.567 -21.972   7.154  0.00  0.00    +0.017 C 
ATOM     15  C   LIG    1       23.109 -21.796   7.608  0.00  0.00    +0.012 C 
BRANCH  14  16
ATOM     16  C   LIG    1       24.811 -21.079   5.941  0.00  0.00    -0.031 A 
ATOM     17  C   LIG    1       26.049 -20.452   5.683  0.00  0.00    +0.017 A 
ATOM     18  I   LIG    1       27.733 -20.613   6.941  0.00  0.00    -0.043 I 
ATOM     19  C   LIG    1       26.218 -19.640   4.551  0.00  0.00    +0.014 A 
ATOM     20  C   LIG    1       25.161 -19.425   3.670  0.00  0.00    +0.001 A 
ATOM     21  C   LIG    1       23.926 -20.006   3.921  0.00  0.00    +0.000 A 
ATOM     22  C   LIG    1       23.753 -20.812   5.046  0.00  0.00    +0.005 A 
ENDBRANCH  14  16
ENDBRANCH  13  14
ENDBRANCH  12  13
ENDBRANCH   1  12
TORSDOF 12
ENDMDL
MODEL 9
REMARK VINA RESULT:      -6.8      1.506      3.387
REMARK  Name = *****
REMARK                            x       y       z     vdW  Elec       q    Type
REMARK                         _______ _______ _______ _____ _____    ______ ____
ROOT
ATOM      1  C   LIG    1       26.253 -20.858   8.675  0.00  0.00    +0.000 C 
ENDROOT
BRANCH   1   2
ATOM      2  C   LIG    1       27.194 -21.891   8.038  0.00  0.00    -0.000 C 
BRANCH   2   3
ATOM      3  C   LIG    1       28.373 -21.167   7.381  0.00  0.00    +0.000 C 
BRANCH   3   4
ATOM      4  C   LIG    1       28.621 -19.750   7.907  0.00  0.00    +0.000 C 
BRANCH   4   5
ATOM      5  C   LIG    1       29.509 -18.992   6.918  0.00  0.00    +0.011 C 
BRANCH   5   6
ATOM      6  C   LIG    1       30.962 -19.458   6.926  0.00  0.00    +0.120 C 
BRANCH   6   7
ATOM      7  C   LIG    1       31.660 -19.000   8.189  0.00  0.00    +0.307 C 
ATOM      8  O   LIG    1       32.027 -19.731   9.096  0.00  0.00    -0.251 OA
BRANCH   7   9
ATOM      9  O   LIG    1       31.816 -17.645   8.163  0.00  0.00    -0.465 OA
BRANCH   9  11
ATOM     10  C   LIG    1       30.509 -16.805  10.029  0.00  0.00    +0.048 C 
ATOM     11  C   LIG    1       31.898 -17.026   9.456  0.00  0.00    +0.228 C 
ENDBRANCH   9  11
ENDBRANCH   7   9
ENDBRANCH   6   7
ENDBRANCH   5   6
ENDBRANCH   4   5
ENDBRANCH   3   4
ENDBRANCH   2   3
ENDBRANCH   1   2
BRANCH   1  12
ATOM     12  C   LIG    1       24.970 -20.622   7.875  0.00  0.00    +0.001 C 
BRANCH  12  13
ATOM     13  C   LIG    1       24.327 -21.965   7.479  0.00  0.00    +0.008 C 
BRANCH  13  14
ATOM     14  C   LIG    1       24.158 -22.151   5.949  0.00  0.00    +0.017 C 
ATOM     15  C   LIG    1       25.002 -23.342   5.468  0.00  0.00    +0.012 C 
BRANCH  14  16
ATOM     16  C   LIG    1       24.505 -20.932   5.099  0.00  0.00    -0.031 A 
ATOM     17  C   LIG    1       23.533 -20.160   4.427  0.00  0.00    +0.017 A 
ATOM     18  I   LIG    1       21.468 -20.586   4.454  0.00  0.00    -0.043 I 
ATOM     19  C   LIG    1       23.908 -19.048   3.658  0.00  0.00    +0.014 A 
ATOM     20  C   LIG    1       25.250 -18.696   3.531  0.00  0.00    +0.001 A 
ATOM     21  C   LIG    1       26.224 -19.459   4.158  0.00  0.00    +0.000 A 
ATOM     22  C   LIG    1       25.856 -20.567   4.921  0.00  0.00    +0.005 A 
ENDBRANCH  14  16
ENDBRANCH  13  14
ENDBRANCH  12  13
ENDBRANCH   1  12
TORSDOF 12
ENDMDL
