MODEL 1
REMARK VINA RESULT:      -8.7      0.000      0.000
REMARK  Name = *****
REMARK                            x       y       z     vdW  Elec       q    Type
REMARK                         _______ _______ _______ _____ _____    ______ ____
ROOT
ATOM      1  C   LIG    1       30.743 -20.285   8.023  0.00  0.00    +0.131 A 
ATOM      2  N   LIG    1       29.690 -21.036   8.412  0.00  0.00    -0.252 NA
ATOM      3  C   LIG    1       28.564 -20.909   7.683  0.00  0.00    +0.089 A 
ATOM      4  C   LIG    1       28.508 -20.043   6.548  0.00  0.00    +0.089 A 
ATOM      5  C   LIG    1       27.326 -19.925   5.821  0.00  0.00    +0.034 A 
ATOM      6  C   LIG    1       26.208 -20.624   6.238  0.00  0.00    -0.037 A 
ATOM      7  C   LIG    1       24.796 -20.613   5.697  0.00  0.00    +0.034 C 
ATOM      8  C   LIG    1       24.549 -21.834   4.774  0.00  0.00    +0.089 C 
ATOM      9  N   LIG    1       23.995 -23.007   5.473  0.00  0.00    -0.315 NA
ATOM     10  H   LIG    1       24.024 -23.831   4.876  0.00  0.00    +0.122 HD
ATOM     11  C   LIG    1       24.638 -23.280   6.770  0.00  0.00    +0.089 C 
ATOM     12  C   LIG    1       24.879 -22.011   7.621  0.00  0.00    +0.034 C 
ATOM     13  C   LIG    1       24.060 -20.834   7.039  0.00  0.00    +0.019 C 
ATOM     14  C   LIG    1       26.258 -21.453   7.358  0.00  0.00    -0.037 A 
ATOM     15  N   LIG    1       29.576 -19.311   6.174  0.00  0.00    -0.252 NA
ATOM     16  C   LIG    1       27.432 -21.620   8.069  0.00  0.00    +0.034 A 
ATOM     17  C   LIG    1       30.685 -19.440   6.935  0.00  0.00    +0.131 A 
ENDROOT
TORSDOF 0
ENDMDL
MODEL 2
REMARK VINA RESULT:      -8.0      0.859      2.364
REMARK  Name = *****
REMARK                            x       y       z     vdW  Elec       q    Type
REMARK                         _______ _______ _______ _____ _____    ______ ____
ROOT
ATOM      1  C   LIG    1       30.466 -19.247   6.922  0.00  0.00    +0.131 A 
ATOM      2  N   LIG    1       29.379 -19.134   6.128  0.00  0.00    -0.252 NA
ATOM      3  C   LIG    1       28.355 -19.968   6.397  0.00  0.00    +0.089 A 
ATOM      4  C   LIG    1       28.419 -20.898   7.479  0.00  0.00    +0.089 A 
ATOM      5  C   LIG    1       27.348 -21.754   7.725  0.00  0.00    +0.034 A 
ATOM      6  C   LIG    1       26.251 -21.716   6.884  0.00  0.00    -0.037 A 
ATOM      7  C   LIG    1       25.009 -22.579   6.865  0.00  0.00    +0.034 C 
ATOM      8  C   LIG    1       23.825 -21.857   7.559  0.00  0.00    +0.089 C 
ATOM      9  N   LIG    1       22.982 -21.075   6.637  0.00  0.00    -0.315 NA
ATOM     10  H   LIG    1       22.338 -20.478   7.153  0.00  0.00    +0.122 HD
ATOM     11  C   LIG    1       23.749 -20.290   5.655  0.00  0.00    +0.089 C 
ATOM     12  C   LIG    1       24.932 -21.067   5.029  0.00  0.00    +0.034 C 
ATOM     13  C   LIG    1       24.780 -22.576   5.336  0.00  0.00    +0.019 C 
ATOM     14  C   LIG    1       26.199 -20.823   5.815  0.00  0.00    -0.037 A 
ATOM     15  N   LIG    1       29.512 -20.984   8.263  0.00  0.00    -0.252 NA
ATOM     16  C   LIG    1       27.230 -19.932   5.578  0.00  0.00    +0.034 A 
ATOM     17  C   LIG    1       30.533 -20.152   7.959  0.00  0.00    +0.131 A 
ENDROOT
TORSDOF 0
ENDMDL
MODEL 3
REMARK VINA RESULT:      -7.9      3.430      5.353
REMARK  Name = *****
REMARK                            x       y       z     vdW  Elec       q    Type
REMARK                         _______ _______ _______ _____ _____    ______ ____
ROOT
ATOM      1  C   LIG    1       24.813 -27.615   6.099  0.00  0.00    +0.131 A 
ATOM      2  N   LIG    1       23.871 -26.658   6.247  0.00  0.00    -0.252 NA
ATOM      3  C   LIG    1       24.316 -25.388   6.318  0.00  0.00    +0.089 A 
ATOM      4  C   LIG    1       25.708 -25.082   6.217  0.00  0.00    +0.089 A 
ATOM      5  C   LIG    1       26.137 -23.760   6.305  0.00  0.00    +0.034 A 
ATOM      6  C   LIG    1       25.205 -22.764   6.530  0.00  0.00    -0.037 A 
ATOM      7  C   LIG    1       25.399 -21.281   6.754  0.00  0.00    +0.034 C 
ATOM      8  C   LIG    1       25.133 -20.487   5.449  0.00  0.00    +0.089 C 
ATOM      9  N   LIG    1       23.742 -20.021   5.309  0.00  0.00    -0.315 NA
ATOM     10  H   LIG    1       23.570 -19.672   4.368  0.00  0.00    +0.122 HD
ATOM     11  C   LIG    1       22.738 -21.032   5.683  0.00  0.00    +0.089 C 
ATOM     12  C   LIG    1       23.089 -21.803   6.978  0.00  0.00    +0.034 C 
ATOM     13  C   LIG    1       24.221 -21.063   7.730  0.00  0.00    +0.019 C 
ATOM     14  C   LIG    1       23.849 -23.066   6.651  0.00  0.00    -0.037 A 
ATOM     15  N   LIG    1       26.628 -26.055   6.060  0.00  0.00    -0.252 NA
ATOM     16  C   LIG    1       23.394 -24.366   6.522  0.00  0.00    +0.034 A 
ATOM     17  C   LIG    1       26.157 -27.320   6.013  0.00  0.00    +0.131 A 
ENDROOT
TORSDOF 0
ENDMDL
MODEL 4
REMARK VINA RESULT:      -7.7      1.635      5.223
REMARK  Name = *****
REMARK                            x       y       z     vdW  Elec       q    Type
REMARK                         _______ _______ _______ _____ _____    ______ ____
ROOT
ATOM      1  C   LIG    1       23.144 -21.182   7.174  0.00  0.00    +0.131 A 
ATOM      2  N   LIG    1       24.196 -21.010   8.003  0.00  0.00    -0.252 NA
ATOM      3  C   LIG    1       25.371 -20.702   7.419  0.00  0.00    +0.089 A 
ATOM      4  C   LIG    1       25.479 -20.547   6.003  0.00  0.00    +0.089 A 
ATOM      5  C   LIG    1       26.710 -20.240   5.429  0.00  0.00    +0.034 A 
ATOM      6  C   LIG    1       27.823 -20.130   6.243  0.00  0.00    -0.037 A 
ATOM      7  C   LIG    1       29.273 -19.897   5.883  0.00  0.00    +0.034 C 
ATOM      8  C   LIG    1       29.656 -18.407   6.073  0.00  0.00    +0.089 C 
ATOM      9  N   LIG    1       30.206 -18.099   7.405  0.00  0.00    -0.315 NA
ATOM     10  H   LIG    1       30.268 -17.092   7.547  0.00  0.00    +0.122 HD
ATOM     11  C   LIG    1       29.472 -18.737   8.511  0.00  0.00    +0.089 C 
ATOM     12  C   LIG    1       29.099 -20.213   8.235  0.00  0.00    +0.034 C 
ATOM     13  C   LIG    1       29.904 -20.733   7.020  0.00  0.00    +0.019 C 
ATOM     14  C   LIG    1       27.721 -20.304   7.623  0.00  0.00    -0.037 A 
ATOM     15  N   LIG    1       24.411 -20.715   5.199  0.00  0.00    -0.252 NA
ATOM     16  C   LIG    1       26.501 -20.565   8.220  0.00  0.00    +0.034 A 
ATOM     17  C   LIG    1       23.250 -21.043   5.807  0.00  0.00    +0.131 A 
ENDROOT
TORSDOF 0
ENDMDL
MODEL 5
REMARK VINA RESULT:      -7.4      3.459      5.683
REMARK  Name = *****
REMARK                            x       y       z     vdW  Elec       q    Type
REMARK                         _______ _______ _______ _____ _____    ______ ____
ROOT
ATOM      1  C   LIG    1       23.312 -21.076   7.235  0.00  0.00    +0.131 A 
ATOM      2  N   LIG    1       22.890 -22.288   6.814  0.00  0.00    -0.252 NA
ATOM      3  C   LIG    1       23.832 -23.247   6.716  0.00  0.00    +0.089 A 
ATOM      4  C   LIG    1       25.193 -22.989   7.064  0.00  0.00    +0.089 A 
ATOM      5  C   LIG    1       26.146 -23.998   6.941  0.00  0.00    +0.034 A 
ATOM      6  C   LIG    1       25.760 -25.229   6.442  0.00  0.00    -0.037 A 
ATOM      7  C   LIG    1       26.589 -26.453   6.125  0.00  0.00    +0.034 C 
ATOM      8  C   LIG    1       26.496 -27.494   7.271  0.00  0.00    +0.089 C 
ATOM      9  N   LIG    1       25.425 -28.489   7.085  0.00  0.00    -0.315 NA
ATOM     10  H   LIG    1       25.281 -29.030   7.937  0.00  0.00    +0.122 HD
ATOM     11  C   LIG    1       24.155 -27.912   6.614  0.00  0.00    +0.089 C 
ATOM     12  C   LIG    1       24.331 -26.860   5.493  0.00  0.00    +0.034 C 
ATOM     13  C   LIG    1       25.765 -26.953   4.917  0.00  0.00    +0.019 C 
ATOM     14  C   LIG    1       24.435 -25.473   6.081  0.00  0.00    -0.037 A 
ATOM     15  N   LIG    1       25.587 -21.773   7.492  0.00  0.00    -0.252 NA
ATOM     16  C   LIG    1       23.464 -24.501   6.237  0.00  0.00    +0.034 A 
ATOM     17  C   LIG    1       24.627 -20.824   7.561  0.00  0.00    +0.131 A 
ENDROOT
TORSDOF 0
ENDMDL
MODEL 6
REMARK VINA RESULT:      -7.2      1.462      5.513
REMARK  Name = *****
REMARK                            x       y       z     vdW  Elec       q    Type
REMARK                         _______ _______ _______ _____ _____    ______ ____
ROOT
ATOM      1  C   LIG    1       24.621 -21.003   4.480  0.00  0.00    +0.131 A 
ATOM      2  N   LIG    1       25.712 -20.209   4.411  0.00  0.00    -0.252 NA
ATOM      3  C   LIG    1       26.565 -20.277   5.452  0.00  0.00    +0.089 A 
ATOM      4  C   LIG    1       26.329 -21.161   6.550  0.00  0.00    +0.089 A 
ATOM      5  C   LIG    1       27.224 -21.199   7.617  0.00  0.00    +0.034 A 
ATOM      6  C   LIG    1       28.312 -20.344   7.612  0.00  0.00    -0.037 A 
ATOM      7  C   LIG    1       29.374 -20.116   8.664  0.00  0.00    +0.034 C 
ATOM      8  C   LIG    1       30.669 -20.895   8.318  0.00  0.00    +0.089 C 
ATOM      9  N   LIG    1       31.643 -20.113   7.536  0.00  0.00    -0.315 NA
ATOM     10  H   LIG    1       32.384 -20.713   7.177  0.00  0.00    +0.122 HD
ATOM     11  C   LIG    1       31.035 -19.328   6.448  0.00  0.00    +0.089 C 
ATOM     12  C   LIG    1       29.731 -18.606   6.860  0.00  0.00    +0.034 C 
ATOM     13  C   LIG    1       29.602 -18.609   8.403  0.00  0.00    +0.019 C 
ATOM     14  C   LIG    1       28.529 -19.466   6.551  0.00  0.00    -0.037 A 
ATOM     15  N   LIG    1       25.237 -21.950   6.589  0.00  0.00    -0.252 NA
ATOM     16  C   LIG    1       27.678 -19.442   5.460  0.00  0.00    +0.034 A 
ATOM     17  C   LIG    1       24.388 -21.848   5.544  0.00  0.00    +0.131 A 
ENDROOT
TORSDOF 0
ENDMDL
MODEL 7
REMARK VINA RESULT:      -7.1      3.517      5.058
REMARK  Name = *****
REMARK                            x       y       z     vdW  Elec       q    Type
REMARK                         _______ _______ _______ _____ _____    ______ ____
ROOT
ATOM      1  C   LIG    1       26.055 -27.218   6.615  0.00  0.00    +0.131 A 
ATOM      2  N   LIG    1       26.007 -26.045   7.283  0.00  0.00    -0.252 NA
ATOM      3  C   LIG    1       25.584 -24.975   6.581  0.00  0.00    +0.089 A 
ATOM      4  C   LIG    1       25.189 -25.094   5.213  0.00  0.00    +0.089 A 
ATOM      5  C   LIG    1       24.767 -23.966   4.512  0.00  0.00    +0.034 A 
ATOM      6  C   LIG    1       24.776 -22.737   5.146  0.00  0.00    -0.037 A 
ATOM      7  C   LIG    1       24.460 -21.361   4.605  0.00  0.00    +0.034 C 
ATOM      8  C   LIG    1       23.017 -20.939   4.983  0.00  0.00    +0.089 C 
ATOM      9  N   LIG    1       22.929 -20.181   6.243  0.00  0.00    -0.315 NA
ATOM     10  H   LIG    1       21.960 -20.087   6.542  0.00  0.00    +0.122 HD
ATOM     11  C   LIG    1       23.758 -20.735   7.326  0.00  0.00    +0.089 C 
ATOM     12  C   LIG    1       25.172 -21.161   6.867  0.00  0.00    +0.034 C 
ATOM     13  C   LIG    1       25.464 -20.564   5.469  0.00  0.00    +0.019 C 
ATOM     14  C   LIG    1       25.183 -22.620   6.474  0.00  0.00    -0.037 A 
ATOM     15  N   LIG    1       25.237 -26.278   4.572  0.00  0.00    -0.252 NA
ATOM     16  C   LIG    1       25.563 -23.732   7.205  0.00  0.00    +0.034 A 
ATOM     17  C   LIG    1       25.685 -27.330   5.292  0.00  0.00    +0.131 A 
ENDROOT
TORSDOF 0
ENDMDL
MODEL 8
REMARK VINA RESULT:      -6.9      3.381      5.633
REMARK  Name = *****
REMARK                            x       y       z     vdW  Elec       q    Type
REMARK                         _______ _______ _______ _____ _____    ______ ____
ROOT
ATOM      1  C   LIG    1       24.674 -20.737   6.837  0.00  0.00    +0.131 A 
ATOM      2  N   LIG    1       25.640 -21.671   6.693  0.00  0.00    -0.252 NA
ATOM      3  C   LIG    1       25.224 -22.949   6.601  0.00  0.00    +0.089 A 
ATOM      4  C   LIG    1       23.835 -23.283   6.632  0.00  0.00    +0.089 A 
ATOM      5  C   LIG    1       23.439 -24.616   6.547  0.00  0.00    +0.034 A 
ATOM      6  C   LIG    1       24.406 -25.602   6.473  0.00  0.00    -0.037 A 
ATOM      7  C   LIG    1       24.261 -27.107   6.461  0.00  0.00    +0.034 C 
ATOM      8  C   LIG    1       24.359 -27.659   5.016  0.00  0.00    +0.089 C 
ATOM      9  N   LIG    1       25.724 -28.046   4.617  0.00  0.00    -0.315 NA
ATOM     10  H   LIG    1       25.773 -28.224   3.616  0.00  0.00    +0.122 HD
ATOM     11  C   LIG    1       26.757 -27.077   5.025  0.00  0.00    +0.089 C 
ATOM     12  C   LIG    1       26.574 -26.549   6.468  0.00  0.00    +0.034 C 
ATOM     13  C   LIG    1       25.563 -27.445   7.223  0.00  0.00    +0.019 C 
ATOM     14  C   LIG    1       25.761 -25.276   6.466  0.00  0.00    -0.037 A 
ATOM     15  N   LIG    1       22.891 -22.331   6.766  0.00  0.00    -0.252 NA
ATOM     16  C   LIG    1       26.178 -23.958   6.505  0.00  0.00    +0.034 A 
ATOM     17  C   LIG    1       23.335 -21.060   6.878  0.00  0.00    +0.131 A 
ENDROOT
TORSDOF 0
ENDMDL
MODEL 9
REMARK VINA RESULT:      -6.2      3.886      5.147
REMARK  Name = *****
REMARK                            x       y       z     vdW  Elec       q    Type
REMARK                         _______ _______ _______ _____ _____    ______ ____
ROOT
ATOM      1  C   LIG    1       23.626 -18.034   3.564  0.00  0.00    +0.131 A 
ATOM      2  N   LIG    1       24.471 -19.087   3.579  0.00  0.00    -0.252 NA
ATOM      3  C   LIG    1       24.190 -20.066   4.461  0.00  0.00    +0.089 A 
ATOM      4  C   LIG    1       23.043 -19.993   5.311  0.00  0.00    +0.089 A 
ATOM      5  C   LIG    1       22.786 -21.016   6.221  0.00  0.00    +0.034 A 
ATOM      6  C   LIG    1       23.673 -22.073   6.312  0.00  0.00    -0.037 A 
ATOM      7  C   LIG    1       23.686 -23.253   7.258  0.00  0.00    +0.034 C 
ATOM      8  C   LIG    1       23.095 -24.514   6.574  0.00  0.00    +0.089 C 
ATOM      9  N   LIG    1       24.104 -25.361   5.915  0.00  0.00    -0.315 NA
ATOM     10  H   LIG    1       23.659 -26.066   5.330  0.00  0.00    +0.122 HD
ATOM     11  C   LIG    1       25.105 -24.601   5.145  0.00  0.00    +0.089 C 
ATOM     12  C   LIG    1       25.623 -23.342   5.879  0.00  0.00    +0.034 C 
ATOM     13  C   LIG    1       25.220 -23.410   7.372  0.00  0.00    +0.019 C 
ATOM     14  C   LIG    1       24.803 -22.132   5.498  0.00  0.00    -0.037 A 
ATOM     15  N   LIG    1       22.209 -18.935   5.270  0.00  0.00    -0.252 NA
ATOM     16  C   LIG    1       25.056 -21.151   4.556  0.00  0.00    +0.034 A 
ATOM     17  C   LIG    1       22.526 -17.958   4.392  0.00  0.00    +0.131 A 
ENDROOT
TORSDOF 0
ENDMDL
