MODEL 1
REMARK VINA RESULT:      -3.2      0.000      0.000
REMARK  Name = *****
REMARK                            x       y       z     vdW  Elec       q    Type
REMARK                         _______ _______ _______ _____ _____    ______ ____
ROOT
ATOM      1  C   LIG    1       26.223 -17.773   3.691  0.00  0.00    +0.179 C 
ENDROOT
BRANCH   1   2
ATOM      2  C   LIG    1       27.312 -18.426   4.553  0.00  0.00    -0.015 A 
ATOM      3  C   LIG    1       27.151 -19.679   5.173  0.00  0.00    +0.006 A 
ATOM      4  C   LIG    1       28.133 -20.182   6.037  0.00  0.00    +0.000 A 
ATOM      5  C   LIG    1       29.282 -19.441   6.308  0.00  0.00    +0.000 A 
ATOM      6  C   LIG    1       29.473 -18.214   5.684  0.00  0.00    +0.000 A 
ATOM      7  C   LIG    1       28.507 -17.724   4.804  0.00  0.00    +0.006 A 
ENDBRANCH   1   2
BRANCH   1   8
ATOM      8  C   LIG    1       26.385 -16.255   3.690  0.00  0.00    -0.015 A 
ATOM      9  C   LIG    1       27.645 -15.636   3.750  0.00  0.00    +0.006 A 
ATOM     10  C   LIG    1       27.751 -14.246   3.645  0.00  0.00    +0.000 A 
ATOM     11  C   LIG    1       26.619 -13.461   3.455  0.00  0.00    +0.000 A 
ATOM     12  C   LIG    1       25.360 -14.059   3.394  0.00  0.00    +0.000 A 
ATOM     13  C   LIG    1       25.250 -15.442   3.525  0.00  0.00    +0.006 A 
ENDBRANCH   1   8
BRANCH   1  14
ATOM     14  O   LIG    1       24.927 -18.210   4.111  0.00  0.00    -0.364 OA
BRANCH  14  19
ATOM     15  C   LIG    1       21.183 -21.572   5.141  0.00  0.00    +0.105 C 
ATOM     16  N   LIG    1       22.069 -20.775   4.286  0.00  0.00    -0.299 NA
ATOM     17  C   LIG    1       22.074 -19.350   4.676  0.00  0.00    +0.059 C 
ATOM     18  C   LIG    1       22.661 -18.587   3.465  0.00  0.00    +0.050 C 
ATOM     19  C   LIG    1       24.129 -18.963   3.179  0.00  0.00    +0.122 C 
ATOM     20  C   LIG    1       24.270 -20.501   3.258  0.00  0.00    +0.050 C 
ATOM     21  C   LIG    1       22.962 -19.318   5.931  0.00  0.00    +0.020 C 
ATOM     22  C   LIG    1       23.901 -20.518   5.774  0.00  0.00    +0.020 C 
ATOM     23  C   LIG    1       23.495 -21.138   4.437  0.00  0.00    +0.059 C 
ENDBRANCH  14  19
ENDBRANCH   1  14
TORSDOF 4
ENDMDL
MODEL 2
REMARK VINA RESULT:      -2.6      2.183      5.944
REMARK  Name = *****
REMARK                            x       y       z     vdW  Elec       q    Type
REMARK                         _______ _______ _______ _____ _____    ______ ____
ROOT
ATOM      1  C   LIG    1       26.080 -17.884   3.627  0.00  0.00    +0.179 C 
ENDROOT
BRANCH   1   2
ATOM      2  C   LIG    1       24.855 -18.803   3.733  0.00  0.00    -0.015 A 
ATOM      3  C   LIG    1       24.893 -20.172   3.407  0.00  0.00    +0.006 A 
ATOM      4  C   LIG    1       23.722 -20.942   3.417  0.00  0.00    +0.000 A 
ATOM      5  C   LIG    1       22.497 -20.361   3.736  0.00  0.00    +0.000 A 
ATOM      6  C   LIG    1       22.443 -19.017   4.088  0.00  0.00    +0.000 A 
ATOM      7  C   LIG    1       23.612 -18.255   4.103  0.00  0.00    +0.006 A 
ENDBRANCH   1   2
BRANCH   1   8
ATOM      8  C   LIG    1       27.191 -18.369   4.556  0.00  0.00    -0.015 A 
ATOM      9  C   LIG    1       27.099 -19.579   5.265  0.00  0.00    +0.006 A 
ATOM     10  C   LIG    1       28.181 -20.032   6.025  0.00  0.00    +0.000 A 
ATOM     11  C   LIG    1       29.368 -19.307   6.071  0.00  0.00    +0.000 A 
ATOM     12  C   LIG    1       29.475 -18.103   5.374  0.00  0.00    +0.000 A 
ATOM     13  C   LIG    1       28.388 -17.638   4.637  0.00  0.00    +0.006 A 
ENDBRANCH   1   8
BRANCH   1  14
ATOM     14  O   LIG    1       25.702 -16.522   3.850  0.00  0.00    -0.364 OA
BRANCH  14  19
ATOM     15  C   LIG    1       24.809 -11.469   3.637  0.00  0.00    +0.105 C 
ATOM     16  N   LIG    1       25.590 -12.699   3.466  0.00  0.00    -0.299 NA
ATOM     17  C   LIG    1       25.602 -13.517   4.696  0.00  0.00    +0.059 C 
ATOM     18  C   LIG    1       26.781 -14.505   4.529  0.00  0.00    +0.050 C 
ATOM     19  C   LIG    1       26.573 -15.486   3.358  0.00  0.00    +0.122 C 
ATOM     20  C   LIG    1       26.057 -14.694   2.135  0.00  0.00    +0.050 C 
ATOM     21  C   LIG    1       24.218 -14.184   4.706  0.00  0.00    +0.020 C 
ATOM     22  C   LIG    1       23.806 -14.248   3.231  0.00  0.00    +0.020 C 
ATOM     23  C   LIG    1       24.990 -13.630   2.486  0.00  0.00    +0.059 C 
ENDBRANCH  14  19
ENDBRANCH   1  14
TORSDOF 4
ENDMDL
MODEL 3
REMARK VINA RESULT:      -2.3      2.109      5.940
REMARK  Name = *****
REMARK                            x       y       z     vdW  Elec       q    Type
REMARK                         _______ _______ _______ _____ _____    ______ ____
ROOT
ATOM      1  C   LIG    1       25.794 -17.830   3.248  0.00  0.00    +0.179 C 
ENDROOT
BRANCH   1   2
ATOM      2  C   LIG    1       24.479 -18.508   3.654  0.00  0.00    -0.015 A 
ATOM      3  C   LIG    1       23.324 -17.789   4.015  0.00  0.00    +0.006 A 
ATOM      4  C   LIG    1       22.182 -18.454   4.482  0.00  0.00    +0.000 A 
ATOM      5  C   LIG    1       22.177 -19.841   4.611  0.00  0.00    +0.000 A 
ATOM      6  C   LIG    1       23.298 -20.573   4.233  0.00  0.00    +0.000 A 
ATOM      7  C   LIG    1       24.426 -19.912   3.745  0.00  0.00    +0.006 A 
ENDBRANCH   1   2
BRANCH   1   8
ATOM      8  C   LIG    1       26.914 -18.221   4.209  0.00  0.00    -0.015 A 
ATOM      9  C   LIG    1       26.892 -19.424   4.936  0.00  0.00    +0.006 A 
ATOM     10  C   LIG    1       27.984 -19.788   5.727  0.00  0.00    +0.000 A 
ATOM     11  C   LIG    1       29.115 -18.980   5.789  0.00  0.00    +0.000 A 
ATOM     12  C   LIG    1       29.153 -17.782   5.075  0.00  0.00    +0.000 A 
ATOM     13  C   LIG    1       28.054 -17.406   4.306  0.00  0.00    +0.006 A 
ENDBRANCH   1   8
BRANCH   1  14
ATOM     14  O   LIG    1       25.610 -16.416   3.130  0.00  0.00    -0.364 OA
BRANCH  14  19
ATOM     15  C   LIG    1       24.386 -11.447   3.563  0.00  0.00    +0.105 C 
ATOM     16  N   LIG    1       24.687 -12.799   4.046  0.00  0.00    -0.299 NA
ATOM     17  C   LIG    1       23.882 -13.823   3.350  0.00  0.00    +0.059 C 
ATOM     18  C   LIG    1       23.962 -15.090   4.235  0.00  0.00    +0.050 C 
ATOM     19  C   LIG    1       25.393 -15.657   4.334  0.00  0.00    +0.122 C 
ATOM     20  C   LIG    1       26.373 -14.486   4.580  0.00  0.00    +0.050 C 
ATOM     21  C   LIG    1       24.572 -13.965   1.984  0.00  0.00    +0.020 C 
ATOM     22  C   LIG    1       26.027 -13.556   2.238  0.00  0.00    +0.020 C 
ATOM     23  C   LIG    1       26.067 -13.228   3.731  0.00  0.00    +0.059 C 
ENDBRANCH  14  19
ENDBRANCH   1  14
TORSDOF 4
ENDMDL
MODEL 4
REMARK VINA RESULT:      -2.3      2.204      5.886
REMARK  Name = *****
REMARK                            x       y       z     vdW  Elec       q    Type
REMARK                         _______ _______ _______ _____ _____    ______ ____
ROOT
ATOM      1  C   LIG    1       26.188 -17.635   3.655  0.00  0.00    +0.179 C 
ENDROOT
BRANCH   1   2
ATOM      2  C   LIG    1       24.931 -18.513   3.685  0.00  0.00    -0.015 A 
ATOM      3  C   LIG    1       23.666 -18.030   4.071  0.00  0.00    +0.006 A 
ATOM      4  C   LIG    1       22.572 -18.898   4.185  0.00  0.00    +0.000 A 
ATOM      5  C   LIG    1       22.722 -20.260   3.931  0.00  0.00    +0.000 A 
ATOM      6  C   LIG    1       23.956 -20.753   3.521  0.00  0.00    +0.000 A 
ATOM      7  C   LIG    1       25.040 -19.884   3.384  0.00  0.00    +0.006 A 
ENDBRANCH   1   2
BRANCH   1   8
ATOM      8  C   LIG    1       27.302 -18.272   4.482  0.00  0.00    -0.015 A 
ATOM      9  C   LIG    1       28.524 -17.620   4.722  0.00  0.00    +0.006 A 
ATOM     10  C   LIG    1       29.475 -18.197   5.568  0.00  0.00    +0.000 A 
ATOM     11  C   LIG    1       29.218 -19.409   6.200  0.00  0.00    +0.000 A 
ATOM     12  C   LIG    1       28.012 -20.071   5.972  0.00  0.00    +0.000 A 
ATOM     13  C   LIG    1       27.073 -19.509   5.109  0.00  0.00    +0.006 A 
ENDBRANCH   1   8
BRANCH   1  14
ATOM     14  O   LIG    1       25.872 -16.298   4.056  0.00  0.00    -0.364 OA
BRANCH  14  19
ATOM     15  C   LIG    1       24.248 -11.447   3.597  0.00  0.00    +0.105 C 
ATOM     16  N   LIG    1       25.163 -12.577   3.402  0.00  0.00    -0.299 NA
ATOM     17  C   LIG    1       25.469 -13.262   4.673  0.00  0.00    +0.059 C 
ATOM     18  C   LIG    1       26.740 -14.102   4.401  0.00  0.00    +0.050 C 
ATOM     19  C   LIG    1       26.507 -15.211   3.356  0.00  0.00    +0.122 C 
ATOM     20  C   LIG    1       25.713 -14.615   2.170  0.00  0.00    +0.050 C 
ATOM     21  C   LIG    1       24.210 -14.099   4.951  0.00  0.00    +0.020 C 
ATOM     22  C   LIG    1       23.603 -14.359   3.567  0.00  0.00    +0.020 C 
ATOM     23  C   LIG    1       24.567 -13.668   2.602  0.00  0.00    +0.059 C 
ENDBRANCH  14  19
ENDBRANCH   1  14
TORSDOF 4
ENDMDL
MODEL 5
REMARK VINA RESULT:      -2.0      2.114      6.075
REMARK  Name = *****
REMARK                            x       y       z     vdW  Elec       q    Type
REMARK                         _______ _______ _______ _____ _____    ______ ____
ROOT
ATOM      1  C   LIG    1       26.442 -18.165   3.862  0.00  0.00    +0.179 C 
ENDROOT
BRANCH   1   2
ATOM      2  C   LIG    1       25.090 -18.890   3.871  0.00  0.00    -0.015 A 
ATOM      3  C   LIG    1       23.888 -18.267   4.258  0.00  0.00    +0.006 A 
ATOM      4  C   LIG    1       22.699 -19.002   4.352  0.00  0.00    +0.000 A 
ATOM      5  C   LIG    1       22.689 -20.367   4.077  0.00  0.00    +0.000 A 
ATOM      6  C   LIG    1       23.859 -20.996   3.665  0.00  0.00    +0.000 A 
ATOM      7  C   LIG    1       25.038 -20.259   3.547  0.00  0.00    +0.006 A 
ENDBRANCH   1   2
BRANCH   1   8
ATOM      8  C   LIG    1       27.409 -18.831   4.839  0.00  0.00    -0.015 A 
ATOM      9  C   LIG    1       28.665 -18.279   5.143  0.00  0.00    +0.006 A 
ATOM     10  C   LIG    1       29.475 -18.869   6.117  0.00  0.00    +0.000 A 
ATOM     11  C   LIG    1       29.041 -19.992   6.815  0.00  0.00    +0.000 A 
ATOM     12  C   LIG    1       27.798 -20.553   6.525  0.00  0.00    +0.000 A 
ATOM     13  C   LIG    1       27.000 -19.982   5.535  0.00  0.00    +0.006 A 
ENDBRANCH   1   8
BRANCH   1  14
ATOM     14  O   LIG    1       26.260 -16.767   4.102  0.00  0.00    -0.364 OA
BRANCH  14  19
ATOM     15  C   LIG    1       26.268 -11.752   2.991  0.00  0.00    +0.105 C 
ATOM     16  N   LIG    1       25.794 -13.139   2.921  0.00  0.00    -0.299 NA
ATOM     17  C   LIG    1       26.894 -14.082   2.637  0.00  0.00    +0.059 C 
ATOM     18  C   LIG    1       26.214 -15.386   2.156  0.00  0.00    +0.050 C 
ATOM     19  C   LIG    1       25.351 -16.044   3.251  0.00  0.00    +0.122 C 
ATOM     20  C   LIG    1       24.507 -14.948   3.942  0.00  0.00    +0.050 C 
ATOM     21  C   LIG    1       27.623 -14.211   3.984  0.00  0.00    +0.020 C 
ATOM     22  C   LIG    1       26.551 -13.905   5.036  0.00  0.00    +0.020 C 
ATOM     23  C   LIG    1       25.288 -13.640   4.216  0.00  0.00    +0.059 C 
ENDBRANCH  14  19
ENDBRANCH   1  14
TORSDOF 4
ENDMDL
MODEL 6
REMARK VINA RESULT:      -1.3      0.807      1.875
REMARK  Name = *****
REMARK                            x       y       z     vdW  Elec       q    Type
REMARK                         _______ _______ _______ _____ _____    ______ ____
ROOT
ATOM      1  C   LIG    1       26.078 -17.534   3.373  0.00  0.00    +0.179 C 
ENDROOT
BRANCH   1   2
ATOM      2  C   LIG    1       27.223 -17.960   4.302  0.00  0.00    -0.015 A 
ATOM      3  C   LIG    1       28.360 -17.163   4.535  0.00  0.00    +0.006 A 
ATOM      4  C   LIG    1       29.426 -17.644   5.306  0.00  0.00    +0.000 A 
ATOM      5  C   LIG    1       29.385 -18.928   5.845  0.00  0.00    +0.000 A 
ATOM      6  C   LIG    1       28.259 -19.722   5.651  0.00  0.00    +0.000 A 
ATOM      7  C   LIG    1       27.186 -19.233   4.903  0.00  0.00    +0.006 A 
ENDBRANCH   1   2
BRANCH   1   8
ATOM      8  C   LIG    1       25.886 -16.020   3.425  0.00  0.00    -0.015 A 
ATOM      9  C   LIG    1       24.727 -15.430   3.958  0.00  0.00    +0.006 A 
ATOM     10  C   LIG    1       24.637 -14.041   4.077  0.00  0.00    +0.000 A 
ATOM     11  C   LIG    1       25.698 -13.226   3.694  0.00  0.00    +0.000 A 
ATOM     12  C   LIG    1       26.855 -13.795   3.162  0.00  0.00    +0.000 A 
ATOM     13  C   LIG    1       26.936 -15.179   3.019  0.00  0.00    +0.006 A 
ENDBRANCH   1   8
BRANCH   1  14
ATOM     14  O   LIG    1       24.890 -18.272   3.676  0.00  0.00    -0.364 OA
BRANCH  14  19
ATOM     15  C   LIG    1       21.194 -21.569   5.034  0.00  0.00    +0.105 C 
ATOM     16  N   LIG    1       22.562 -21.149   4.715  0.00  0.00    -0.299 NA
ATOM     17  C   LIG    1       22.627 -20.412   3.437  0.00  0.00    +0.059 C 
ATOM     18  C   LIG    1       24.116 -20.431   3.017  0.00  0.00    +0.050 C 
ATOM     19  C   LIG    1       25.021 -19.667   4.005  0.00  0.00    +0.122 C 
ATOM     20  C   LIG    1       24.626 -20.063   5.446  0.00  0.00    +0.050 C 
ATOM     21  C   LIG    1       22.091 -19.016   3.793  0.00  0.00    +0.020 C 
ATOM     22  C   LIG    1       22.396 -18.851   5.286  0.00  0.00    +0.020 C 
ATOM     23  C   LIG    1       23.097 -20.155   5.669  0.00  0.00    +0.059 C 
ENDBRANCH  14  19
ENDBRANCH   1  14
TORSDOF 4
ENDMDL
MODEL 7
REMARK VINA RESULT:      -0.7      2.326      6.311
REMARK  Name = *****
REMARK                            x       y       z     vdW  Elec       q    Type
REMARK                         _______ _______ _______ _____ _____    ______ ____
ROOT
ATOM      1  C   LIG    1       25.747 -17.893   3.537  0.00  0.00    +0.179 C 
ENDROOT
BRANCH   1   2
ATOM      2  C   LIG    1       24.339 -18.400   3.875  0.00  0.00    -0.015 A 
ATOM      3  C   LIG    1       23.970 -19.756   3.789  0.00  0.00    +0.006 A 
ATOM      4  C   LIG    1       22.644 -20.152   4.005  0.00  0.00    +0.000 A 
ATOM      5  C   LIG    1       21.662 -19.206   4.293  0.00  0.00    +0.000 A 
ATOM      6  C   LIG    1       22.011 -17.865   4.410  0.00  0.00    +0.000 A 
ATOM      7  C   LIG    1       23.337 -17.474   4.220  0.00  0.00    +0.006 A 
ENDBRANCH   1   2
BRANCH   1   8
ATOM      8  C   LIG    1       26.790 -18.605   4.396  0.00  0.00    -0.015 A 
ATOM      9  C   LIG    1       28.065 -18.062   4.631  0.00  0.00    +0.006 A 
ATOM     10  C   LIG    1       28.950 -18.699   5.504  0.00  0.00    +0.000 A 
ATOM     11  C   LIG    1       28.576 -19.862   6.170  0.00  0.00    +0.000 A 
ATOM     12  C   LIG    1       27.314 -20.415   5.948  0.00  0.00    +0.000 A 
ATOM     13  C   LIG    1       26.440 -19.795   5.058  0.00  0.00    +0.006 A 
ENDBRANCH   1   8
BRANCH   1  14
ATOM     14  O   LIG    1       25.801 -16.467   3.637  0.00  0.00    -0.364 OA
BRANCH  14  19
ATOM     15  C   LIG    1       27.865 -11.859   4.576  0.00  0.00    +0.105 C 
ATOM     16  N   LIG    1       27.678 -13.119   3.850  0.00  0.00    -0.299 NA
ATOM     17  C   LIG    1       27.742 -14.287   4.751  0.00  0.00    +0.059 C 
ATOM     18  C   LIG    1       27.979 -15.511   3.834  0.00  0.00    +0.050 C 
ATOM     19  C   LIG    1       26.802 -15.770   2.872  0.00  0.00    +0.122 C 
ATOM     20  C   LIG    1       26.363 -14.422   2.254  0.00  0.00    +0.050 C 
ATOM     21  C   LIG    1       26.375 -14.282   5.454  0.00  0.00    +0.020 C 
ATOM     22  C   LIG    1       25.433 -13.582   4.467  0.00  0.00    +0.020 C 
ATOM     23  C   LIG    1       26.325 -13.254   3.269  0.00  0.00    +0.059 C 
ENDBRANCH  14  19
ENDBRANCH   1  14
TORSDOF 4
ENDMDL
