MODEL 1
REMARK VINA RESULT:      -2.7      0.000      0.000
REMARK  Name = *****
REMARK                            x       y       z     vdW  Elec       q    Type
REMARK                         _______ _______ _______ _____ _____    ______ ____
ROOT
ATOM      1  C   LIG    1       30.940 -20.713   8.442  0.00  0.00    +0.088 C 
ENDROOT
BRANCH   1   2
ATOM      2  N   LIG    1       32.095 -20.977   9.303  0.00  0.00    -0.329 NA
ATOM      3  H   LIG    1       32.956 -20.775   8.794  0.00  0.00    +0.118 HD
ATOM      4  H   LIG    1       32.078 -20.330  10.092  0.00  0.00    +0.118 HD
ENDBRANCH   1   2
BRANCH   1   5
ATOM      5  C   LIG    1       31.104 -19.391   7.687  0.00  0.00    +0.080 C 
BRANCH   5   6
ATOM      6  S   LIG    1       31.730 -18.089   8.791  0.00  0.00    -0.177 S 
ATOM      7  H   LIG    1       32.168 -17.268   7.824  0.00  0.00    +0.102 HD
ENDBRANCH   5   6
ENDBRANCH   1   5
TORSDOF 3
ENDMDL
MODEL 2
REMARK VINA RESULT:      -2.6      1.463      1.463
REMARK  Name = *****
REMARK                            x       y       z     vdW  Elec       q    Type
REMARK                         _______ _______ _______ _____ _____    ______ ____
ROOT
ATOM      1  C   LIG    1       30.845 -21.174   8.689  0.00  0.00    +0.088 C 
ENDROOT
BRANCH   1   2
ATOM      2  N   LIG    1       31.953 -21.776   9.434  0.00  0.00    -0.329 NA
ATOM      3  H   LIG    1       32.338 -21.094  10.087  0.00  0.00    +0.118 HD
ATOM      4  H   LIG    1       31.594 -22.540  10.007  0.00  0.00    +0.118 HD
ENDBRANCH   1   2
BRANCH   1   5
ATOM      5  C   LIG    1       31.113 -19.695   8.399  0.00  0.00    +0.080 C 
BRANCH   5   6
ATOM      6  S   LIG    1       30.479 -19.232   6.758  0.00  0.00    -0.177 S 
ATOM      7  H   LIG    1       29.969 -20.433   6.448  0.00  0.00    +0.102 HD
ENDBRANCH   5   6
ENDBRANCH   1   5
TORSDOF 3
ENDMDL
MODEL 3
REMARK VINA RESULT:      -2.6      2.050      2.247
REMARK  Name = *****
REMARK                            x       y       z     vdW  Elec       q    Type
REMARK                         _______ _______ _______ _____ _____    ______ ____
ROOT
ATOM      1  C   LIG    1       31.697 -18.574   8.560  0.00  0.00    +0.088 C 
ENDROOT
BRANCH   1   2
ATOM      2  N   LIG    1       31.983 -19.878   9.161  0.00  0.00    -0.329 NA
ATOM      3  H   LIG    1       32.323 -20.520   8.444  0.00  0.00    +0.118 HD
ATOM      4  H   LIG    1       32.747 -19.777   9.830  0.00  0.00    +0.118 HD
ENDBRANCH   1   2
BRANCH   1   5
ATOM      5  C   LIG    1       31.956 -17.439   9.553  0.00  0.00    +0.080 C 
BRANCH   5   6
ATOM      6  S   LIG    1       30.618 -17.335  10.781  0.00  0.00    -0.177 S 
ATOM      7  H   LIG    1       30.571 -15.996  10.841  0.00  0.00    +0.102 HD
ENDBRANCH   5   6
ENDBRANCH   1   5
TORSDOF 3
ENDMDL
MODEL 4
REMARK VINA RESULT:      -2.6      2.110      2.149
REMARK  Name = *****
REMARK                            x       y       z     vdW  Elec       q    Type
REMARK                         _______ _______ _______ _____ _____    ______ ____
ROOT
ATOM      1  C   LIG    1       31.620 -18.652   8.220  0.00  0.00    +0.088 C 
ENDROOT
BRANCH   1   2
ATOM      2  N   LIG    1       31.982 -19.657   9.222  0.00  0.00    -0.329 NA
ATOM      3  H   LIG    1       31.530 -20.544   8.998  0.00  0.00    +0.118 HD
ATOM      4  H   LIG    1       32.986 -19.834   9.169  0.00  0.00    +0.118 HD
ENDBRANCH   1   2
BRANCH   1   5
ATOM      5  C   LIG    1       30.972 -19.302   6.995  0.00  0.00    +0.080 C 
BRANCH   5   6
ATOM      6  S   LIG    1       29.529 -20.298   7.478  0.00  0.00    -0.177 S 
ATOM      7  H   LIG    1       28.650 -19.285   7.512  0.00  0.00    +0.102 HD
ENDBRANCH   5   6
ENDBRANCH   1   5
TORSDOF 3
ENDMDL
MODEL 5
REMARK VINA RESULT:      -2.5     10.951     11.153
REMARK  Name = *****
REMARK                            x       y       z     vdW  Elec       q    Type
REMARK                         _______ _______ _______ _____ _____    ______ ____
ROOT
ATOM      1  C   LIG    1       24.589 -28.544   5.363  0.00  0.00    +0.088 C 
ENDROOT
BRANCH   1   2
ATOM      2  N   LIG    1       23.363 -29.344   5.392  0.00  0.00    -0.329 NA
ATOM      3  H   LIG    1       23.369 -29.952   6.211  0.00  0.00    +0.118 HD
ATOM      4  H   LIG    1       22.562 -28.723   5.511  0.00  0.00    +0.118 HD
ENDBRANCH   1   2
BRANCH   1   5
ATOM      5  C   LIG    1       24.366 -27.167   5.995  0.00  0.00    +0.080 C 
BRANCH   5   6
ATOM      6  S   LIG    1       25.276 -25.882   5.086  0.00  0.00    -0.177 S 
ATOM      7  H   LIG    1       26.376 -26.613   4.851  0.00  0.00    +0.102 HD
ENDBRANCH   5   6
ENDBRANCH   1   5
TORSDOF 3
ENDMDL
MODEL 6
REMARK VINA RESULT:      -2.5      2.975      3.186
REMARK  Name = *****
REMARK                            x       y       z     vdW  Elec       q    Type
REMARK                         _______ _______ _______ _____ _____    ______ ____
ROOT
ATOM      1  C   LIG    1       31.984 -17.500   9.295  0.00  0.00    +0.088 C 
ENDROOT
BRANCH   1   2
ATOM      2  N   LIG    1       32.615 -16.256   8.848  0.00  0.00    -0.329 NA
ATOM      3  H   LIG    1       31.949 -15.487   8.922  0.00  0.00    +0.118 HD
ATOM      4  H   LIG    1       33.381 -16.024   9.482  0.00  0.00    +0.118 HD
ENDBRANCH   1   2
BRANCH   1   5
ATOM      5  C   LIG    1       31.713 -18.437   8.115  0.00  0.00    +0.080 C 
BRANCH   5   6
ATOM      6  S   LIG    1       31.046 -20.027   8.691  0.00  0.00    -0.177 S 
ATOM      7  H   LIG    1       30.537 -20.414   7.512  0.00  0.00    +0.102 HD
ENDBRANCH   5   6
ENDBRANCH   1   5
TORSDOF 3
ENDMDL
MODEL 7
REMARK VINA RESULT:      -2.5      9.372      9.521
REMARK  Name = *****
REMARK                            x       y       z     vdW  Elec       q    Type
REMARK                         _______ _______ _______ _____ _____    ______ ____
ROOT
ATOM      1  C   LIG    1       23.769 -24.023   6.657  0.00  0.00    +0.088 C 
ENDROOT
BRANCH   1   2
ATOM      2  N   LIG    1       22.321 -23.804   6.656  0.00  0.00    -0.329 NA
ATOM      3  H   LIG    1       21.849 -24.633   6.293  0.00  0.00    +0.118 HD
ATOM      4  H   LIG    1       21.998 -23.698   7.618  0.00  0.00    +0.118 HD
ENDBRANCH   1   2
BRANCH   1   5
ATOM      5  C   LIG    1       24.117 -25.423   6.146  0.00  0.00    +0.080 C 
BRANCH   5   6
ATOM      6  S   LIG    1       25.894 -25.760   6.340  0.00  0.00    -0.177 S 
ATOM      7  H   LIG    1       26.233 -25.517   5.065  0.00  0.00    +0.102 HD
ENDBRANCH   5   6
ENDBRANCH   1   5
TORSDOF 3
ENDMDL
MODEL 8
REMARK VINA RESULT:      -2.4      9.002      9.045
REMARK  Name = *****
REMARK                            x       y       z     vdW  Elec       q    Type
REMARK                         _______ _______ _______ _____ _____    ______ ____
ROOT
ATOM      1  C   LIG    1       23.603 -23.117   6.822  0.00  0.00    +0.088 C 
ENDROOT
BRANCH   1   2
ATOM      2  N   LIG    1       22.319 -23.799   6.643  0.00  0.00    -0.329 NA
ATOM      3  H   LIG    1       21.751 -23.290   5.966  0.00  0.00    +0.118 HD
ATOM      4  H   LIG    1       22.484 -24.719   6.234  0.00  0.00    +0.118 HD
ENDBRANCH   1   2
BRANCH   1   5
ATOM      5  C   LIG    1       23.401 -21.670   7.278  0.00  0.00    +0.080 C 
BRANCH   5   6
ATOM      6  S   LIG    1       23.076 -20.582   5.858  0.00  0.00    -0.177 S 
ATOM      7  H   LIG    1       22.968 -19.445   6.560  0.00  0.00    +0.102 HD
ENDBRANCH   5   6
ENDBRANCH   1   5
TORSDOF 3
ENDMDL
MODEL 9
REMARK VINA RESULT:      -2.4      3.743      3.752
REMARK  Name = *****
REMARK                            x       y       z     vdW  Elec       q    Type
REMARK                         _______ _______ _______ _____ _____    ______ ____
ROOT
ATOM      1  C   LIG    1       30.436 -17.135   9.693  0.00  0.00    +0.088 C 
ENDROOT
BRANCH   1   2
ATOM      2  N   LIG    1       30.346 -16.509  11.014  0.00  0.00    -0.329 NA
ATOM      3  H   LIG    1       31.224 -16.640  11.516  0.00  0.00    +0.118 HD
ATOM      4  H   LIG    1       30.238 -15.501  10.898  0.00  0.00    +0.118 HD
ENDBRANCH   1   2
BRANCH   1   5
ATOM      5  C   LIG    1       31.874 -17.112   9.167  0.00  0.00    +0.080 C 
BRANCH   5   6
ATOM      6  S   LIG    1       32.877 -15.899  10.078  0.00  0.00    -0.177 S 
ATOM      7  H   LIG    1       32.098 -15.848  11.169  0.00  0.00    +0.102 HD
ENDBRANCH   5   6
ENDBRANCH   1   5
TORSDOF 3
ENDMDL
