MODEL 1
REMARK VINA RESULT:      -8.7      0.000      0.000
REMARK  Name = *****
REMARK                            x       y       z     vdW  Elec       q    Type
REMARK                         _______ _______ _______ _____ _____    ______ ____
ROOT
ATOM      1  O   LIG    1       27.927 -20.073   5.743  0.00  0.00    -0.489 OA
ENDROOT
BRANCH   1   2
ATOM      2  C   LIG    1       26.818 -20.420   6.490  0.00  0.00    +0.128 A 
ATOM      3  C   LIG    1       25.554 -20.369   5.838  0.00  0.00    +0.024 A 
ATOM      4  C   LIG    1       24.387 -20.696   6.563  0.00  0.00    -0.014 A 
ATOM      5  C   LIG    1       23.128 -20.678   5.934  0.00  0.00    +0.008 A 
ATOM      6  C   LIG    1       23.021 -20.366   4.578  0.00  0.00    +0.001 A 
ATOM      7  C   LIG    1       24.155 -20.036   3.852  0.00  0.00    +0.001 A 
ATOM      8  C   LIG    1       24.478 -21.062   7.916  0.00  0.00    +0.009 A 
ATOM      9  C   LIG    1       25.720 -21.134   8.540  0.00  0.00    +0.004 A 
ATOM     10  C   LIG    1       25.409 -20.019   4.475  0.00  0.00    +0.012 A 
ATOM     11  C   LIG    1       26.878 -20.820   7.836  0.00  0.00    +0.046 A 
ENDBRANCH   1   2
BRANCH   1  12
ATOM     12  C   LIG    1       29.194 -20.282   6.365  0.00  0.00    +0.261 C 
BRANCH  12  13
ATOM     13  C   LIG    1       29.880 -18.969   6.761  0.00  0.00    +0.166 C 
BRANCH  13  14
ATOM     14  O   LIG    1       30.133 -18.221   5.561  0.00  0.00    -0.387 OA
ATOM     15  H   LIG    1       31.073 -17.962   5.591  0.00  0.00    +0.210 HD
ENDBRANCH  13  14
BRANCH  13  16
ATOM     16  C   LIG    1       31.186 -19.114   7.587  0.00  0.00    +0.115 C 
BRANCH  16  17
ATOM     17  N   LIG    1       31.812 -17.834   7.980  0.00  0.00    -0.311 NA
ATOM     18  H   LIG    1       32.788 -17.842   7.686  0.00  0.00    +0.122 HD
BRANCH  17  20
ATOM     19  C   LIG    1       32.649 -16.384   9.771  0.00  0.00    +0.024 C 
ATOM     20  C   LIG    1       31.789 -17.610   9.445  0.00  0.00    +0.048 C 
ATOM     21  C   LIG    1       30.381 -17.397  10.012  0.00  0.00    +0.024 C 
ENDBRANCH  17  20
ENDBRANCH  16  17
ENDBRANCH  13  16
ENDBRANCH  12  13
ENDBRANCH   1  12
TORSDOF 7
ENDMDL
MODEL 2
REMARK VINA RESULT:      -8.5      2.531      3.145
REMARK  Name = *****
REMARK                            x       y       z     vdW  Elec       q    Type
REMARK                         _______ _______ _______ _____ _____    ______ ____
ROOT
ATOM      1  O   LIG    1       27.356 -21.846   7.443  0.00  0.00    -0.489 OA
ENDROOT
BRANCH   1   2
ATOM      2  C   LIG    1       25.977 -21.843   7.352  0.00  0.00    +0.128 A 
ATOM      3  C   LIG    1       25.349 -23.068   6.993  0.00  0.00    +0.024 A 
ATOM      4  C   LIG    1       23.942 -23.115   6.868  0.00  0.00    -0.014 A 
ATOM      5  C   LIG    1       23.296 -24.321   6.540  0.00  0.00    +0.008 A 
ATOM      6  C   LIG    1       24.032 -25.492   6.363  0.00  0.00    +0.001 A 
ATOM      7  C   LIG    1       25.414 -25.464   6.475  0.00  0.00    +0.001 A 
ATOM      8  C   LIG    1       23.177 -21.959   7.092  0.00  0.00    +0.009 A 
ATOM      9  C   LIG    1       23.798 -20.770   7.467  0.00  0.00    +0.004 A 
ATOM     10  C   LIG    1       26.071 -24.264   6.769  0.00  0.00    +0.012 A 
ATOM     11  C   LIG    1       25.181 -20.713   7.598  0.00  0.00    +0.046 A 
ENDBRANCH   1   2
BRANCH   1  12
ATOM     12  C   LIG    1       28.006 -20.609   7.153  0.00  0.00    +0.261 C 
BRANCH  12  13
ATOM     13  C   LIG    1       29.489 -20.616   7.544  0.00  0.00    +0.166 C 
BRANCH  13  14
ATOM     14  O   LIG    1       29.648 -21.501   8.665  0.00  0.00    -0.387 OA
ATOM     15  H   LIG    1       29.911 -22.366   8.298  0.00  0.00    +0.210 HD
ENDBRANCH  13  14
BRANCH  13  16
ATOM     16  C   LIG    1       30.108 -19.230   7.864  0.00  0.00    +0.115 C 
BRANCH  16  17
ATOM     17  N   LIG    1       29.661 -18.635   9.141  0.00  0.00    -0.311 NA
ATOM     18  H   LIG    1       28.690 -18.338   9.042  0.00  0.00    +0.122 HD
BRANCH  17  20
ATOM     19  C   LIG    1       30.519 -17.369  11.057  0.00  0.00    +0.024 C 
ATOM     20  C   LIG    1       30.454 -17.444   9.527  0.00  0.00    +0.048 C 
ATOM     21  C   LIG    1       31.881 -17.448   8.967  0.00  0.00    +0.024 C 
ENDBRANCH  17  20
ENDBRANCH  16  17
ENDBRANCH  13  16
ENDBRANCH  12  13
ENDBRANCH   1  12
TORSDOF 7
ENDMDL
MODEL 3
REMARK VINA RESULT:      -8.3      1.677      2.114
REMARK  Name = *****
REMARK                            x       y       z     vdW  Elec       q    Type
REMARK                         _______ _______ _______ _____ _____    ______ ____
ROOT
ATOM      1  O   LIG    1       27.189 -21.375   6.566  0.00  0.00    -0.489 OA
ENDROOT
BRANCH   1   2
ATOM      2  C   LIG    1       25.809 -21.346   6.623  0.00  0.00    +0.128 A 
ATOM      3  C   LIG    1       25.136 -20.565   5.642  0.00  0.00    +0.024 A 
ATOM      4  C   LIG    1       23.725 -20.486   5.668  0.00  0.00    -0.014 A 
ATOM      5  C   LIG    1       23.035 -19.741   4.694  0.00  0.00    +0.008 A 
ATOM      6  C   LIG    1       23.733 -19.096   3.673  0.00  0.00    +0.001 A 
ATOM      7  C   LIG    1       25.118 -19.157   3.635  0.00  0.00    +0.001 A 
ATOM      8  C   LIG    1       23.000 -21.169   6.658  0.00  0.00    +0.009 A 
ATOM      9  C   LIG    1       23.665 -21.951   7.599  0.00  0.00    +0.004 A 
ATOM     10  C   LIG    1       25.817 -19.868   4.617  0.00  0.00    +0.012 A 
ATOM     11  C   LIG    1       25.053 -22.041   7.581  0.00  0.00    +0.046 A 
ENDBRANCH   1   2
BRANCH   1  12
ATOM     12  C   LIG    1       27.866 -21.512   7.814  0.00  0.00    +0.261 C 
BRANCH  12  13
ATOM     13  C   LIG    1       29.319 -21.026   7.754  0.00  0.00    +0.166 C 
BRANCH  13  14
ATOM     14  O   LIG    1       30.023 -21.589   8.873  0.00  0.00    -0.387 OA
ATOM     15  H   LIG    1       29.784 -22.534   8.902  0.00  0.00    +0.210 HD
ENDBRANCH  13  14
BRANCH  13  16
ATOM     16  C   LIG    1       29.515 -19.488   7.717  0.00  0.00    +0.115 C 
BRANCH  16  17
ATOM     17  N   LIG    1       29.407 -18.821   9.032  0.00  0.00    -0.311 NA
ATOM     18  H   LIG    1       28.468 -18.433   9.127  0.00  0.00    +0.122 HD
BRANCH  17  20
ATOM     19  C   LIG    1       30.423 -17.305  10.668  0.00  0.00    +0.024 C 
ATOM     20  C   LIG    1       30.369 -17.706   9.190  0.00  0.00    +0.048 C 
ATOM     21  C   LIG    1       31.786 -18.045   8.713  0.00  0.00    +0.024 C 
ENDBRANCH  17  20
ENDBRANCH  16  17
ENDBRANCH  13  16
ENDBRANCH  12  13
ENDBRANCH   1  12
TORSDOF 7
ENDMDL
MODEL 4
REMARK VINA RESULT:      -7.9      6.498      9.028
REMARK  Name = *****
REMARK                            x       y       z     vdW  Elec       q    Type
REMARK                         _______ _______ _______ _____ _____    ______ ____
ROOT
ATOM      1  O   LIG    1       25.849 -25.194   6.357  0.00  0.00    -0.489 OA
ENDROOT
BRANCH   1   2
ATOM      2  C   LIG    1       24.926 -24.206   6.644  0.00  0.00    +0.128 A 
ATOM      3  C   LIG    1       25.433 -22.966   7.124  0.00  0.00    +0.024 A 
ATOM      4  C   LIG    1       24.530 -21.929   7.449  0.00  0.00    -0.014 A 
ATOM      5  C   LIG    1       25.007 -20.685   7.901  0.00  0.00    +0.008 A 
ATOM      6  C   LIG    1       26.378 -20.449   8.005  0.00  0.00    +0.001 A 
ATOM      7  C   LIG    1       27.279 -21.457   7.696  0.00  0.00    +0.001 A 
ATOM      8  C   LIG    1       23.147 -22.128   7.304  0.00  0.00    +0.009 A 
ATOM      9  C   LIG    1       22.662 -23.335   6.810  0.00  0.00    +0.004 A 
ATOM     10  C   LIG    1       26.815 -22.709   7.276  0.00  0.00    +0.012 A 
ATOM     11  C   LIG    1       23.540 -24.362   6.481  0.00  0.00    +0.046 A 
ENDBRANCH   1   2
BRANCH   1  12
ATOM     12  C   LIG    1       25.437 -26.183   5.415  0.00  0.00    +0.261 C 
BRANCH  12  13
ATOM     13  C   LIG    1       24.955 -27.474   6.088  0.00  0.00    +0.166 C 
BRANCH  13  14
ATOM     14  O   LIG    1       25.968 -27.897   7.014  0.00  0.00    -0.387 OA
ATOM     15  H   LIG    1       26.813 -27.541   6.680  0.00  0.00    +0.210 HD
ENDBRANCH  13  14
BRANCH  13  16
ATOM     16  C   LIG    1       24.588 -28.638   5.129  0.00  0.00    +0.115 C 
BRANCH  16  17
ATOM     17  N   LIG    1       23.530 -29.540   5.631  0.00  0.00    -0.311 NA
ATOM     18  H   LIG    1       23.054 -29.086   6.410  0.00  0.00    +0.122 HD
BRANCH  17  20
ATOM     19  C   LIG    1       25.422 -31.090   5.462  0.00  0.00    +0.024 C 
ATOM     20  C   LIG    1       24.065 -30.831   6.125  0.00  0.00    +0.048 C 
ATOM     21  C   LIG    1       24.235 -30.882   7.648  0.00  0.00    +0.024 C 
ENDBRANCH  17  20
ENDBRANCH  16  17
ENDBRANCH  13  16
ENDBRANCH  12  13
ENDBRANCH   1  12
TORSDOF 7
ENDMDL
MODEL 5
REMARK VINA RESULT:      -7.9      1.867      2.989
REMARK  Name = *****
REMARK                            x       y       z     vdW  Elec       q    Type
REMARK                         _______ _______ _______ _____ _____    ______ ____
ROOT
ATOM      1  O   LIG    1       28.832 -20.444   8.436  0.00  0.00    -0.489 OA
ENDROOT
BRANCH   1   2
ATOM      2  C   LIG    1       28.082 -20.229   7.296  0.00  0.00    +0.128 A 
ATOM      3  C   LIG    1       26.720 -20.640   7.330  0.00  0.00    +0.024 A 
ATOM      4  C   LIG    1       25.913 -20.460   6.184  0.00  0.00    -0.014 A 
ATOM      5  C   LIG    1       24.557 -20.834   6.202  0.00  0.00    +0.008 A 
ATOM      6  C   LIG    1       23.984 -21.359   7.360  0.00  0.00    +0.001 A 
ATOM      7  C   LIG    1       24.761 -21.549   8.492  0.00  0.00    +0.001 A 
ATOM      8  C   LIG    1       26.458 -19.887   5.024  0.00  0.00    +0.009 A 
ATOM      9  C   LIG    1       27.784 -19.465   5.007  0.00  0.00    +0.004 A 
ATOM     10  C   LIG    1       26.119 -21.211   8.477  0.00  0.00    +0.012 A 
ATOM     11  C   LIG    1       28.587 -19.631   6.130  0.00  0.00    +0.046 A 
ENDBRANCH   1   2
BRANCH   1  12
ATOM     12  C   LIG    1       30.066 -21.137   8.254  0.00  0.00    +0.261 C 
BRANCH  12  13
ATOM     13  C   LIG    1       31.288 -20.242   8.495  0.00  0.00    +0.166 C 
BRANCH  13  14
ATOM     14  O   LIG    1       32.174 -20.932   9.390  0.00  0.00    -0.387 OA
ATOM     15  H   LIG    1       32.780 -20.258   9.752  0.00  0.00    +0.210 HD
ENDBRANCH  13  14
BRANCH  13  16
ATOM     16  C   LIG    1       30.984 -18.819   9.034  0.00  0.00    +0.115 C 
BRANCH  16  17
ATOM     17  N   LIG    1       31.901 -18.353  10.096  0.00  0.00    -0.311 NA
ATOM     18  H   LIG    1       31.739 -18.907  10.936  0.00  0.00    +0.122 HD
BRANCH  17  20
ATOM     19  C   LIG    1       31.943 -16.753  11.952  0.00  0.00    +0.024 C 
ATOM     20  C   LIG    1       31.691 -16.930  10.451  0.00  0.00    +0.048 C 
ATOM     21  C   LIG    1       32.594 -15.963   9.676  0.00  0.00    +0.024 C 
ENDBRANCH  17  20
ENDBRANCH  16  17
ENDBRANCH  13  16
ENDBRANCH  12  13
ENDBRANCH   1  12
TORSDOF 7
ENDMDL
MODEL 6
REMARK VINA RESULT:      -7.8      3.334      5.427
REMARK  Name = *****
REMARK                            x       y       z     vdW  Elec       q    Type
REMARK                         _______ _______ _______ _____ _____    ______ ____
ROOT
ATOM      1  O   LIG    1       26.961 -22.205   7.287  0.00  0.00    -0.489 OA
ENDROOT
BRANCH   1   2
ATOM      2  C   LIG    1       25.616 -22.499   7.173  0.00  0.00    +0.128 A 
ATOM      3  C   LIG    1       25.273 -23.818   6.763  0.00  0.00    +0.024 A 
ATOM      4  C   LIG    1       23.911 -24.165   6.613  0.00  0.00    -0.014 A 
ATOM      5  C   LIG    1       23.546 -25.470   6.234  0.00  0.00    +0.008 A 
ATOM      6  C   LIG    1       24.522 -26.445   6.030  0.00  0.00    +0.001 A 
ATOM      7  C   LIG    1       25.864 -26.121   6.165  0.00  0.00    +0.001 A 
ATOM      8  C   LIG    1       22.911 -23.211   6.863  0.00  0.00    +0.009 A 
ATOM      9  C   LIG    1       23.254 -21.931   7.288  0.00  0.00    +0.004 A 
ATOM     10  C   LIG    1       26.241 -24.819   6.511  0.00  0.00    +0.012 A 
ATOM     11  C   LIG    1       24.590 -21.579   7.445  0.00  0.00    +0.046 A 
ENDBRANCH   1   2
BRANCH   1  12
ATOM     12  C   LIG    1       27.292 -20.823   7.421  0.00  0.00    +0.261 C 
BRANCH  12  13
ATOM     13  C   LIG    1       28.001 -20.264   6.182  0.00  0.00    +0.166 C 
BRANCH  13  14
ATOM     14  O   LIG    1       29.037 -19.373   6.627  0.00  0.00    -0.387 OA
ATOM     15  H   LIG    1       29.653 -19.911   7.158  0.00  0.00    +0.210 HD
ENDBRANCH  13  14
BRANCH  13  16
ATOM     16  C   LIG    1       27.090 -19.551   5.148  0.00  0.00    +0.115 C 
BRANCH  16  17
ATOM     17  N   LIG    1       26.205 -20.451   4.381  0.00  0.00    -0.311 NA
ATOM     18  H   LIG    1       26.777 -21.028   3.765  0.00  0.00    +0.122 HD
BRANCH  17  20
ATOM     19  C   LIG    1       23.834 -19.882   4.128  0.00  0.00    +0.024 C 
ATOM     20  C   LIG    1       25.236 -19.718   3.533  0.00  0.00    +0.048 C 
ATOM     21  C   LIG    1       25.548 -18.223   3.396  0.00  0.00    +0.024 C 
ENDBRANCH  17  20
ENDBRANCH  16  17
ENDBRANCH  13  16
ENDBRANCH  12  13
ENDBRANCH   1  12
TORSDOF 7
ENDMDL
MODEL 7
REMARK VINA RESULT:      -7.6      2.403      2.966
REMARK  Name = *****
REMARK                            x       y       z     vdW  Elec       q    Type
REMARK                         _______ _______ _______ _____ _____    ______ ____
ROOT
ATOM      1  O   LIG    1       26.996 -21.540   6.373  0.00  0.00    -0.489 OA
ENDROOT
BRANCH   1   2
ATOM      2  C   LIG    1       25.648 -21.702   6.632  0.00  0.00    +0.128 A 
ATOM      3  C   LIG    1       25.117 -23.016   6.502  0.00  0.00    +0.024 A 
ATOM      4  C   LIG    1       23.740 -23.232   6.737  0.00  0.00    -0.014 A 
ATOM      5  C   LIG    1       23.196 -24.526   6.640  0.00  0.00    +0.008 A 
ATOM      6  C   LIG    1       24.013 -25.616   6.341  0.00  0.00    +0.001 A 
ATOM      7  C   LIG    1       25.365 -25.422   6.100  0.00  0.00    +0.001 A 
ATOM      8  C   LIG    1       22.909 -22.157   7.090  0.00  0.00    +0.009 A 
ATOM      9  C   LIG    1       23.442 -20.879   7.239  0.00  0.00    +0.004 A 
ATOM     10  C   LIG    1       25.912 -24.135   6.162  0.00  0.00    +0.012 A 
ATOM     11  C   LIG    1       24.796 -20.654   7.016  0.00  0.00    +0.046 A 
ENDBRANCH   1   2
BRANCH   1  12
ATOM     12  C   LIG    1       27.708 -20.685   7.267  0.00  0.00    +0.261 C 
BRANCH  12  13
ATOM     13  C   LIG    1       28.582 -19.661   6.533  0.00  0.00    +0.166 C 
BRANCH  13  14
ATOM     14  O   LIG    1       28.322 -19.783   5.126  0.00  0.00    -0.387 OA
ATOM     15  H   LIG    1       28.239 -20.737   4.942  0.00  0.00    +0.210 HD
ENDBRANCH  13  14
BRANCH  13  16
ATOM     16  C   LIG    1       30.106 -19.758   6.806  0.00  0.00    +0.115 C 
BRANCH  16  17
ATOM     17  N   LIG    1       30.760 -18.470   7.120  0.00  0.00    -0.311 NA
ATOM     18  H   LIG    1       31.341 -18.195   6.329  0.00  0.00    +0.122 HD
BRANCH  17  20
ATOM     19  C   LIG    1       31.502 -17.247   9.110  0.00  0.00    +0.024 C 
ATOM     20  C   LIG    1       31.636 -18.548   8.312  0.00  0.00    +0.048 C 
ATOM     21  C   LIG    1       31.319 -19.733   9.232  0.00  0.00    +0.024 C 
ENDBRANCH  17  20
ENDBRANCH  16  17
ENDBRANCH  13  16
ENDBRANCH  12  13
ENDBRANCH   1  12
TORSDOF 7
ENDMDL
MODEL 8
REMARK VINA RESULT:      -7.6      1.296      2.548
REMARK  Name = *****
REMARK                            x       y       z     vdW  Elec       q    Type
REMARK                         _______ _______ _______ _____ _____    ______ ____
ROOT
ATOM      1  O   LIG    1       27.734 -20.313   5.791  0.00  0.00    -0.489 OA
ENDROOT
BRANCH   1   2
ATOM      2  C   LIG    1       26.471 -20.108   5.270  0.00  0.00    +0.128 A 
ATOM      3  C   LIG    1       25.382 -20.719   5.952  0.00  0.00    +0.024 A 
ATOM      4  C   LIG    1       24.071 -20.555   5.449  0.00  0.00    -0.014 A 
ATOM      5  C   LIG    1       22.975 -21.128   6.120  0.00  0.00    +0.008 A 
ATOM      6  C   LIG    1       23.164 -21.839   7.305  0.00  0.00    +0.001 A 
ATOM      7  C   LIG    1       24.443 -22.015   7.810  0.00  0.00    +0.001 A 
ATOM      8  C   LIG    1       23.853 -19.801   4.285  0.00  0.00    +0.009 A 
ATOM      9  C   LIG    1       24.921 -19.185   3.639  0.00  0.00    +0.004 A 
ATOM     10  C   LIG    1       25.545 -21.477   7.135  0.00  0.00    +0.012 A 
ATOM     11  C   LIG    1       26.215 -19.334   4.126  0.00  0.00    +0.046 A 
ENDBRANCH   1   2
BRANCH   1  12
ATOM     12  C   LIG    1       28.650 -19.226   5.663  0.00  0.00    +0.261 C 
BRANCH  12  13
ATOM     13  C   LIG    1       29.897 -19.399   6.538  0.00  0.00    +0.166 C 
BRANCH  13  14
ATOM     14  O   LIG    1       29.904 -20.746   7.040  0.00  0.00    -0.387 OA
ATOM     15  H   LIG    1       30.736 -20.849   7.540  0.00  0.00    +0.210 HD
ENDBRANCH  13  14
BRANCH  13  16
ATOM     16  C   LIG    1       30.045 -18.392   7.709  0.00  0.00    +0.115 C 
BRANCH  16  17
ATOM     17  N   LIG    1       30.245 -19.013   9.035  0.00  0.00    -0.311 NA
ATOM     18  H   LIG    1       29.342 -19.080   9.505  0.00  0.00    +0.122 HD
BRANCH  17  20
ATOM     19  C   LIG    1       32.024 -17.327   9.030  0.00  0.00    +0.024 C 
ATOM     20  C   LIG    1       31.145 -18.224   9.908  0.00  0.00    +0.048 C 
ATOM     21  C   LIG    1       30.404 -17.351  10.928  0.00  0.00    +0.024 C 
ENDBRANCH  17  20
ENDBRANCH  16  17
ENDBRANCH  13  16
ENDBRANCH  12  13
ENDBRANCH   1  12
TORSDOF 7
ENDMDL
MODEL 9
REMARK VINA RESULT:      -7.3      4.938      7.911
REMARK  Name = *****
REMARK                            x       y       z     vdW  Elec       q    Type
REMARK                         _______ _______ _______ _____ _____    ______ ____
ROOT
ATOM      1  O   LIG    1       24.171 -22.686   7.106  0.00  0.00    -0.489 OA
ENDROOT
BRANCH   1   2
ATOM      2  C   LIG    1       24.644 -21.750   6.207  0.00  0.00    +0.128 A 
ATOM      3  C   LIG    1       25.969 -21.271   6.406  0.00  0.00    +0.024 A 
ATOM      4  C   LIG    1       26.493 -20.298   5.526  0.00  0.00    -0.014 A 
ATOM      5  C   LIG    1       27.810 -19.828   5.687  0.00  0.00    +0.008 A 
ATOM      6  C   LIG    1       28.624 -20.338   6.698  0.00  0.00    +0.001 A 
ATOM      7  C   LIG    1       28.123 -21.288   7.576  0.00  0.00    +0.001 A 
ATOM      8  C   LIG    1       25.708 -19.808   4.470  0.00  0.00    +0.009 A 
ATOM      9  C   LIG    1       24.422 -20.300   4.267  0.00  0.00    +0.004 A 
ATOM     10  C   LIG    1       26.805 -21.740   7.446  0.00  0.00    +0.012 A 
ATOM     11  C   LIG    1       23.896 -21.262   5.123  0.00  0.00    +0.046 A 
ENDBRANCH   1   2
BRANCH   1  12
ATOM     12  C   LIG    1       23.747 -23.931   6.550  0.00  0.00    +0.261 C 
BRANCH  12  13
ATOM     13  C   LIG    1       24.905 -24.727   5.936  0.00  0.00    +0.166 C 
BRANCH  13  14
ATOM     14  O   LIG    1       24.725 -24.745   4.511  0.00  0.00    -0.387 OA
ATOM     15  H   LIG    1       23.825 -24.409   4.343  0.00  0.00    +0.210 HD
ENDBRANCH  13  14
BRANCH  13  16
ATOM     16  C   LIG    1       25.087 -26.173   6.470  0.00  0.00    +0.115 C 
BRANCH  16  17
ATOM     17  N   LIG    1       24.012 -27.111   6.089  0.00  0.00    -0.311 NA
ATOM     18  H   LIG    1       23.179 -26.896   6.636  0.00  0.00    +0.122 HD
BRANCH  17  20
ATOM     19  C   LIG    1       25.114 -29.082   5.136  0.00  0.00    +0.024 C 
ATOM     20  C   LIG    1       24.365 -28.526   6.352  0.00  0.00    +0.048 C 
ATOM     21  C   LIG    1       25.230 -28.721   7.602  0.00  0.00    +0.024 C 
ENDBRANCH  17  20
ENDBRANCH  16  17
ENDBRANCH  13  16
ENDBRANCH  12  13
ENDBRANCH   1  12
TORSDOF 7
ENDMDL
