MODEL 1
REMARK VINA RESULT:      -7.7      0.000      0.000
REMARK  Name = *****
REMARK                            x       y       z     vdW  Elec       q    Type
REMARK                         _______ _______ _______ _____ _____    ______ ____
ROOT
ATOM      1  C   LIG    1       27.481 -20.543   7.589  0.00  0.00    +0.036 A 
ATOM      2  C   LIG    1       26.721 -20.225   6.454  0.00  0.00    +0.038 A 
ATOM      3  C   LIG    1       25.557 -20.969   6.125  0.00  0.00    +0.060 A 
ATOM      4  C   LIG    1       25.207 -22.100   6.891  0.00  0.00    +0.131 A 
ATOM      5  C   LIG    1       26.075 -22.469   7.928  0.00  0.00    +0.048 A 
ATOM      6  C   LIG    1       27.201 -21.720   8.259  0.00  0.00    +0.027 A 
ENDROOT
BRANCH   1   9
ATOM      7  N   LIG    1       30.398 -18.455   8.631  0.00  0.00    -0.286 N 
ATOM      8  C   LIG    1       29.748 -19.479   7.928  0.00  0.00    +0.306 C 
ATOM      9  N   LIG    1       28.377 -19.581   8.114  0.00  0.00    -0.269 N 
ATOM     10  H   LIG    1       28.020 -19.207   8.978  0.00  0.00    +0.156 HD
ATOM     11  O   LIG    1       30.407 -20.238   7.174  0.00  0.00    -0.252 OA
BRANCH   7  13
ATOM     12  C   LIG    1       32.429 -16.904   8.891  0.00  0.00    +0.024 C 
ATOM     13  C   LIG    1       31.856 -18.251   8.430  0.00  0.00    +0.106 C 
ENDBRANCH   7  13
BRANCH   7  14
ATOM     14  C   LIG    1       29.744 -17.634   9.652  0.00  0.00    +0.106 C 
ATOM     15  C   LIG    1       30.355 -17.715  11.034  0.00  0.00    +0.024 C 
ENDBRANCH   7  14
ENDBRANCH   1   9
BRANCH   3  16
ATOM     16  C   LIG    1       24.725 -20.407   5.016  0.00  0.00    +0.164 C 
ATOM     17  O   LIG    1       25.220 -20.264   3.899  0.00  0.00    -0.292 OA
ATOM     18  C   LIG    1       23.324 -19.935   5.306  0.00  0.00    +0.091 C 
ENDBRANCH   3  16
BRANCH   4  19
ATOM     19  O   LIG    1       24.056 -22.813   6.611  0.00  0.00    -0.489 OA
BRANCH  19  20
ATOM     20  C   LIG    1       24.188 -24.261   6.593  0.00  0.00    +0.261 C 
BRANCH  20  21
ATOM     21  C   LIG    1       24.970 -24.763   5.350  0.00  0.00    +0.166 C 
BRANCH  21  22
ATOM     22  O   LIG    1       24.721 -23.881   4.252  0.00  0.00    -0.387 OA
ATOM     23  H   LIG    1       25.581 -23.465   4.054  0.00  0.00    +0.210 HD
ENDBRANCH  21  22
BRANCH  21  24
ATOM     24  C   LIG    1       24.553 -26.223   4.974  0.00  0.00    +0.116 C 
BRANCH  24  25
ATOM     25  N   LIG    1       24.042 -27.042   6.101  0.00  0.00    -0.309 NA
ATOM     26  H   LIG    1       23.823 -26.411   6.877  0.00  0.00    +0.122 HD
BRANCH  25  27
ATOM     27  C   LIG    1       24.938 -28.133   6.576  0.00  0.00    +0.011 C 
ATOM     28  C   LIG    1       24.187 -29.238   7.345  0.00  0.00    +0.027 C 
ATOM     29  C   LIG    1       26.090 -27.584   7.443  0.00  0.00    +0.027 C 
ATOM     30  C   LIG    1       25.577 -28.821   5.345  0.00  0.00    +0.027 C 
ENDBRANCH  25  27
ENDBRANCH  24  25
ENDBRANCH  21  24
ENDBRANCH  20  21
ENDBRANCH  19  20
ENDBRANCH   4  19
TORSDOF 11
ENDMDL
MODEL 2
REMARK VINA RESULT:      -7.6      3.615      5.174
REMARK  Name = *****
REMARK                            x       y       z     vdW  Elec       q    Type
REMARK                         _______ _______ _______ _____ _____    ______ ____
ROOT
ATOM      1  C   LIG    1       30.693 -19.490   8.508  0.00  0.00    +0.036 A 
ATOM      2  C   LIG    1       30.055 -19.082   7.328  0.00  0.00    +0.038 A 
ATOM      3  C   LIG    1       29.054 -19.889   6.726  0.00  0.00    +0.060 A 
ATOM      4  C   LIG    1       28.759 -21.160   7.262  0.00  0.00    +0.131 A 
ATOM      5  C   LIG    1       29.524 -21.591   8.354  0.00  0.00    +0.048 A 
ATOM      6  C   LIG    1       30.487 -20.783   8.954  0.00  0.00    +0.027 A 
ENDROOT
BRANCH   1   9
ATOM      7  N   LIG    1       31.811 -16.922  10.979  0.00  0.00    -0.286 N 
ATOM      8  C   LIG    1       30.945 -17.885  10.443  0.00  0.00    +0.306 C 
ATOM      9  N   LIG    1       31.376 -18.530   9.293  0.00  0.00    -0.269 N 
ATOM     10  H   LIG    1       32.043 -18.029   8.730  0.00  0.00    +0.156 HD
ATOM     11  O   LIG    1       29.849 -18.126  11.008  0.00  0.00    -0.252 OA
BRANCH   7  13
ATOM     12  C   LIG    1       32.430 -16.362  13.409  0.00  0.00    +0.024 C 
ATOM     13  C   LIG    1       31.439 -16.237  12.245  0.00  0.00    +0.106 C 
ENDBRANCH   7  13
BRANCH   7  14
ATOM     14  C   LIG    1       33.024 -16.459  10.302  0.00  0.00    +0.106 C 
ATOM     15  C   LIG    1       32.991 -15.023   9.829  0.00  0.00    +0.024 C 
ENDBRANCH   7  14
ENDBRANCH   1   9
BRANCH   3  16
ATOM     16  C   LIG    1       28.308 -19.254   5.595  0.00  0.00    +0.164 C 
ATOM     17  O   LIG    1       27.345 -19.838   5.100  0.00  0.00    -0.292 OA
ATOM     18  C   LIG    1       28.805 -17.955   5.016  0.00  0.00    +0.091 C 
ENDBRANCH   3  16
BRANCH   4  19
ATOM     19  O   LIG    1       27.761 -21.943   6.713  0.00  0.00    -0.489 OA
BRANCH  19  20
ATOM     20  C   LIG    1       26.610 -22.201   7.564  0.00  0.00    +0.261 C 
BRANCH  20  21
ATOM     21  C   LIG    1       25.654 -20.982   7.642  0.00  0.00    +0.166 C 
BRANCH  21  22
ATOM     22  O   LIG    1       25.631 -20.489   8.985  0.00  0.00    -0.387 OA
ATOM     23  H   LIG    1       25.727 -19.521   8.907  0.00  0.00    +0.210 HD
ENDBRANCH  21  22
BRANCH  21  24
ATOM     24  C   LIG    1       24.207 -21.368   7.186  0.00  0.00    +0.116 C 
BRANCH  24  25
ATOM     25  N   LIG    1       23.376 -20.237   6.707  0.00  0.00    -0.309 NA
ATOM     26  H   LIG    1       22.527 -20.203   7.277  0.00  0.00    +0.122 HD
BRANCH  25  27
ATOM     27  C   LIG    1       23.012 -20.258   5.263  0.00  0.00    +0.011 C 
ATOM     28  C   LIG    1       24.205 -20.586   4.344  0.00  0.00    +0.027 C 
ATOM     29  C   LIG    1       22.362 -18.931   4.821  0.00  0.00    +0.027 C 
ATOM     30  C   LIG    1       21.968 -21.379   5.031  0.00  0.00    +0.027 C 
ENDBRANCH  25  27
ENDBRANCH  24  25
ENDBRANCH  21  24
ENDBRANCH  20  21
ENDBRANCH  19  20
ENDBRANCH   4  19
TORSDOF 11
ENDMDL
MODEL 3
REMARK VINA RESULT:      -7.4      2.373      3.951
REMARK  Name = *****
REMARK                            x       y       z     vdW  Elec       q    Type
REMARK                         _______ _______ _______ _____ _____    ______ ____
ROOT
ATOM      1  C   LIG    1       29.695 -18.447   8.047  0.00  0.00    +0.036 A 
ATOM      2  C   LIG    1       28.655 -19.245   8.544  0.00  0.00    +0.038 A 
ATOM      3  C   LIG    1       27.834 -20.001   7.667  0.00  0.00    +0.060 A 
ATOM      4  C   LIG    1       28.000 -19.880   6.271  0.00  0.00    +0.131 A 
ATOM      5  C   LIG    1       28.953 -18.960   5.814  0.00  0.00    +0.048 A 
ATOM      6  C   LIG    1       29.770 -18.240   6.682  0.00  0.00    +0.027 A 
ENDROOT
BRANCH   1   9
ATOM      7  N   LIG    1       31.834 -17.326  10.896  0.00  0.00    -0.286 N 
ATOM      8  C   LIG    1       30.665 -17.804  10.291  0.00  0.00    +0.306 C 
ATOM      9  N   LIG    1       30.726 -18.029   8.923  0.00  0.00    -0.269 N 
ATOM     10  H   LIG    1       31.417 -17.499   8.420  0.00  0.00    +0.156 HD
ATOM     11  O   LIG    1       29.639 -18.012  10.986  0.00  0.00    -0.252 OA
BRANCH   7  13
ATOM     12  C   LIG    1       32.505 -15.824  12.871  0.00  0.00    +0.024 C 
ATOM     13  C   LIG    1       31.858 -17.122  12.369  0.00  0.00    +0.106 C 
ENDBRANCH   7  13
BRANCH   7  14
ATOM     14  C   LIG    1       33.018 -16.899  10.146  0.00  0.00    +0.106 C 
ATOM     15  C   LIG    1       32.999 -15.462   9.674  0.00  0.00    +0.024 C 
ENDBRANCH   7  14
ENDBRANCH   1   9
BRANCH   3  16
ATOM     16  C   LIG    1       26.900 -20.965   8.328  0.00  0.00    +0.164 C 
ATOM     17  O   LIG    1       27.317 -22.065   8.686  0.00  0.00    -0.292 OA
ATOM     18  C   LIG    1       25.441 -20.612   8.459  0.00  0.00    +0.091 C 
ENDBRANCH   3  16
BRANCH   4  19
ATOM     19  O   LIG    1       27.237 -20.637   5.401  0.00  0.00    -0.489 OA
BRANCH  19  20
ATOM     20  C   LIG    1       26.084 -19.973   4.816  0.00  0.00    +0.261 C 
BRANCH  20  21
ATOM     21  C   LIG    1       25.063 -20.981   4.227  0.00  0.00    +0.166 C 
BRANCH  21  22
ATOM     22  O   LIG    1       23.959 -20.260   3.671  0.00  0.00    -0.387 OA
ATOM     23  H   LIG    1       23.377 -20.939   3.279  0.00  0.00    +0.210 HD
ENDBRANCH  21  22
BRANCH  21  24
ATOM     24  C   LIG    1       24.558 -21.978   5.321  0.00  0.00    +0.116 C 
BRANCH  24  25
ATOM     25  N   LIG    1       25.542 -23.008   5.737  0.00  0.00    -0.309 NA
ATOM     26  H   LIG    1       26.252 -23.082   5.003  0.00  0.00    +0.122 HD
BRANCH  25  27
ATOM     27  C   LIG    1       24.990 -24.357   6.039  0.00  0.00    +0.011 C 
ATOM     28  C   LIG    1       23.551 -24.311   6.589  0.00  0.00    +0.027 C 
ATOM     29  C   LIG    1       25.897 -25.136   7.014  0.00  0.00    +0.027 C 
ATOM     30  C   LIG    1       24.923 -25.172   4.724  0.00  0.00    +0.027 C 
ENDBRANCH  25  27
ENDBRANCH  24  25
ENDBRANCH  21  24
ENDBRANCH  20  21
ENDBRANCH  19  20
ENDBRANCH   4  19
TORSDOF 11
ENDMDL
MODEL 4
REMARK VINA RESULT:      -7.2      1.556      8.564
REMARK  Name = *****
REMARK                            x       y       z     vdW  Elec       q    Type
REMARK                         _______ _______ _______ _____ _____    ______ ____
ROOT
ATOM      1  C   LIG    1       24.994 -24.519   6.729  0.00  0.00    +0.036 A 
ATOM      2  C   LIG    1       24.201 -23.664   5.951  0.00  0.00    +0.038 A 
ATOM      3  C   LIG    1       24.564 -22.304   5.765  0.00  0.00    +0.060 A 
ATOM      4  C   LIG    1       25.683 -21.776   6.443  0.00  0.00    +0.131 A 
ATOM      5  C   LIG    1       26.362 -22.629   7.325  0.00  0.00    +0.048 A 
ATOM      6  C   LIG    1       26.013 -23.968   7.483  0.00  0.00    +0.027 A 
ENDROOT
BRANCH   1   9
ATOM      7  N   LIG    1       25.030 -28.106   5.686  0.00  0.00    -0.286 N 
ATOM      8  C   LIG    1       25.404 -26.757   5.627  0.00  0.00    +0.306 C 
ATOM      9  N   LIG    1       24.847 -25.921   6.584  0.00  0.00    -0.269 N 
ATOM     10  H   LIG    1       23.972 -26.222   6.978  0.00  0.00    +0.156 HD
ATOM     11  O   LIG    1       26.209 -26.367   4.745  0.00  0.00    -0.252 OA
BRANCH   7  13
ATOM     12  C   LIG    1       25.592 -30.550   5.127  0.00  0.00    +0.024 C 
ATOM     13  C   LIG    1       25.637 -29.069   4.729  0.00  0.00    +0.106 C 
ENDBRANCH   7  13
BRANCH   7  14
ATOM     14  C   LIG    1       23.978 -28.617   6.568  0.00  0.00    +0.106 C 
ATOM     15  C   LIG    1       24.464 -29.257   7.848  0.00  0.00    +0.024 C 
ENDBRANCH   7  14
ENDBRANCH   1   9
BRANCH   3  16
ATOM     16  C   LIG    1       23.755 -21.553   4.755  0.00  0.00    +0.164 C 
ATOM     17  O   LIG    1       24.132 -21.513   3.584  0.00  0.00    -0.292 OA
ATOM     18  C   LIG    1       22.544 -20.778   5.203  0.00  0.00    +0.091 C 
ENDBRANCH   3  16
BRANCH   4  19
ATOM     19  O   LIG    1       26.076 -20.466   6.244  0.00  0.00    -0.489 OA
BRANCH  19  20
ATOM     20  C   LIG    1       27.276 -20.043   6.948  0.00  0.00    +0.261 C 
BRANCH  20  21
ATOM     21  C   LIG    1       28.514 -19.985   6.015  0.00  0.00    +0.166 C 
BRANCH  21  22
ATOM     22  O   LIG    1       29.302 -21.163   6.206  0.00  0.00    -0.387 OA
ATOM     23  H   LIG    1       29.834 -20.991   7.007  0.00  0.00    +0.210 HD
ENDBRANCH  21  22
BRANCH  21  24
ATOM     24  C   LIG    1       29.375 -18.709   6.298  0.00  0.00    +0.116 C 
BRANCH  24  25
ATOM     25  N   LIG    1       30.763 -18.975   6.748  0.00  0.00    -0.309 NA
ATOM     26  H   LIG    1       31.031 -19.907   6.419  0.00  0.00    +0.122 HD
BRANCH  25  27
ATOM     27  C   LIG    1       31.008 -18.870   8.213  0.00  0.00    +0.011 C 
ATOM     28  C   LIG    1       32.219 -17.982   8.561  0.00  0.00    +0.027 C 
ATOM     29  C   LIG    1       31.177 -20.259   8.862  0.00  0.00    +0.027 C 
ATOM     30  C   LIG    1       29.778 -18.200   8.875  0.00  0.00    +0.027 C 
ENDBRANCH  25  27
ENDBRANCH  24  25
ENDBRANCH  21  24
ENDBRANCH  20  21
ENDBRANCH  19  20
ENDBRANCH   4  19
TORSDOF 11
ENDMDL
MODEL 5
REMARK VINA RESULT:      -7.0      3.511      9.660
REMARK  Name = *****
REMARK                            x       y       z     vdW  Elec       q    Type
REMARK                         _______ _______ _______ _____ _____    ______ ____
ROOT
ATOM      1  C   LIG    1       28.444 -20.407   6.367  0.00  0.00    +0.036 A 
ATOM      2  C   LIG    1       29.199 -21.196   7.245  0.00  0.00    +0.038 A 
ATOM      3  C   LIG    1       30.374 -20.686   7.856  0.00  0.00    +0.060 A 
ATOM      4  C   LIG    1       30.845 -19.402   7.509  0.00  0.00    +0.131 A 
ATOM      5  C   LIG    1       30.142 -18.704   6.518  0.00  0.00    +0.048 A 
ATOM      6  C   LIG    1       28.976 -19.204   5.941  0.00  0.00    +0.027 A 
ENDROOT
BRANCH   1   9
ATOM      7  N   LIG    1       24.848 -21.416   6.417  0.00  0.00    -0.286 N 
ATOM      8  C   LIG    1       26.063 -20.999   6.975  0.00  0.00    +0.306 C 
ATOM      9  N   LIG    1       27.104 -20.770   6.087  0.00  0.00    -0.269 N 
ATOM     10  H   LIG    1       27.052 -21.262   5.211  0.00  0.00    +0.156 HD
ATOM     11  O   LIG    1       26.162 -20.847   8.219  0.00  0.00    -0.252 OA
BRANCH   7  13
ATOM     12  C   LIG    1       22.694 -22.730   6.902  0.00  0.00    +0.024 C 
ATOM     13  C   LIG    1       23.673 -21.620   7.305  0.00  0.00    +0.106 C 
ENDBRANCH   7  13
BRANCH   7  14
ATOM     14  C   LIG    1       24.687 -21.778   5.007  0.00  0.00    +0.106 C 
ATOM     15  C   LIG    1       24.149 -20.681   4.115  0.00  0.00    +0.024 C 
ENDBRANCH   7  14
ENDBRANCH   1   9
BRANCH   3  16
ATOM     16  C   LIG    1       30.973 -21.547   8.923  0.00  0.00    +0.164 C 
ATOM     17  O   LIG    1       30.748 -21.291  10.106  0.00  0.00    -0.292 OA
ATOM     18  C   LIG    1       31.917 -22.655   8.538  0.00  0.00    +0.091 C 
ENDBRANCH   3  16
BRANCH   4  19
ATOM     19  O   LIG    1       31.965 -18.871   8.122  0.00  0.00    -0.489 OA
BRANCH  19  20
ATOM     20  C   LIG    1       31.778 -17.604   8.809  0.00  0.00    +0.261 C 
BRANCH  20  21
ATOM     21  C   LIG    1       30.387 -17.504   9.489  0.00  0.00    +0.166 C 
BRANCH  21  22
ATOM     22  O   LIG    1       29.757 -16.283   9.092  0.00  0.00    -0.387 OA
ATOM     23  H   LIG    1       30.230 -15.579   9.576  0.00  0.00    +0.210 HD
ENDBRANCH  21  22
BRANCH  21  24
ATOM     24  C   LIG    1       30.515 -17.563  11.047  0.00  0.00    +0.116 C 
BRANCH  24  25
ATOM     25  N   LIG    1       30.833 -16.269  11.701  0.00  0.00    -0.309 NA
ATOM     26  H   LIG    1       30.610 -15.518  11.043  0.00  0.00    +0.122 HD
BRANCH  25  27
ATOM     27  C   LIG    1       32.230 -16.110  12.191  0.00  0.00    +0.011 C 
ATOM     28  C   LIG    1       33.025 -15.043  11.414  0.00  0.00    +0.027 C 
ATOM     29  C   LIG    1       32.995 -17.449  12.170  0.00  0.00    +0.027 C 
ATOM     30  C   LIG    1       32.187 -15.630  13.664  0.00  0.00    +0.027 C 
ENDBRANCH  25  27
ENDBRANCH  24  25
ENDBRANCH  21  24
ENDBRANCH  20  21
ENDBRANCH  19  20
ENDBRANCH   4  19
TORSDOF 11
ENDMDL
MODEL 6
REMARK VINA RESULT:      -6.9      2.275      8.410
REMARK  Name = *****
REMARK                            x       y       z     vdW  Elec       q    Type
REMARK                         _______ _______ _______ _____ _____    ______ ____
ROOT
ATOM      1  C   LIG    1       25.504 -25.490   6.392  0.00  0.00    +0.036 A 
ATOM      2  C   LIG    1       25.492 -24.394   7.265  0.00  0.00    +0.038 A 
ATOM      3  C   LIG    1       25.013 -23.127   6.838  0.00  0.00    +0.060 A 
ATOM      4  C   LIG    1       24.629 -22.938   5.494  0.00  0.00    +0.131 A 
ATOM      5  C   LIG    1       24.794 -24.021   4.619  0.00  0.00    +0.048 A 
ATOM      6  C   LIG    1       25.243 -25.266   5.053  0.00  0.00    +0.027 A 
ENDROOT
BRANCH   1   9
ATOM      7  N   LIG    1       25.177 -29.101   7.288  0.00  0.00    -0.286 N 
ATOM      8  C   LIG    1       24.932 -27.948   6.531  0.00  0.00    +0.306 C 
ATOM      9  N   LIG    1       25.602 -26.798   6.924  0.00  0.00    -0.269 N 
ATOM     10  H   LIG    1       25.887 -26.762   7.889  0.00  0.00    +0.156 HD
ATOM     11  O   LIG    1       24.145 -27.995   5.552  0.00  0.00    -0.252 OA
BRANCH   7  13
ATOM     12  C   LIG    1       25.475 -31.479   6.360  0.00  0.00    +0.024 C 
ATOM     13  C   LIG    1       24.539 -30.382   6.885  0.00  0.00    +0.106 C 
ENDBRANCH   7  13
BRANCH   7  14
ATOM     14  C   LIG    1       25.943 -29.103   8.537  0.00  0.00    +0.106 C 
ATOM     15  C   LIG    1       25.245 -29.733   9.721  0.00  0.00    +0.024 C 
ENDBRANCH   7  14
ENDBRANCH   1   9
BRANCH   3  16
ATOM     16  C   LIG    1       24.861 -22.099   7.915  0.00  0.00    +0.164 C 
ATOM     17  O   LIG    1       23.772 -21.551   8.081  0.00  0.00    -0.292 OA
ATOM     18  C   LIG    1       26.066 -21.680   8.715  0.00  0.00    +0.091 C 
ENDBRANCH   3  16
BRANCH   4  19
ATOM     19  O   LIG    1       24.122 -21.725   5.069  0.00  0.00    -0.489 OA
BRANCH  19  20
ATOM     20  C   LIG    1       24.940 -20.985   4.122  0.00  0.00    +0.261 C 
BRANCH  20  21
ATOM     21  C   LIG    1       25.732 -19.837   4.803  0.00  0.00    +0.166 C 
BRANCH  21  22
ATOM     22  O   LIG    1       26.156 -18.904   3.805  0.00  0.00    -0.387 OA
ATOM     23  H   LIG    1       25.639 -18.093   3.973  0.00  0.00    +0.210 HD
ENDBRANCH  21  22
BRANCH  21  24
ATOM     24  C   LIG    1       26.970 -20.391   5.583  0.00  0.00    +0.116 C 
BRANCH  24  25
ATOM     25  N   LIG    1       28.161 -19.505   5.583  0.00  0.00    -0.309 NA
ATOM     26  H   LIG    1       28.621 -19.592   4.673  0.00  0.00    +0.122 HD
BRANCH  25  27
ATOM     27  C   LIG    1       29.149 -19.738   6.672  0.00  0.00    +0.011 C 
ATOM     28  C   LIG    1       28.720 -19.122   8.018  0.00  0.00    +0.027 C 
ATOM     29  C   LIG    1       30.551 -19.223   6.286  0.00  0.00    +0.027 C 
ATOM     30  C   LIG    1       29.271 -21.263   6.914  0.00  0.00    +0.027 C 
ENDBRANCH  25  27
ENDBRANCH  24  25
ENDBRANCH  21  24
ENDBRANCH  20  21
ENDBRANCH  19  20
ENDBRANCH   4  19
TORSDOF 11
ENDMDL
MODEL 7
REMARK VINA RESULT:      -6.7      2.376      5.189
REMARK  Name = *****
REMARK                            x       y       z     vdW  Elec       q    Type
REMARK                         _______ _______ _______ _____ _____    ______ ____
ROOT
ATOM      1  C   LIG    1       26.831 -21.853   8.107  0.00  0.00    +0.036 A 
ATOM      2  C   LIG    1       26.664 -23.042   7.384  0.00  0.00    +0.038 A 
ATOM      3  C   LIG    1       25.413 -23.368   6.796  0.00  0.00    +0.060 A 
ATOM      4  C   LIG    1       24.296 -22.535   7.016  0.00  0.00    +0.131 A 
ATOM      5  C   LIG    1       24.471 -21.434   7.866  0.00  0.00    +0.048 A 
ATOM      6  C   LIG    1       25.707 -21.110   8.419  0.00  0.00    +0.027 A 
ENDROOT
BRANCH   1   9
ATOM      7  N   LIG    1       30.216 -20.280   7.978  0.00  0.00    -0.286 N 
ATOM      8  C   LIG    1       28.922 -20.561   7.520  0.00  0.00    +0.306 C 
ATOM      9  N   LIG    1       28.138 -21.362   8.339  0.00  0.00    -0.269 N 
ATOM     10  H   LIG    1       28.636 -21.974   8.964  0.00  0.00    +0.156 HD
ATOM     11  O   LIG    1       28.528 -20.089   6.424  0.00  0.00    -0.252 OA
BRANCH   7  13
ATOM     12  C   LIG    1       31.892 -18.333   7.963  0.00  0.00    +0.024 C 
ATOM     13  C   LIG    1       31.088 -19.379   7.180  0.00  0.00    +0.106 C 
ENDBRANCH   7  13
BRANCH   7  14
ATOM     14  C   LIG    1       30.815 -20.918   9.153  0.00  0.00    +0.106 C 
ATOM     15  C   LIG    1       31.524 -22.227   8.886  0.00  0.00    +0.024 C 
ENDBRANCH   7  14
ENDBRANCH   1   9
BRANCH   3  16
ATOM     16  C   LIG    1       25.418 -24.554   5.884  0.00  0.00    +0.164 C 
ATOM     17  O   LIG    1       25.024 -24.429   4.725  0.00  0.00    -0.292 OA
ATOM     18  C   LIG    1       25.816 -25.902   6.424  0.00  0.00    +0.091 C 
ENDBRANCH   3  16
BRANCH   4  19
ATOM     19  O   LIG    1       23.080 -22.813   6.419  0.00  0.00    -0.489 OA
BRANCH  19  20
ATOM     20  C   LIG    1       22.190 -21.681   6.222  0.00  0.00    +0.261 C 
BRANCH  20  21
ATOM     21  C   LIG    1       22.423 -20.982   4.856  0.00  0.00    +0.166 C 
BRANCH  21  22
ATOM     22  O   LIG    1       23.261 -21.809   4.043  0.00  0.00    -0.387 OA
ATOM     23  H   LIG    1       22.651 -22.399   3.560  0.00  0.00    +0.210 HD
ENDBRANCH  21  22
BRANCH  21  24
ATOM     24  C   LIG    1       23.078 -19.574   5.046  0.00  0.00    +0.116 C 
BRANCH  24  25
ATOM     25  N   LIG    1       23.586 -18.944   3.803  0.00  0.00    -0.309 NA
ATOM     26  H   LIG    1       23.050 -19.319   3.015  0.00  0.00    +0.122 HD
BRANCH  25  27
ATOM     27  C   LIG    1       25.044 -19.098   3.539  0.00  0.00    +0.011 C 
ATOM     28  C   LIG    1       25.768 -17.752   3.348  0.00  0.00    +0.027 C 
ATOM     29  C   LIG    1       25.307 -20.010   2.323  0.00  0.00    +0.027 C 
ATOM     30  C   LIG    1       25.702 -19.772   4.769  0.00  0.00    +0.027 C 
ENDBRANCH  25  27
ENDBRANCH  24  25
ENDBRANCH  21  24
ENDBRANCH  20  21
ENDBRANCH  19  20
ENDBRANCH   4  19
TORSDOF 11
ENDMDL
MODEL 8
REMARK VINA RESULT:      -6.6      6.151      8.771
REMARK  Name = *****
REMARK                            x       y       z     vdW  Elec       q    Type
REMARK                         _______ _______ _______ _____ _____    ______ ____
ROOT
ATOM      1  C   LIG    1       26.003 -28.716  11.432  0.00  0.00    +0.036 A 
ATOM      2  C   LIG    1       24.786 -29.383  11.235  0.00  0.00    +0.038 A 
ATOM      3  C   LIG    1       24.553 -30.139  10.056  0.00  0.00    +0.060 A 
ATOM      4  C   LIG    1       25.517 -30.149   9.025  0.00  0.00    +0.131 A 
ATOM      5  C   LIG    1       26.655 -29.351   9.201  0.00  0.00    +0.048 A 
ATOM      6  C   LIG    1       26.886 -28.631  10.371  0.00  0.00    +0.027 A 
ENDROOT
BRANCH   1   9
ATOM      7  N   LIG    1       26.940 -26.921  14.570  0.00  0.00    -0.286 N 
ATOM      8  C   LIG    1       26.496 -27.026  13.246  0.00  0.00    +0.306 C 
ATOM      9  N   LIG    1       26.368 -28.312  12.739  0.00  0.00    -0.269 N 
ATOM     10  H   LIG    1       26.936 -29.017  13.176  0.00  0.00    +0.156 HD
ATOM     11  O   LIG    1       26.232 -25.989  12.588  0.00  0.00    -0.252 OA
BRANCH   7  13
ATOM     12  C   LIG    1       28.363 -24.823  14.991  0.00  0.00    +0.024 C 
ATOM     13  C   LIG    1       27.042 -25.576  15.196  0.00  0.00    +0.106 C 
ENDBRANCH   7  13
BRANCH   7  14
ATOM     14  C   LIG    1       27.427 -28.058  15.354  0.00  0.00    +0.106 C 
ATOM     15  C   LIG    1       28.891 -28.391  15.168  0.00  0.00    +0.024 C 
ENDBRANCH   7  14
ENDBRANCH   1   9
BRANCH   3  16
ATOM     16  C   LIG    1       23.306 -30.965  10.057  0.00  0.00    +0.164 C 
ATOM     17  O   LIG    1       22.285 -30.522   9.532  0.00  0.00    -0.292 OA
ATOM     18  C   LIG    1       23.291 -32.286  10.782  0.00  0.00    +0.091 C 
ENDBRANCH   3  16
BRANCH   4  19
ATOM     19  O   LIG    1       25.326 -30.912   7.888  0.00  0.00    -0.489 OA
BRANCH  19  20
ATOM     20  C   LIG    1       25.394 -30.201   6.622  0.00  0.00    +0.261 C 
BRANCH  20  21
ATOM     21  C   LIG    1       24.235 -29.181   6.459  0.00  0.00    +0.166 C 
BRANCH  21  22
ATOM     22  O   LIG    1       23.219 -29.754   5.632  0.00  0.00    -0.387 OA
ATOM     23  H   LIG    1       23.666 -30.455   5.120  0.00  0.00    +0.210 HD
ENDBRANCH  21  22
BRANCH  21  24
ATOM     24  C   LIG    1       24.747 -27.841   5.833  0.00  0.00    +0.116 C 
BRANCH  24  25
ATOM     25  N   LIG    1       23.837 -26.681   6.000  0.00  0.00    -0.309 NA
ATOM     26  H   LIG    1       23.174 -26.683   5.219  0.00  0.00    +0.122 HD
BRANCH  25  27
ATOM     27  C   LIG    1       24.489 -25.347   6.103  0.00  0.00    +0.011 C 
ATOM     28  C   LIG    1       25.752 -25.359   6.985  0.00  0.00    +0.027 C 
ATOM     29  C   LIG    1       23.507 -24.272   6.612  0.00  0.00    +0.027 C 
ATOM     30  C   LIG    1       24.953 -24.911   4.690  0.00  0.00    +0.027 C 
ENDBRANCH  25  27
ENDBRANCH  24  25
ENDBRANCH  21  24
ENDBRANCH  20  21
ENDBRANCH  19  20
ENDBRANCH   4  19
TORSDOF 11
ENDMDL
MODEL 9
REMARK VINA RESULT:      -6.6      3.577      8.674
REMARK  Name = *****
REMARK                            x       y       z     vdW  Elec       q    Type
REMARK                         _______ _______ _______ _____ _____    ______ ____
ROOT
ATOM      1  C   LIG    1       25.585 -25.559   6.376  0.00  0.00    +0.036 A 
ATOM      2  C   LIG    1       25.863 -24.454   7.193  0.00  0.00    +0.038 A 
ATOM      3  C   LIG    1       25.450 -23.149   6.817  0.00  0.00    +0.060 A 
ATOM      4  C   LIG    1       24.835 -22.940   5.564  0.00  0.00    +0.131 A 
ATOM      5  C   LIG    1       24.708 -24.049   4.717  0.00  0.00    +0.048 A 
ATOM      6  C   LIG    1       25.095 -25.330   5.104  0.00  0.00    +0.027 A 
ENDROOT
BRANCH   1   9
ATOM      7  N   LIG    1       25.161 -29.150   7.315  0.00  0.00    -0.286 N 
ATOM      8  C   LIG    1       24.960 -28.003   6.535  0.00  0.00    +0.306 C 
ATOM      9  N   LIG    1       25.643 -26.861   6.930  0.00  0.00    -0.269 N 
ATOM     10  H   LIG    1       25.902 -26.816   7.901  0.00  0.00    +0.156 HD
ATOM     11  O   LIG    1       24.200 -28.050   5.536  0.00  0.00    -0.252 OA
BRANCH   7  13
ATOM     12  C   LIG    1       25.311 -31.339   5.979  0.00  0.00    +0.024 C 
ATOM     13  C   LIG    1       24.509 -30.424   6.913  0.00  0.00    +0.106 C 
ENDBRANCH   7  13
BRANCH   7  14
ATOM     14  C   LIG    1       25.892 -29.147   8.584  0.00  0.00    +0.106 C 
ATOM     15  C   LIG    1       25.180 -29.812   9.741  0.00  0.00    +0.024 C 
ENDBRANCH   7  14
ENDBRANCH   1   9
BRANCH   3  16
ATOM     16  C   LIG    1       25.623 -22.092   7.862  0.00  0.00    +0.164 C 
ATOM     17  O   LIG    1       24.639 -21.677   8.473  0.00  0.00    -0.292 OA
ATOM     18  C   LIG    1       26.983 -21.483   8.082  0.00  0.00    +0.091 C 
ENDBRANCH   3  16
BRANCH   4  19
ATOM     19  O   LIG    1       24.390 -21.684   5.198  0.00  0.00    -0.489 OA
BRANCH  19  20
ATOM     20  C   LIG    1       24.606 -21.308   3.810  0.00  0.00    +0.261 C 
BRANCH  20  21
ATOM     21  C   LIG    1       25.550 -20.083   3.675  0.00  0.00    +0.166 C 
BRANCH  21  22
ATOM     22  O   LIG    1       26.545 -20.142   4.701  0.00  0.00    -0.387 OA
ATOM     23  H   LIG    1       26.702 -19.215   4.962  0.00  0.00    +0.210 HD
ENDBRANCH  21  22
BRANCH  21  24
ATOM     24  C   LIG    1       24.751 -18.741   3.776  0.00  0.00    +0.116 C 
BRANCH  24  25
ATOM     25  N   LIG    1       23.344 -18.811   3.312  0.00  0.00    -0.309 NA
ATOM     26  H   LIG    1       23.248 -18.201   2.496  0.00  0.00    +0.122 HD
BRANCH  25  27
ATOM     27  C   LIG    1       22.304 -18.467   4.321  0.00  0.00    +0.011 C 
ATOM     28  C   LIG    1       22.326 -16.981   4.727  0.00  0.00    +0.027 C 
ATOM     29  C   LIG    1       22.418 -19.353   5.578  0.00  0.00    +0.027 C 
ATOM     30  C   LIG    1       20.907 -18.725   3.703  0.00  0.00    +0.027 C 
ENDBRANCH  25  27
ENDBRANCH  24  25
ENDBRANCH  21  24
ENDBRANCH  20  21
ENDBRANCH  19  20
ENDBRANCH   4  19
TORSDOF 11
ENDMDL
