MODEL 1
REMARK VINA RESULT:      -7.6      0.000      0.000
REMARK  Name = *****
REMARK                            x       y       z     vdW  Elec       q    Type
REMARK                         _______ _______ _______ _____ _____    ______ ____
ROOT
ATOM      1  C   LIG    1       23.461 -25.566   6.158  0.00  0.00    +0.014 C 
ATOM      2  C   LIG    1       24.888 -25.369   5.587  0.00  0.00    -0.003 C 
ATOM      3  C   LIG    1       25.567 -26.746   5.358  0.00  0.00    +0.121 C 
ATOM      4  C   LIG    1       26.311 -27.054   6.669  0.00  0.00    +0.032 C 
ATOM      5  C   LIG    1       26.067 -25.842   7.607  0.00  0.00    +0.007 C 
ATOM      6  C   LIG    1       25.847 -24.706   6.600  0.00  0.00    +0.001 C 
ATOM      7  C   LIG    1       25.574 -23.204   6.940  0.00  0.00    -0.003 C 
ATOM      8  C   LIG    1       24.471 -22.780   7.938  0.00  0.00    +0.008 C 
ATOM      9  C   LIG    1       23.555 -21.557   7.598  0.00  0.00    +0.032 C 
ATOM     10  C   LIG    1       23.872 -20.695   6.395  0.00  0.00    -0.060 C 
ATOM     11  C   LIG    1       25.230 -20.897   5.748  0.00  0.00    -0.007 C 
ATOM     12  C   LIG    1       26.259 -20.200   6.675  0.00  0.00    +0.016 C 
ATOM     13  C   LIG    1       25.333 -20.189   4.357  0.00  0.00    +0.019 C 
ATOM     14  C   LIG    1       24.004 -20.122   3.615  0.00  0.00    +0.080 C 
ATOM     15  C   LIG    1       23.055 -19.350   4.481  0.00  0.00    +0.156 C 
ATOM     16  O   LIG    1       22.298 -18.516   4.048  0.00  0.00    -0.293 OA
ATOM     17  C   LIG    1       22.964 -19.822   5.903  0.00  0.00    +0.046 C 
ATOM     18  C   LIG    1       25.518 -22.423   5.593  0.00  0.00    +0.002 C 
ATOM     19  C   LIG    1       24.540 -23.087   4.596  0.00  0.00    +0.005 C 
ATOM     20  C   LIG    1       24.818 -24.545   4.313  0.00  0.00    +0.010 C 
ENDROOT
BRANCH   3  21
ATOM     21  O   LIG    1       26.522 -26.720   4.293  0.00  0.00    -0.391 OA
ATOM     22  H   LIG    1       26.131 -26.258   3.532  0.00  0.00    +0.210 HD
ENDBRANCH   3  21
TORSDOF 1
ENDMDL
MODEL 2
REMARK VINA RESULT:      -5.7      7.863      9.009
REMARK  Name = *****
REMARK                            x       y       z     vdW  Elec       q    Type
REMARK                         _______ _______ _______ _____ _____    ______ ____
ROOT
ATOM      1  C   LIG    1       24.113 -29.699   8.815  0.00  0.00    +0.014 C 
ATOM      2  C   LIG    1       25.414 -30.352   9.346  0.00  0.00    -0.003 C 
ATOM      3  C   LIG    1       25.914 -31.432   8.350  0.00  0.00    +0.121 C 
ATOM      4  C   LIG    1       25.260 -32.745   8.814  0.00  0.00    +0.032 C 
ATOM      5  C   LIG    1       24.425 -32.397  10.075  0.00  0.00    +0.007 C 
ATOM      6  C   LIG    1       25.182 -31.183  10.628  0.00  0.00    +0.001 C 
ATOM      7  C   LIG    1       24.835 -30.382  11.924  0.00  0.00    -0.003 C 
ATOM      8  C   LIG    1       23.409 -29.847  12.197  0.00  0.00    +0.008 C 
ATOM      9  C   LIG    1       23.226 -28.406  12.778  0.00  0.00    +0.032 C 
ATOM     10  C   LIG    1       24.438 -27.624  13.236  0.00  0.00    -0.060 C 
ATOM     11  C   LIG    1       25.738 -28.395  13.371  0.00  0.00    -0.007 C 
ATOM     12  C   LIG    1       25.619 -29.219  14.680  0.00  0.00    +0.016 C 
ATOM     13  C   LIG    1       26.971 -27.449  13.552  0.00  0.00    +0.019 C 
ATOM     14  C   LIG    1       26.811 -26.108  12.846  0.00  0.00    +0.080 C 
ATOM     15  C   LIG    1       25.601 -25.445  13.432  0.00  0.00    +0.156 C 
ATOM     16  O   LIG    1       25.564 -24.270  13.709  0.00  0.00    -0.293 OA
ATOM     17  C   LIG    1       24.364 -26.293  13.469  0.00  0.00    +0.046 C 
ATOM     18  C   LIG    1       25.943 -29.306  12.121  0.00  0.00    +0.002 C 
ATOM     19  C   LIG    1       26.151 -28.469  10.838  0.00  0.00    +0.005 C 
ATOM     20  C   LIG    1       26.458 -29.278   9.599  0.00  0.00    +0.010 C 
ENDROOT
BRANCH   3  21
ATOM     21  O   LIG    1       27.335 -31.601   8.385  0.00  0.00    -0.391 OA
ATOM     22  H   LIG    1       27.556 -32.251   9.074  0.00  0.00    +0.210 HD
ENDBRANCH   3  21
TORSDOF 1
ENDMDL
MODEL 3
REMARK VINA RESULT:      -5.5      8.389     10.240
REMARK  Name = *****
REMARK                            x       y       z     vdW  Elec       q    Type
REMARK                         _______ _______ _______ _____ _____    ______ ____
ROOT
ATOM      1  C   LIG    1       22.098 -28.250  15.431  0.00  0.00    +0.014 C 
ATOM      2  C   LIG    1       21.978 -27.747  13.971  0.00  0.00    -0.003 C 
ATOM      3  C   LIG    1       20.499 -27.815  13.503  0.00  0.00    +0.121 C 
ATOM      4  C   LIG    1       20.339 -29.205  12.864  0.00  0.00    +0.032 C 
ATOM      5  C   LIG    1       21.728 -29.891  12.955  0.00  0.00    +0.007 C 
ATOM      6  C   LIG    1       22.675 -28.685  12.960  0.00  0.00    +0.001 C 
ATOM      7  C   LIG    1       24.236 -28.729  13.013  0.00  0.00    -0.003 C 
ATOM      8  C   LIG    1       24.995 -29.561  14.074  0.00  0.00    +0.008 C 
ATOM      9  C   LIG    1       26.250 -28.948  14.778  0.00  0.00    +0.032 C 
ATOM     10  C   LIG    1       26.816 -27.632  14.289  0.00  0.00    -0.060 C 
ATOM     11  C   LIG    1       26.304 -27.122  12.954  0.00  0.00    -0.007 C 
ATOM     12  C   LIG    1       27.007 -27.974  11.866  0.00  0.00    +0.016 C 
ATOM     13  C   LIG    1       26.715 -25.636  12.692  0.00  0.00    +0.019 C 
ATOM     14  C   LIG    1       26.832 -24.808  13.966  0.00  0.00    +0.080 C 
ATOM     15  C   LIG    1       27.881 -25.458  14.817  0.00  0.00    +0.156 C 
ATOM     16  O   LIG    1       28.719 -24.833  15.421  0.00  0.00    -0.293 OA
ATOM     17  C   LIG    1       27.703 -26.933  15.033  0.00  0.00    +0.046 C 
ATOM     18  C   LIG    1       24.751 -27.264  12.898  0.00  0.00    +0.002 C 
ATOM     19  C   LIG    1       24.059 -26.341  13.928  0.00  0.00    +0.005 C 
ATOM     20  C   LIG    1       22.549 -26.344  13.866  0.00  0.00    +0.010 C 
ENDROOT
BRANCH   3  21
ATOM     21  O   LIG    1       20.187 -26.827  12.515  0.00  0.00    -0.391 OA
ATOM     22  H   LIG    1       19.262 -26.551  12.629  0.00  0.00    +0.210 HD
ENDBRANCH   3  21
TORSDOF 1
ENDMDL
MODEL 4
REMARK VINA RESULT:      -5.5      8.748     10.515
REMARK  Name = *****
REMARK                            x       y       z     vdW  Elec       q    Type
REMARK                         _______ _______ _______ _____ _____    ______ ____
ROOT
ATOM      1  C   LIG    1       25.618 -27.781  15.224  0.00  0.00    +0.014 C 
ATOM      2  C   LIG    1       25.539 -27.486  13.705  0.00  0.00    -0.003 C 
ATOM      3  C   LIG    1       26.940 -27.095  13.163  0.00  0.00    +0.121 C 
ATOM      4  C   LIG    1       27.011 -25.564  13.291  0.00  0.00    +0.032 C 
ATOM      5  C   LIG    1       25.647 -25.109  13.874  0.00  0.00    +0.007 C 
ATOM      6  C   LIG    1       24.710 -26.221  13.387  0.00  0.00    +0.001 C 
ATOM      7  C   LIG    1       23.170 -26.315  13.639  0.00  0.00    -0.003 C 
ATOM      8  C   LIG    1       22.562 -26.172  15.054  0.00  0.00    +0.008 C 
ATOM      9  C   LIG    1       21.415 -27.137  15.500  0.00  0.00    +0.032 C 
ATOM     10  C   LIG    1       20.788 -28.073  14.489  0.00  0.00    -0.060 C 
ATOM     11  C   LIG    1       21.115 -27.820  13.029  0.00  0.00    -0.007 C 
ATOM     12  C   LIG    1       20.270 -26.592  12.603  0.00  0.00    +0.016 C 
ATOM     13  C   LIG    1       20.672 -29.005  12.110  0.00  0.00    +0.019 C 
ATOM     14  C   LIG    1       20.729 -30.361  12.803  0.00  0.00    +0.080 C 
ATOM     15  C   LIG    1       19.806 -30.291  13.982  0.00  0.00    +0.156 C 
ATOM     16  O   LIG    1       19.058 -31.189  14.287  0.00  0.00    -0.293 OA
ATOM     17  C   LIG    1       20.011 -29.108  14.883  0.00  0.00    +0.046 C 
ATOM     18  C   LIG    1       22.645 -27.563  12.868  0.00  0.00    +0.002 C 
ATOM     19  C   LIG    1       23.471 -28.825  13.210  0.00  0.00    +0.005 C 
ATOM     20  C   LIG    1       24.958 -28.689  12.981  0.00  0.00    +0.010 C 
ENDROOT
BRANCH   3  21
ATOM     21  O   LIG    1       27.115 -27.441  11.785  0.00  0.00    -0.391 OA
ATOM     22  H   LIG    1       27.880 -26.954  11.435  0.00  0.00    +0.210 HD
ENDBRANCH   3  21
TORSDOF 1
ENDMDL
MODEL 5
REMARK VINA RESULT:      -5.2      8.433     10.460
REMARK  Name = *****
REMARK                            x       y       z     vdW  Elec       q    Type
REMARK                         _______ _______ _______ _____ _____    ______ ____
ROOT
ATOM      1  C   LIG    1       26.517 -28.264  14.529  0.00  0.00    +0.014 C 
ATOM      2  C   LIG    1       26.040 -27.310  13.404  0.00  0.00    -0.003 C 
ATOM      3  C   LIG    1       26.135 -25.835  13.880  0.00  0.00    +0.121 C 
ATOM      4  C   LIG    1       24.764 -25.522  14.502  0.00  0.00    +0.032 C 
ATOM      5  C   LIG    1       23.908 -26.807  14.347  0.00  0.00    +0.007 C 
ATOM      6  C   LIG    1       24.532 -27.452  13.104  0.00  0.00    +0.001 C 
ATOM      7  C   LIG    1       24.079 -28.784  12.421  0.00  0.00    -0.003 C 
ATOM      8  C   LIG    1       23.885 -30.090  13.227  0.00  0.00    +0.008 C 
ATOM      9  C   LIG    1       24.403 -31.442  12.635  0.00  0.00    +0.032 C 
ATOM     10  C   LIG    1       24.919 -31.489  11.213  0.00  0.00    -0.060 C 
ATOM     11  C   LIG    1       24.638 -30.277  10.344  0.00  0.00    -0.007 C 
ATOM     12  C   LIG    1       23.144 -30.372   9.938  0.00  0.00    +0.016 C 
ATOM     13  C   LIG    1       25.462 -30.299   9.014  0.00  0.00    +0.019 C 
ATOM     14  C   LIG    1       26.813 -30.989   9.153  0.00  0.00    +0.080 C 
ATOM     15  C   LIG    1       26.543 -32.401   9.579  0.00  0.00    +0.156 C 
ATOM     16  O   LIG    1       27.130 -33.351   9.119  0.00  0.00    -0.293 OA
ATOM     17  C   LIG    1       25.632 -32.547  10.762  0.00  0.00    +0.046 C 
ATOM     18  C   LIG    1       24.948 -28.973  11.143  0.00  0.00    +0.002 C 
ATOM     19  C   LIG    1       26.456 -28.848  11.462  0.00  0.00    +0.005 C 
ATOM     20  C   LIG    1       26.853 -27.560  12.145  0.00  0.00    +0.010 C 
ENDROOT
BRANCH   3  21
ATOM     21  O   LIG    1       26.360 -24.921  12.802  0.00  0.00    -0.391 OA
ATOM     22  H   LIG    1       25.689 -25.077  12.114  0.00  0.00    +0.210 HD
ENDBRANCH   3  21
TORSDOF 1
ENDMDL
MODEL 6
REMARK VINA RESULT:      -5.2      8.658      9.916
REMARK  Name = *****
REMARK                            x       y       z     vdW  Elec       q    Type
REMARK                         _______ _______ _______ _____ _____    ______ ____
ROOT
ATOM      1  C   LIG    1       25.161 -31.798  11.786  0.00  0.00    +0.014 C 
ATOM      2  C   LIG    1       24.909 -30.663  10.761  0.00  0.00    -0.003 C 
ATOM      3  C   LIG    1       25.617 -30.990   9.418  0.00  0.00    +0.121 C 
ATOM      4  C   LIG    1       27.014 -30.355   9.532  0.00  0.00    +0.032 C 
ATOM      5  C   LIG    1       27.068 -29.659  10.917  0.00  0.00    +0.007 C 
ATOM      6  C   LIG    1       25.589 -29.336  11.164  0.00  0.00    +0.001 C 
ATOM      7  C   LIG    1       24.994 -28.598  12.407  0.00  0.00    -0.003 C 
ATOM      8  C   LIG    1       25.329 -29.032  13.854  0.00  0.00    +0.008 C 
ATOM      9  C   LIG    1       24.190 -29.084  14.925  0.00  0.00    +0.032 C 
ATOM     10  C   LIG    1       22.819 -28.539  14.588  0.00  0.00    -0.060 C 
ATOM     11  C   LIG    1       22.705 -27.710  13.322  0.00  0.00    -0.007 C 
ATOM     12  C   LIG    1       23.312 -26.323  13.657  0.00  0.00    +0.016 C 
ATOM     13  C   LIG    1       21.217 -27.457  12.912  0.00  0.00    +0.019 C 
ATOM     14  C   LIG    1       20.281 -28.592  13.310  0.00  0.00    +0.080 C 
ATOM     15  C   LIG    1       20.357 -28.723  14.801  0.00  0.00    +0.156 C 
ATOM     16  O   LIG    1       19.386 -28.899  15.497  0.00  0.00    -0.293 OA
ATOM     17  C   LIG    1       21.746 -28.820  15.362  0.00  0.00    +0.046 C 
ATOM     18  C   LIG    1       23.466 -28.418  12.158  0.00  0.00    +0.002 C 
ATOM     19  C   LIG    1       22.796 -29.758  11.775  0.00  0.00    +0.005 C 
ATOM     20  C   LIG    1       23.415 -30.457  10.586  0.00  0.00    +0.010 C 
ENDROOT
BRANCH   3  21
ATOM     21  O   LIG    1       24.952 -30.416   8.290  0.00  0.00    -0.391 OA
ATOM     22  H   LIG    1       25.387 -29.575   8.063  0.00  0.00    +0.210 HD
ENDBRANCH   3  21
TORSDOF 1
ENDMDL
MODEL 7
REMARK VINA RESULT:      -5.2      8.813     11.383
REMARK  Name = *****
REMARK                            x       y       z     vdW  Elec       q    Type
REMARK                         _______ _______ _______ _____ _____    ______ ____
ROOT
ATOM      1  C   LIG    1       21.425 -27.651  15.500  0.00  0.00    +0.014 C 
ATOM      2  C   LIG    1       20.813 -27.578  14.078  0.00  0.00    -0.003 C 
ATOM      3  C   LIG    1       19.542 -26.688  14.089  0.00  0.00    +0.121 C 
ATOM      4  C   LIG    1       18.375 -27.653  14.363  0.00  0.00    +0.032 C 
ATOM      5  C   LIG    1       18.995 -29.071  14.476  0.00  0.00    +0.007 C 
ATOM      6  C   LIG    1       20.248 -28.936  13.603  0.00  0.00    +0.001 C 
ATOM      7  C   LIG    1       21.294 -30.058  13.298  0.00  0.00    -0.003 C 
ATOM      8  C   LIG    1       21.945 -30.896  14.424  0.00  0.00    +0.008 C 
ATOM      9  C   LIG    1       23.476 -31.208  14.361  0.00  0.00    +0.032 C 
ATOM     10  C   LIG    1       24.265 -30.849  13.120  0.00  0.00    -0.060 C 
ATOM     11  C   LIG    1       23.465 -30.463  11.890  0.00  0.00    -0.007 C 
ATOM     12  C   LIG    1       22.906 -31.787  11.305  0.00  0.00    +0.016 C 
ATOM     13  C   LIG    1       24.361 -29.828  10.777  0.00  0.00    +0.019 C 
ATOM     14  C   LIG    1       25.553 -29.057  11.330  0.00  0.00    +0.080 C 
ATOM     15  C   LIG    1       26.378 -30.030  12.118  0.00  0.00    +0.156 C 
ATOM     16  O   LIG    1       27.584 -30.063  12.068  0.00  0.00    -0.293 OA
ATOM     17  C   LIG    1       25.618 -30.834  13.132  0.00  0.00    +0.046 C 
ATOM     18  C   LIG    1       22.328 -29.473  12.291  0.00  0.00    +0.002 C 
ATOM     19  C   LIG    1       22.899 -28.125  12.788  0.00  0.00    +0.005 C 
ATOM     20  C   LIG    1       21.859 -27.073  13.098  0.00  0.00    +0.010 C 
ENDROOT
BRANCH   3  21
ATOM     21  O   LIG    1       19.308 -26.045  12.832  0.00  0.00    -0.391 OA
ATOM     22  H   LIG    1       18.443 -26.330  12.490  0.00  0.00    +0.210 HD
ENDBRANCH   3  21
TORSDOF 1
ENDMDL
MODEL 8
REMARK VINA RESULT:      -5.2      6.375      9.382
REMARK  Name = *****
REMARK                            x       y       z     vdW  Elec       q    Type
REMARK                         _______ _______ _______ _____ _____    ______ ____
ROOT
ATOM      1  C   LIG    1       22.639 -28.959  12.583  0.00  0.00    +0.014 C 
ATOM      2  C   LIG    1       22.571 -30.440  12.132  0.00  0.00    -0.003 C 
ATOM      3  C   LIG    1       21.624 -31.239  13.066  0.00  0.00    +0.121 C 
ATOM      4  C   LIG    1       22.527 -31.791  14.183  0.00  0.00    +0.032 C 
ATOM      5  C   LIG    1       23.969 -31.322  13.853  0.00  0.00    +0.007 C 
ATOM      6  C   LIG    1       23.912 -31.182  12.326  0.00  0.00    +0.001 C 
ATOM      7  C   LIG    1       25.088 -30.756  11.388  0.00  0.00    -0.003 C 
ATOM      8  C   LIG    1       25.928 -29.485  11.656  0.00  0.00    +0.008 C 
ATOM      9  C   LIG    1       26.312 -28.551  10.461  0.00  0.00    +0.032 C 
ATOM     10  C   LIG    1       26.018 -28.990   9.042  0.00  0.00    -0.060 C 
ATOM     11  C   LIG    1       25.625 -30.442   8.844  0.00  0.00    -0.007 C 
ATOM     12  C   LIG    1       26.935 -31.265   8.960  0.00  0.00    +0.016 C 
ATOM     13  C   LIG    1       25.057 -30.710   7.411  0.00  0.00    +0.019 C 
ATOM     14  C   LIG    1       24.329 -29.511   6.817  0.00  0.00    +0.080 C 
ATOM     15  C   LIG    1       25.320 -28.388   6.742  0.00  0.00    +0.156 C 
ATOM     16  O   LIG    1       25.409 -27.651   5.790  0.00  0.00    -0.293 OA
ATOM     17  C   LIG    1       26.065 -28.111   8.015  0.00  0.00    +0.046 C 
ATOM     18  C   LIG    1       24.574 -30.855   9.920  0.00  0.00    +0.002 C 
ATOM     19  C   LIG    1       23.243 -30.092   9.736  0.00  0.00    +0.005 C 
ATOM     20  C   LIG    1       22.138 -30.511  10.678  0.00  0.00    +0.010 C 
ENDROOT
BRANCH   3  21
ATOM     21  O   LIG    1       21.000 -32.344  12.405  0.00  0.00    -0.391 OA
ATOM     22  H   LIG    1       20.036 -32.264  12.502  0.00  0.00    +0.210 HD
ENDBRANCH   3  21
TORSDOF 1
ENDMDL
MODEL 9
REMARK VINA RESULT:      -5.1      7.487      9.662
REMARK  Name = *****
REMARK                            x       y       z     vdW  Elec       q    Type
REMARK                         _______ _______ _______ _____ _____    ______ ____
ROOT
ATOM      1  C   LIG    1       28.237 -29.481  11.780  0.00  0.00    +0.014 C 
ATOM      2  C   LIG    1       26.973 -28.586  11.834  0.00  0.00    -0.003 C 
ATOM      3  C   LIG    1       27.115 -27.528  12.962  0.00  0.00    +0.121 C 
ATOM      4  C   LIG    1       26.504 -28.184  14.212  0.00  0.00    +0.032 C 
ATOM      5  C   LIG    1       26.002 -29.585  13.771  0.00  0.00    +0.007 C 
ATOM      6  C   LIG    1       25.714 -29.361  12.281  0.00  0.00    +0.001 C 
ATOM      7  C   LIG    1       25.151 -30.416  11.275  0.00  0.00    -0.003 C 
ATOM      8  C   LIG    1       25.778 -31.823  11.129  0.00  0.00    +0.008 C 
ATOM      9  C   LIG    1       25.974 -32.434   9.702  0.00  0.00    +0.032 C 
ATOM     10  C   LIG    1       25.386 -31.729   8.498  0.00  0.00    -0.060 C 
ATOM     11  C   LIG    1       24.392 -30.616   8.776  0.00  0.00    -0.007 C 
ATOM     12  C   LIG    1       23.064 -31.311   9.175  0.00  0.00    +0.016 C 
ATOM     13  C   LIG    1       24.083 -29.768   7.499  0.00  0.00    +0.019 C 
ATOM     14  C   LIG    1       25.260 -29.678   6.535  0.00  0.00    +0.080 C 
ATOM     15  C   LIG    1       25.593 -31.079   6.117  0.00  0.00    +0.156 C 
ATOM     16  O   LIG    1       25.861 -31.379   4.978  0.00  0.00    -0.293 OA
ATOM     17  C   LIG    1       25.768 -32.055   7.242  0.00  0.00    +0.046 C 
ATOM     18  C   LIG    1       24.937 -29.695   9.911  0.00  0.00    +0.002 C 
ATOM     19  C   LIG    1       26.211 -28.940   9.467  0.00  0.00    +0.005 C 
ATOM     20  C   LIG    1       26.742 -27.947  10.475  0.00  0.00    +0.010 C 
ENDROOT
BRANCH   3  21
ATOM     21  O   LIG    1       26.391 -26.326  12.685  0.00  0.00    -0.391 OA
ATOM     22  H   LIG    1       25.482 -26.559  12.427  0.00  0.00    +0.210 HD
ENDBRANCH   3  21
TORSDOF 1
ENDMDL
