MODEL 1
REMARK VINA RESULT:      -7.7      0.000      0.000
REMARK  Name = *****
REMARK                            x       y       z     vdW  Elec       q    Type
REMARK                         _______ _______ _______ _____ _____    ______ ____
ROOT
ATOM      1  C   LIG    1       24.049 -22.581   7.003  0.00  0.00    -0.006 A 
ATOM      2  C   LIG    1       23.339 -23.740   6.664  0.00  0.00    +0.120 A 
ATOM      3  C   LIG    1       23.988 -24.957   6.433  0.00  0.00    +0.049 A 
ATOM      4  C   LIG    1       25.375 -25.057   6.565  0.00  0.00    -0.047 A 
ATOM      5  C   LIG    1       26.048 -26.383   6.370  0.00  0.00    +0.044 C 
ATOM      6  C   LIG    1       26.096 -23.925   6.947  0.00  0.00    +0.004 A 
ATOM      7  C   LIG    1       25.443 -22.703   7.158  0.00  0.00    +0.007 A 
ENDROOT
BRANCH   2   8
ATOM      8  O   LIG    1       21.976 -23.709   6.586  0.00  0.00    -0.506 OA
ATOM      9  H   LIG    1       21.711 -23.699   5.654  0.00  0.00    +0.292 HD
ENDBRANCH   2   8
BRANCH   1  10
ATOM     10  C   LIG    1       23.403 -21.238   7.291  0.00  0.00    +0.039 C 
BRANCH  10  11
ATOM     11  C   LIG    1       22.859 -20.470   6.079  0.00  0.00    +0.005 C 
BRANCH  11  12
ATOM     12  C   LIG    1       23.878 -20.345   4.943  0.00  0.00    +0.000 C 
BRANCH  12  14
ATOM     13  C   LIG    1       22.264 -18.452   4.364  0.00  0.00    +0.004 C 
ATOM     14  C   LIG    1       23.532 -19.201   3.982  0.00  0.00    -0.003 C 
ENDBRANCH  12  14
ENDBRANCH  11  12
ENDBRANCH  10  11
ENDBRANCH   1  10
TORSDOF 5
ENDMDL
MODEL 2
REMARK VINA RESULT:      -7.4      3.029      4.124
REMARK  Name = *****
REMARK                            x       y       z     vdW  Elec       q    Type
REMARK                         _______ _______ _______ _____ _____    ______ ____
ROOT
ATOM      1  C   LIG    1       25.450 -20.650   7.069  0.00  0.00    -0.006 A 
ATOM      2  C   LIG    1       26.318 -20.548   8.165  0.00  0.00    +0.120 A 
ATOM      3  C   LIG    1       27.679 -20.275   8.000  0.00  0.00    +0.049 A 
ATOM      4  C   LIG    1       28.211 -20.063   6.726  0.00  0.00    -0.047 A 
ATOM      5  C   LIG    1       29.661 -19.714   6.572  0.00  0.00    +0.044 C 
ATOM      6  C   LIG    1       27.355 -20.114   5.625  0.00  0.00    +0.004 A 
ATOM      7  C   LIG    1       25.995 -20.407   5.794  0.00  0.00    +0.007 A 
ENDROOT
BRANCH   2   8
ATOM      8  O   LIG    1       25.834 -20.683   9.434  0.00  0.00    -0.506 OA
ATOM      9  H   LIG    1       24.886 -20.880   9.394  0.00  0.00    +0.292 HD
ENDBRANCH   2   8
BRANCH   1  10
ATOM     10  C   LIG    1       23.960 -20.917   7.182  0.00  0.00    +0.039 C 
BRANCH  10  11
ATOM     11  C   LIG    1       23.331 -21.750   6.057  0.00  0.00    +0.005 C 
BRANCH  11  12
ATOM     12  C   LIG    1       22.443 -20.922   5.124  0.00  0.00    +0.000 C 
BRANCH  12  14
ATOM     13  C   LIG    1       22.337 -18.526   4.244  0.00  0.00    +0.004 C 
ATOM     14  C   LIG    1       22.489 -19.427   5.461  0.00  0.00    -0.003 C 
ENDBRANCH  12  14
ENDBRANCH  11  12
ENDBRANCH  10  11
ENDBRANCH   1  10
TORSDOF 5
ENDMDL
MODEL 3
REMARK VINA RESULT:      -7.4      2.952      4.877
REMARK  Name = *****
REMARK                            x       y       z     vdW  Elec       q    Type
REMARK                         _______ _______ _______ _____ _____    ______ ____
ROOT
ATOM      1  C   LIG    1       25.356 -20.681   7.075  0.00  0.00    -0.006 A 
ATOM      2  C   LIG    1       26.246 -20.563   8.152  0.00  0.00    +0.120 A 
ATOM      3  C   LIG    1       27.599 -20.270   7.957  0.00  0.00    +0.049 A 
ATOM      4  C   LIG    1       28.100 -20.054   6.671  0.00  0.00    -0.047 A 
ATOM      5  C   LIG    1       29.541 -19.684   6.485  0.00  0.00    +0.044 C 
ATOM      6  C   LIG    1       27.222 -20.121   5.589  0.00  0.00    +0.004 A 
ATOM      7  C   LIG    1       25.870 -20.435   5.788  0.00  0.00    +0.007 A 
ENDROOT
BRANCH   2   8
ATOM      8  O   LIG    1       25.791 -20.701   9.432  0.00  0.00    -0.506 OA
ATOM      9  H   LIG    1       24.995 -21.254   9.429  0.00  0.00    +0.292 HD
ENDBRANCH   2   8
BRANCH   1  10
ATOM     10  C   LIG    1       23.874 -20.971   7.221  0.00  0.00    +0.039 C 
BRANCH  10  11
ATOM     11  C   LIG    1       23.281 -21.996   6.244  0.00  0.00    +0.005 C 
BRANCH  11  12
ATOM     12  C   LIG    1       22.973 -23.343   6.905  0.00  0.00    +0.000 C 
BRANCH  12  14
ATOM     13  C   LIG    1       25.330 -24.320   6.793  0.00  0.00    +0.004 C 
ATOM     14  C   LIG    1       23.874 -24.464   6.374  0.00  0.00    -0.003 C 
ENDBRANCH  12  14
ENDBRANCH  11  12
ENDBRANCH  10  11
ENDBRANCH   1  10
TORSDOF 5
ENDMDL
MODEL 4
REMARK VINA RESULT:      -7.3      1.992      5.500
REMARK  Name = *****
REMARK                            x       y       z     vdW  Elec       q    Type
REMARK                         _______ _______ _______ _____ _____    ______ ____
ROOT
ATOM      1  C   LIG    1       25.175 -20.963   6.126  0.00  0.00    -0.006 A 
ATOM      2  C   LIG    1       25.362 -20.307   4.902  0.00  0.00    +0.120 A 
ATOM      3  C   LIG    1       24.318 -19.628   4.267  0.00  0.00    +0.049 A 
ATOM      4  C   LIG    1       23.054 -19.559   4.857  0.00  0.00    -0.047 A 
ATOM      5  C   LIG    1       21.962 -18.777   4.190  0.00  0.00    +0.044 C 
ATOM      6  C   LIG    1       22.858 -20.166   6.098  0.00  0.00    +0.004 A 
ATOM      7  C   LIG    1       23.903 -20.862   6.722  0.00  0.00    +0.007 A 
ENDROOT
BRANCH   2   8
ATOM      8  O   LIG    1       26.595 -20.291   4.317  0.00  0.00    -0.506 OA
ATOM      9  H   LIG    1       26.805 -19.386   4.042  0.00  0.00    +0.292 HD
ENDBRANCH   2   8
BRANCH   1  10
ATOM     10  C   LIG    1       26.271 -21.695   6.879  0.00  0.00    +0.039 C 
BRANCH  10  11
ATOM     11  C   LIG    1       25.864 -23.000   7.576  0.00  0.00    +0.005 C 
BRANCH  11  12
ATOM     12  C   LIG    1       25.747 -24.183   6.610  0.00  0.00    +0.000 C 
BRANCH  12  14
ATOM     13  C   LIG    1       24.188 -26.118   6.020  0.00  0.00    +0.004 C 
ATOM     14  C   LIG    1       24.299 -24.667   6.466  0.00  0.00    -0.003 C 
ENDBRANCH  12  14
ENDBRANCH  11  12
ENDBRANCH  10  11
ENDBRANCH   1  10
TORSDOF 5
ENDMDL
MODEL 5
REMARK VINA RESULT:      -7.2      1.379      1.912
REMARK  Name = *****
REMARK                            x       y       z     vdW  Elec       q    Type
REMARK                         _______ _______ _______ _____ _____    ______ ____
ROOT
ATOM      1  C   LIG    1       24.141 -22.451   7.065  0.00  0.00    -0.006 A 
ATOM      2  C   LIG    1       25.509 -22.753   7.097  0.00  0.00    +0.120 A 
ATOM      3  C   LIG    1       25.980 -24.049   6.866  0.00  0.00    +0.049 A 
ATOM      4  C   LIG    1       25.091 -25.083   6.563  0.00  0.00    -0.047 A 
ATOM      5  C   LIG    1       25.618 -26.454   6.260  0.00  0.00    +0.044 C 
ATOM      6  C   LIG    1       23.729 -24.794   6.479  0.00  0.00    +0.004 A 
ATOM      7  C   LIG    1       23.260 -23.497   6.731  0.00  0.00    +0.007 A 
ENDROOT
BRANCH   2   8
ATOM      8  O   LIG    1       26.422 -21.764   7.326  0.00  0.00    -0.506 OA
ATOM      9  H   LIG    1       27.115 -22.101   7.913  0.00  0.00    +0.292 HD
ENDBRANCH   2   8
BRANCH   1  10
ATOM     10  C   LIG    1       23.569 -21.062   7.281  0.00  0.00    +0.039 C 
BRANCH  10  11
ATOM     11  C   LIG    1       22.927 -20.392   6.057  0.00  0.00    +0.005 C 
BRANCH  11  12
ATOM     12  C   LIG    1       23.890 -20.262   4.873  0.00  0.00    +0.000 C 
BRANCH  12  14
ATOM     13  C   LIG    1       22.215 -18.406   4.350  0.00  0.00    +0.004 C 
ATOM     14  C   LIG    1       23.496 -19.114   3.935  0.00  0.00    -0.003 C 
ENDBRANCH  12  14
ENDBRANCH  11  12
ENDBRANCH  10  11
ENDBRANCH   1  10
TORSDOF 5
ENDMDL
MODEL 6
REMARK VINA RESULT:      -7.1      2.077      2.782
REMARK  Name = *****
REMARK                            x       y       z     vdW  Elec       q    Type
REMARK                         _______ _______ _______ _____ _____    ______ ____
ROOT
ATOM      1  C   LIG    1       24.465 -23.269   7.012  0.00  0.00    -0.006 A 
ATOM      2  C   LIG    1       23.491 -24.188   6.600  0.00  0.00    +0.120 A 
ATOM      3  C   LIG    1       23.834 -25.460   6.130  0.00  0.00    +0.049 A 
ATOM      4  C   LIG    1       25.170 -25.863   6.086  0.00  0.00    -0.047 A 
ATOM      5  C   LIG    1       25.515 -27.251   5.633  0.00  0.00    +0.044 C 
ATOM      6  C   LIG    1       26.153 -24.981   6.535  0.00  0.00    +0.004 A 
ATOM      7  C   LIG    1       25.806 -23.700   6.988  0.00  0.00    +0.007 A 
ENDROOT
BRANCH   2   8
ATOM      8  O   LIG    1       22.168 -23.864   6.684  0.00  0.00    -0.506 OA
ATOM      9  H   LIG    1       21.867 -23.530   5.825  0.00  0.00    +0.292 HD
ENDBRANCH   2   8
BRANCH   1  10
ATOM     10  C   LIG    1       24.159 -21.886   7.556  0.00  0.00    +0.039 C 
BRANCH  10  11
ATOM     11  C   LIG    1       25.171 -20.783   7.221  0.00  0.00    +0.005 C 
BRANCH  11  12
ATOM     12  C   LIG    1       26.152 -20.503   8.364  0.00  0.00    +0.000 C 
BRANCH  12  14
ATOM     13  C   LIG    1       27.701 -20.334   6.340  0.00  0.00    +0.004 C 
ATOM     14  C   LIG    1       27.585 -20.301   7.857  0.00  0.00    -0.003 C 
ENDBRANCH  12  14
ENDBRANCH  11  12
ENDBRANCH  10  11
ENDBRANCH   1  10
TORSDOF 5
ENDMDL
MODEL 7
REMARK VINA RESULT:      -7.1      2.980      4.893
REMARK  Name = *****
REMARK                            x       y       z     vdW  Elec       q    Type
REMARK                         _______ _______ _______ _____ _____    ______ ____
ROOT
ATOM      1  C   LIG    1       25.406 -20.597   6.462  0.00  0.00    -0.006 A 
ATOM      2  C   LIG    1       26.382 -20.291   5.504  0.00  0.00    +0.120 A 
ATOM      3  C   LIG    1       27.707 -20.026   5.865  0.00  0.00    +0.049 A 
ATOM      4  C   LIG    1       28.103 -20.088   7.204  0.00  0.00    -0.047 A 
ATOM      5  C   LIG    1       29.539 -19.857   7.567  0.00  0.00    +0.044 C 
ATOM      6  C   LIG    1       27.156 -20.436   8.168  0.00  0.00    +0.004 A 
ATOM      7  C   LIG    1       25.826 -20.683   7.803  0.00  0.00    +0.007 A 
ENDROOT
BRANCH   2   8
ATOM      8  O   LIG    1       26.059 -20.281   4.178  0.00  0.00    -0.506 OA
ATOM      9  H   LIG    1       26.866 -20.393   3.653  0.00  0.00    +0.292 HD
ENDBRANCH   2   8
BRANCH   1  10
ATOM     10  C   LIG    1       23.960 -20.921   6.133  0.00  0.00    +0.039 C 
BRANCH  10  11
ATOM     11  C   LIG    1       23.177 -21.698   7.200  0.00  0.00    +0.005 C 
BRANCH  11  12
ATOM     12  C   LIG    1       22.923 -23.158   6.811  0.00  0.00    +0.000 C 
BRANCH  12  14
ATOM     13  C   LIG    1       24.027 -25.372   6.176  0.00  0.00    +0.004 C 
ATOM     14  C   LIG    1       24.225 -23.963   6.716  0.00  0.00    -0.003 C 
ENDBRANCH  12  14
ENDBRANCH  11  12
ENDBRANCH  10  11
ENDBRANCH   1  10
TORSDOF 5
ENDMDL
MODEL 8
REMARK VINA RESULT:      -7.1      4.155      5.737
REMARK  Name = *****
REMARK                            x       y       z     vdW  Elec       q    Type
REMARK                         _______ _______ _______ _____ _____    ______ ____
ROOT
ATOM      1  C   LIG    1       26.725 -20.443   7.189  0.00  0.00    -0.006 A 
ATOM      2  C   LIG    1       25.627 -20.682   8.026  0.00  0.00    +0.120 A 
ATOM      3  C   LIG    1       24.329 -20.793   7.520  0.00  0.00    +0.049 A 
ATOM      4  C   LIG    1       24.092 -20.696   6.147  0.00  0.00    -0.047 A 
ATOM      5  C   LIG    1       22.702 -20.876   5.616  0.00  0.00    +0.044 C 
ATOM      6  C   LIG    1       25.178 -20.505   5.291  0.00  0.00    +0.004 A 
ATOM      7  C   LIG    1       26.475 -20.375   5.805  0.00  0.00    +0.007 A 
ENDROOT
BRANCH   2   8
ATOM      8  O   LIG    1       25.815 -20.847   9.368  0.00  0.00    -0.506 OA
ATOM      9  H   LIG    1       26.745 -21.061   9.536  0.00  0.00    +0.292 HD
ENDBRANCH   2   8
BRANCH   1  10
ATOM     10  C   LIG    1       28.160 -20.339   7.672  0.00  0.00    +0.039 C 
BRANCH  10  11
ATOM     11  C   LIG    1       29.212 -19.985   6.611  0.00  0.00    +0.005 C 
BRANCH  11  12
ATOM     12  C   LIG    1       29.883 -18.632   6.862  0.00  0.00    +0.000 C 
BRANCH  12  14
ATOM     13  C   LIG    1       30.229 -17.620   9.181  0.00  0.00    +0.004 C 
ATOM     14  C   LIG    1       30.713 -18.631   8.151  0.00  0.00    -0.003 C 
ENDBRANCH  12  14
ENDBRANCH  11  12
ENDBRANCH  10  11
ENDBRANCH   1  10
TORSDOF 5
ENDMDL
MODEL 9
REMARK VINA RESULT:      -7.0      3.186      5.683
REMARK  Name = *****
REMARK                            x       y       z     vdW  Elec       q    Type
REMARK                         _______ _______ _______ _____ _____    ______ ____
ROOT
ATOM      1  C   LIG    1       25.221 -20.934   6.122  0.00  0.00    -0.006 A 
ATOM      2  C   LIG    1       25.376 -20.313   4.875  0.00  0.00    +0.120 A 
ATOM      3  C   LIG    1       24.314 -19.659   4.244  0.00  0.00    +0.049 A 
ATOM      4  C   LIG    1       23.063 -19.580   4.860  0.00  0.00    -0.047 A 
ATOM      5  C   LIG    1       21.951 -18.825   4.194  0.00  0.00    +0.044 C 
ATOM      6  C   LIG    1       22.899 -20.151   6.122  0.00  0.00    +0.004 A 
ATOM      7  C   LIG    1       23.962 -20.822   6.742  0.00  0.00    +0.007 A 
ENDROOT
BRANCH   2   8
ATOM      8  O   LIG    1       26.596 -20.307   4.262  0.00  0.00    -0.506 OA
ATOM      9  H   LIG    1       26.645 -21.053   3.645  0.00  0.00    +0.292 HD
ENDBRANCH   2   8
BRANCH   1  10
ATOM     10  C   LIG    1       26.339 -21.636   6.871  0.00  0.00    +0.039 C 
BRANCH  10  11
ATOM     11  C   LIG    1       27.235 -20.747   7.745  0.00  0.00    +0.005 C 
BRANCH  11  12
ATOM     12  C   LIG    1       28.727 -20.922   7.444  0.00  0.00    +0.000 C 
BRANCH  12  14
ATOM     13  C   LIG    1       30.611 -19.315   6.818  0.00  0.00    +0.004 C 
ATOM     14  C   LIG    1       29.241 -19.870   6.454  0.00  0.00    -0.003 C 
ENDBRANCH  12  14
ENDBRANCH  11  12
ENDBRANCH  10  11
ENDBRANCH   1  10
TORSDOF 5
ENDMDL
