MODEL 1
REMARK VINA RESULT:      -7.6      0.000      0.000
REMARK  Name = *****
REMARK                            x       y       z     vdW  Elec       q    Type
REMARK                         _______ _______ _______ _____ _____    ______ ____
ROOT
ATOM      1  C   LIG    1       26.971 -29.026  11.840  0.00  0.00    +0.130 C 
ATOM      2  C   LIG    1       26.337 -30.349  11.372  0.00  0.00    +0.079 C 
ATOM      3  C   LIG    1       25.029 -30.126  10.606  0.00  0.00    +0.158 C 
ATOM      4  C   LIG    1       24.044 -29.462  11.560  0.00  0.00    +0.030 A 
ATOM      5  C   LIG    1       24.503 -28.468  12.457  0.00  0.00    +0.007 A 
ATOM      6  C   LIG    1       23.571 -27.760  13.232  0.00  0.00    +0.132 A 
ATOM      7  C   LIG    1       22.211 -28.100  13.234  0.00  0.00    +0.078 A 
ATOM      8  C   LIG    1       21.263 -27.366  14.088  0.00  0.00    +0.198 C 
ATOM      9  O   LIG    1       21.613 -26.323  14.633  0.00  0.00    -0.286 OA
ATOM     10  C   LIG    1       19.911 -27.911  14.305  0.00  0.00    +0.033 A 
ATOM     11  C   LIG    1       19.500 -29.041  13.615  0.00  0.00    +0.033 A 
ATOM     12  C   LIG    1       18.232 -29.596  13.897  0.00  0.00    +0.012 A 
ATOM     13  C   LIG    1       17.392 -28.994  14.834  0.00  0.00    +0.001 A 
ATOM     14  C   LIG    1       17.800 -27.837  15.500  0.00  0.00    +0.001 A 
ATOM     15  C   LIG    1       20.391 -29.670  12.621  0.00  0.00    +0.198 C 
ATOM     16  O   LIG    1       20.003 -30.623  11.946  0.00  0.00    -0.286 OA
ATOM     17  C   LIG    1       19.054 -27.293  15.239  0.00  0.00    +0.012 A 
ATOM     18  C   LIG    1       21.773 -29.188  12.466  0.00  0.00    +0.078 A 
ATOM     19  C   LIG    1       22.688 -29.829  11.602  0.00  0.00    +0.135 A 
ATOM     20  C   LIG    1       25.986 -28.245  12.725  0.00  0.00    +0.082 C 
ENDROOT
BRANCH   1  22
ATOM     21  C   LIG    1       28.269 -29.119  14.109  0.00  0.00    +0.089 C 
ATOM     22  C   LIG    1       28.270 -29.335  12.615  0.00  0.00    +0.162 C 
ATOM     23  O   LIG    1       29.301 -29.718  12.051  0.00  0.00    -0.295 OA
ENDBRANCH   1  22
BRANCH   1  24
ATOM     24  O   LIG    1       27.370 -28.194  10.745  0.00  0.00    -0.381 OA
ATOM     25  H   LIG    1       26.593 -28.100  10.156  0.00  0.00    +0.211 HD
ENDBRANCH   1  24
BRANCH   6  26
ATOM     26  O   LIG    1       24.057 -26.751  14.028  0.00  0.00    -0.506 OA
ATOM     27  H   LIG    1       25.040 -26.792  14.023  0.00  0.00    +0.292 HD
ENDBRANCH   6  26
BRANCH  19  28
ATOM     28  O   LIG    1       22.293 -30.889  10.819  0.00  0.00    -0.506 OA
ATOM     29  H   LIG    1       23.094 -31.329  10.454  0.00  0.00    +0.292 HD
ENDBRANCH  19  28
BRANCH   3  30
ATOM     30  O   LIG    1       25.174 -29.276   9.454  0.00  0.00    -0.343 OA
BRANCH  30  31
ATOM     31  C   LIG    1       24.783 -29.872   8.210  0.00  0.00    +0.253 C 
ATOM     32  O   LIG    1       25.636 -30.984   7.931  0.00  0.00    -0.346 OA
ATOM     33  C   LIG    1       25.351 -31.690   6.723  0.00  0.00    +0.148 C 
ATOM     34  C   LIG    1       24.067 -32.511   6.839  0.00  0.00    +0.040 C 
ATOM     35  C   LIG    1       25.466 -30.748   5.514  0.00  0.00    +0.160 C 
ATOM     36  C   LIG    1       24.702 -29.416   5.699  0.00  0.00    +0.087 C 
ATOM     37  C   LIG    1       24.963 -28.836   7.097  0.00  0.00    +0.082 C 
BRANCH  36  38
ATOM     38  N   LIG    1       23.262 -29.510   5.411  0.00  0.00    -0.325 NA
ATOM     39  H   LIG    1       22.830 -28.593   5.522  0.00  0.00    +0.119 HD
ATOM     40  H   LIG    1       23.068 -29.836   4.470  0.00  0.00    +0.119 HD
ENDBRANCH  36  38
BRANCH  35  41
ATOM     41  O   LIG    1       25.112 -31.391   4.289  0.00  0.00    -0.388 OA
ATOM     42  H   LIG    1       24.153 -31.540   4.296  0.00  0.00    +0.210 HD
ENDBRANCH  35  41
ENDBRANCH  30  31
ENDBRANCH   3  30
TORSDOF 8
ENDMDL
MODEL 2
REMARK VINA RESULT:      -6.8      1.429      1.856
REMARK  Name = *****
REMARK                            x       y       z     vdW  Elec       q    Type
REMARK                         _______ _______ _______ _____ _____    ______ ____
ROOT
ATOM      1  C   LIG    1       25.930 -29.300  12.331  0.00  0.00    +0.130 C 
ATOM      2  C   LIG    1       25.744 -30.656  11.626  0.00  0.00    +0.079 C 
ATOM      3  C   LIG    1       24.597 -30.628  10.610  0.00  0.00    +0.158 C 
ATOM      4  C   LIG    1       23.312 -30.331  11.373  0.00  0.00    +0.030 A 
ATOM      5  C   LIG    1       23.329 -29.388  12.429  0.00  0.00    +0.007 A 
ATOM      6  C   LIG    1       22.120 -29.012  13.033  0.00  0.00    +0.132 A 
ATOM      7  C   LIG    1       20.910 -29.642  12.705  0.00  0.00    +0.078 A 
ATOM      8  C   LIG    1       19.663 -29.255  13.384  0.00  0.00    +0.198 C 
ATOM      9  O   LIG    1       19.634 -28.242  14.078  0.00  0.00    -0.286 OA
ATOM     10  C   LIG    1       18.469 -30.109  13.250  0.00  0.00    +0.033 A 
ATOM     11  C   LIG    1       18.491 -31.200  12.395  0.00  0.00    +0.033 A 
ATOM     12  C   LIG    1       17.366 -32.053  12.342  0.00  0.00    +0.012 A 
ATOM     13  C   LIG    1       16.238 -31.782  13.114  0.00  0.00    +0.001 A 
ATOM     14  C   LIG    1       16.212 -30.662  13.948  0.00  0.00    +0.001 A 
ATOM     15  C   LIG    1       19.685 -31.479  11.575  0.00  0.00    +0.198 C 
ATOM     16  O   LIG    1       19.682 -32.396  10.754  0.00  0.00    -0.286 OA
ATOM     17  C   LIG    1       17.322 -29.825  14.018  0.00  0.00    +0.012 A 
ATOM     18  C   LIG    1       20.911 -30.688  11.771  0.00  0.00    +0.078 A 
ATOM     19  C   LIG    1       22.106 -30.991  11.082  0.00  0.00    +0.135 A 
ATOM     20  C   LIG    1       24.631 -28.881  13.037  0.00  0.00    +0.082 C 
ENDROOT
BRANCH   1  22
ATOM     21  C   LIG    1       27.432 -28.194  14.165  0.00  0.00    +0.089 C 
ATOM     22  C   LIG    1       27.088 -29.415  13.347  0.00  0.00    +0.162 C 
ATOM     23  O   LIG    1       27.748 -30.450  13.482  0.00  0.00    -0.295 OA
ENDBRANCH   1  22
BRANCH   1  24
ATOM     24  O   LIG    1       26.321 -28.263  11.424  0.00  0.00    -0.381 OA
ATOM     25  H   LIG    1       27.296 -28.187  11.476  0.00  0.00    +0.211 HD
ENDBRANCH   1  24
BRANCH   6  26
ATOM     26  O   LIG    1       22.178 -28.035  13.997  0.00  0.00    -0.506 OA
ATOM     27  H   LIG    1       21.825 -27.198  13.619  0.00  0.00    +0.292 HD
ENDBRANCH   6  26
BRANCH  19  28
ATOM     28  O   LIG    1       22.143 -31.998  10.146  0.00  0.00    -0.506 OA
ATOM     29  H   LIG    1       21.246 -32.396  10.073  0.00  0.00    +0.292 HD
ENDBRANCH  19  28
BRANCH   3  30
ATOM     30  O   LIG    1       24.753 -29.622   9.593  0.00  0.00    -0.343 OA
BRANCH  30  31
ATOM     31  C   LIG    1       24.471 -30.062   8.258  0.00  0.00    +0.253 C 
ATOM     32  O   LIG    1       25.297 -31.187   7.948  0.00  0.00    -0.346 OA
ATOM     33  C   LIG    1       25.111 -31.746   6.648  0.00  0.00    +0.148 C 
ATOM     34  C   LIG    1       23.786 -32.500   6.542  0.00  0.00    +0.040 C 
ATOM     35  C   LIG    1       25.400 -30.693   5.567  0.00  0.00    +0.160 C 
ATOM     36  C   LIG    1       24.683 -29.345   5.817  0.00  0.00    +0.087 C 
ATOM     37  C   LIG    1       24.818 -28.929   7.289  0.00  0.00    +0.082 C 
BRANCH  36  38
ATOM     38  N   LIG    1       23.279 -29.326   5.375  0.00  0.00    -0.325 NA
ATOM     39  H   LIG    1       23.099 -28.475   4.844  0.00  0.00    +0.119 HD
ATOM     40  H   LIG    1       23.039 -30.119   4.788  0.00  0.00    +0.119 HD
ENDBRANCH  36  38
BRANCH  35  41
ATOM     41  O   LIG    1       25.150 -31.184   4.250  0.00  0.00    -0.388 OA
ATOM     42  H   LIG    1       24.191 -31.167   4.101  0.00  0.00    +0.210 HD
ENDBRANCH  35  41
ENDBRANCH  30  31
ENDBRANCH   3  30
TORSDOF 8
ENDMDL
MODEL 3
REMARK VINA RESULT:      -6.2      2.352      5.495
REMARK  Name = *****
REMARK                            x       y       z     vdW  Elec       q    Type
REMARK                         _______ _______ _______ _____ _____    ______ ____
ROOT
ATOM      1  C   LIG    1       23.505 -32.043   8.787  0.00  0.00    +0.130 C 
ATOM      2  C   LIG    1       24.105 -30.637   8.972  0.00  0.00    +0.079 C 
ATOM      3  C   LIG    1       24.281 -30.271  10.449  0.00  0.00    +0.158 C 
ATOM      4  C   LIG    1       22.898 -30.264  11.090  0.00  0.00    +0.030 A 
ATOM      5  C   LIG    1       21.955 -31.255  10.726  0.00  0.00    +0.007 A 
ATOM      6  C   LIG    1       20.738 -31.332  11.421  0.00  0.00    +0.132 A 
ATOM      7  C   LIG    1       20.379 -30.372  12.378  0.00  0.00    +0.078 A 
ATOM      8  C   LIG    1       19.078 -30.455  13.061  0.00  0.00    +0.198 C 
ATOM      9  O   LIG    1       18.398 -31.472  12.958  0.00  0.00    -0.286 OA
ATOM     10  C   LIG    1       18.591 -29.300  13.836  0.00  0.00    +0.033 A 
ATOM     11  C   LIG    1       19.406 -28.193  14.015  0.00  0.00    +0.033 A 
ATOM     12  C   LIG    1       18.892 -27.063  14.690  0.00  0.00    +0.012 A 
ATOM     13  C   LIG    1       17.593 -27.075  15.197  0.00  0.00    +0.001 A 
ATOM     14  C   LIG    1       16.790 -28.206  15.041  0.00  0.00    +0.001 A 
ATOM     15  C   LIG    1       20.781 -28.188  13.482  0.00  0.00    +0.198 C 
ATOM     16  O   LIG    1       21.538 -27.244  13.708  0.00  0.00    -0.286 OA
ATOM     17  C   LIG    1       17.284 -29.318  14.364  0.00  0.00    +0.012 A 
ATOM     18  C   LIG    1       21.242 -29.297  12.631  0.00  0.00    +0.078 A 
ATOM     19  C   LIG    1       22.514 -29.279  12.016  0.00  0.00    +0.135 A 
ATOM     20  C   LIG    1       22.150 -32.145   9.505  0.00  0.00    +0.082 C 
ENDROOT
BRANCH   1  22
ATOM     21  C   LIG    1       22.935 -33.721   6.864  0.00  0.00    +0.089 C 
ATOM     22  C   LIG    1       23.345 -32.328   7.278  0.00  0.00    +0.162 C 
ATOM     23  O   LIG    1       23.569 -31.473   6.416  0.00  0.00    -0.295 OA
ENDBRANCH   1  22
BRANCH   1  24
ATOM     24  O   LIG    1       24.370 -33.073   9.280  0.00  0.00    -0.381 OA
ATOM     25  H   LIG    1       24.812 -33.473   8.504  0.00  0.00    +0.211 HD
ENDBRANCH   1  24
BRANCH   6  26
ATOM     26  O   LIG    1       19.890 -32.360  11.086  0.00  0.00    -0.506 OA
ATOM     27  H   LIG    1       19.669 -32.864  11.901  0.00  0.00    +0.292 HD
ENDBRANCH   6  26
BRANCH  19  28
ATOM     28  O   LIG    1       23.396 -28.251  12.252  0.00  0.00    -0.506 OA
ATOM     29  H   LIG    1       23.635 -28.251  13.207  0.00  0.00    +0.292 HD
ENDBRANCH  19  28
BRANCH   3  30
ATOM     30  O   LIG    1       25.104 -31.199  11.178  0.00  0.00    -0.343 OA
BRANCH  30  31
ATOM     31  C   LIG    1       26.196 -30.606  11.894  0.00  0.00    +0.253 C 
ATOM     32  O   LIG    1       25.720 -30.092  13.139  0.00  0.00    -0.346 OA
ATOM     33  C   LIG    1       26.708 -29.483  13.971  0.00  0.00    +0.148 C 
ATOM     34  C   LIG    1       27.645 -30.522  14.587  0.00  0.00    +0.040 C 
ATOM     35  C   LIG    1       27.365 -28.300  13.243  0.00  0.00    +0.160 C 
ATOM     36  C   LIG    1       27.828 -28.644  11.808  0.00  0.00    +0.087 C 
ATOM     37  C   LIG    1       26.742 -29.438  11.068  0.00  0.00    +0.082 C 
BRANCH  36  38
ATOM     38  N   LIG    1       29.131 -29.325  11.750  0.00  0.00    -0.325 NA
ATOM     39  H   LIG    1       29.118 -30.028  11.011  0.00  0.00    +0.119 HD
ATOM     40  H   LIG    1       29.901 -28.690  11.564  0.00  0.00    +0.119 HD
ENDBRANCH  36  38
BRANCH  35  41
ATOM     41  O   LIG    1       28.416 -27.709  14.006  0.00  0.00    -0.388 OA
ATOM     42  H   LIG    1       29.076 -28.397  14.192  0.00  0.00    +0.210 HD
ENDBRANCH  35  41
ENDBRANCH  30  31
ENDBRANCH   3  30
TORSDOF 8
ENDMDL
MODEL 4
REMARK VINA RESULT:      -6.2      2.744      7.479
REMARK  Name = *****
REMARK                            x       y       z     vdW  Elec       q    Type
REMARK                         _______ _______ _______ _____ _____    ______ ____
ROOT
ATOM      1  C   LIG    1       24.746 -26.670  13.973  0.00  0.00    +0.130 C 
ATOM      2  C   LIG    1       23.338 -26.726  13.354  0.00  0.00    +0.079 C 
ATOM      3  C   LIG    1       22.853 -28.164  13.144  0.00  0.00    +0.158 C 
ATOM      4  C   LIG    1       23.809 -28.834  12.164  0.00  0.00    +0.030 A 
ATOM      5  C   LIG    1       25.197 -28.574  12.254  0.00  0.00    +0.007 A 
ATOM      6  C   LIG    1       26.085 -29.300  11.446  0.00  0.00    +0.132 A 
ATOM      7  C   LIG    1       25.623 -30.184  10.460  0.00  0.00    +0.078 A 
ATOM      8  C   LIG    1       26.577 -30.901   9.599  0.00  0.00    +0.198 C 
ATOM      9  O   LIG    1       27.773 -30.897   9.877  0.00  0.00    -0.286 OA
ATOM     10  C   LIG    1       26.088 -31.590   8.392  0.00  0.00    +0.033 A 
ATOM     11  C   LIG    1       24.727 -31.660   8.138  0.00  0.00    +0.033 A 
ATOM     12  C   LIG    1       24.282 -32.253   6.935  0.00  0.00    +0.012 A 
ATOM     13  C   LIG    1       25.199 -32.789   6.031  0.00  0.00    +0.001 A 
ATOM     14  C   LIG    1       26.566 -32.743   6.310  0.00  0.00    +0.001 A 
ATOM     15  C   LIG    1       23.761 -31.097   9.100  0.00  0.00    +0.198 C 
ATOM     16  O   LIG    1       22.550 -31.228   8.922  0.00  0.00    -0.286 OA
ATOM     17  C   LIG    1       27.013 -32.148   7.487  0.00  0.00    +0.012 A 
ATOM     18  C   LIG    1       24.243 -30.328  10.259  0.00  0.00    +0.078 A 
ATOM     19  C   LIG    1       23.350 -29.685  11.144  0.00  0.00    +0.135 A 
ATOM     20  C   LIG    1       25.750 -27.424  13.087  0.00  0.00    +0.082 C 
ENDROOT
BRANCH   1  22
ATOM     21  C   LIG    1       24.781 -24.487  15.414  0.00  0.00    +0.089 C 
ATOM     22  C   LIG    1       25.167 -25.193  14.136  0.00  0.00    +0.162 C 
ATOM     23  O   LIG    1       25.772 -24.576  13.253  0.00  0.00    -0.295 OA
ENDBRANCH   1  22
BRANCH   1  24
ATOM     24  O   LIG    1       24.784 -27.224  15.293  0.00  0.00    -0.381 OA
ATOM     25  H   LIG    1       24.019 -27.829  15.374  0.00  0.00    +0.211 HD
ENDBRANCH   1  24
BRANCH   6  26
ATOM     26  O   LIG    1       27.427 -29.069  11.626  0.00  0.00    -0.506 OA
ATOM     27  H   LIG    1       27.592 -28.101  11.560  0.00  0.00    +0.292 HD
ENDBRANCH   6  26
BRANCH  19  28
ATOM     28  O   LIG    1       21.990 -29.817  10.991  0.00  0.00    -0.506 OA
ATOM     29  H   LIG    1       21.714 -30.695  11.340  0.00  0.00    +0.292 HD
ENDBRANCH  19  28
BRANCH   3  30
ATOM     30  O   LIG    1       22.834 -28.947  14.352  0.00  0.00    -0.343 OA
BRANCH  30  31
ATOM     31  C   LIG    1       21.609 -29.650  14.597  0.00  0.00    +0.253 C 
ATOM     32  O   LIG    1       21.631 -30.895  13.894  0.00  0.00    -0.346 OA
ATOM     33  C   LIG    1       20.475 -31.715  14.061  0.00  0.00    +0.148 C 
ATOM     34  C   LIG    1       20.417 -32.333  15.458  0.00  0.00    +0.040 C 
ATOM     35  C   LIG    1       19.219 -30.973  13.577  0.00  0.00    +0.160 C 
ATOM     36  C   LIG    1       19.099 -29.538  14.141  0.00  0.00    +0.087 C 
ATOM     37  C   LIG    1       20.449 -28.812  14.054  0.00  0.00    +0.082 C 
BRANCH  36  38
ATOM     38  N   LIG    1       18.538 -29.476  15.500  0.00  0.00    -0.325 NA
ATOM     39  H   LIG    1       17.543 -29.257  15.450  0.00  0.00    +0.119 HD
ATOM     40  H   LIG    1       18.642 -30.348  16.009  0.00  0.00    +0.119 HD
ENDBRANCH  36  38
BRANCH  35  41
ATOM     41  O   LIG    1       18.025 -31.724  13.797  0.00  0.00    -0.388 OA
ATOM     42  H   LIG    1       17.694 -32.021  12.934  0.00  0.00    +0.210 HD
ENDBRANCH  35  41
ENDBRANCH  30  31
ENDBRANCH   3  30
TORSDOF 8
ENDMDL
MODEL 5
REMARK VINA RESULT:      -6.1      2.873      7.873
REMARK  Name = *****
REMARK                            x       y       z     vdW  Elec       q    Type
REMARK                         _______ _______ _______ _____ _____    ______ ____
ROOT
ATOM      1  C   LIG    1       22.978 -27.965  13.811  0.00  0.00    +0.130 C 
ATOM      2  C   LIG    1       21.786 -28.049  12.840  0.00  0.00    +0.079 C 
ATOM      3  C   LIG    1       21.533 -29.480  12.354  0.00  0.00    +0.158 C 
ATOM      4  C   LIG    1       22.774 -29.935  11.594  0.00  0.00    +0.030 A 
ATOM      5  C   LIG    1       24.057 -29.579  12.075  0.00  0.00    +0.007 A 
ATOM      6  C   LIG    1       25.195 -30.117  11.455  0.00  0.00    +0.132 A 
ATOM      7  C   LIG    1       25.097 -30.895  10.292  0.00  0.00    +0.078 A 
ATOM      8  C   LIG    1       26.312 -31.412   9.640  0.00  0.00    +0.198 C 
ATOM      9  O   LIG    1       27.391 -31.350  10.222  0.00  0.00    -0.286 OA
ATOM     10  C   LIG    1       26.222 -31.969   8.279  0.00  0.00    +0.033 A 
ATOM     11  C   LIG    1       24.986 -32.112   7.669  0.00  0.00    +0.033 A 
ATOM     12  C   LIG    1       24.927 -32.571   6.334  0.00  0.00    +0.012 A 
ATOM     13  C   LIG    1       26.096 -32.907   5.651  0.00  0.00    +0.001 A 
ATOM     14  C   LIG    1       27.335 -32.791   6.284  0.00  0.00    +0.001 A 
ATOM     15  C   LIG    1       23.752 -31.762   8.398  0.00  0.00    +0.198 C 
ATOM     16  O   LIG    1       22.647 -31.964   7.894  0.00  0.00    -0.286 OA
ATOM     17  C   LIG    1       27.402 -32.325   7.594  0.00  0.00    +0.012 A 
ATOM     18  C   LIG    1       23.838 -31.120   9.719  0.00  0.00    +0.078 A 
ATOM     19  C   LIG    1       22.685 -30.675  10.402  0.00  0.00    +0.135 A 
ATOM     20  C   LIG    1       24.251 -28.512  13.145  0.00  0.00    +0.082 C 
ENDROOT
BRANCH   1  22
ATOM     21  C   LIG    1       24.320 -25.729  13.619  0.00  0.00    +0.089 C 
ATOM     22  C   LIG    1       23.177 -26.495  14.239  0.00  0.00    +0.162 C 
ATOM     23  O   LIG    1       22.459 -25.949  15.083  0.00  0.00    -0.295 OA
ENDBRANCH   1  22
BRANCH   1  24
ATOM     24  O   LIG    1       22.744 -28.687  15.026  0.00  0.00    -0.381 OA
ATOM     25  H   LIG    1       22.192 -29.463  14.798  0.00  0.00    +0.211 HD
ENDBRANCH   1  24
BRANCH   6  26
ATOM     26  O   LIG    1       26.414 -29.807  12.007  0.00  0.00    -0.506 OA
ATOM     27  H   LIG    1       26.594 -28.852  11.856  0.00  0.00    +0.292 HD
ENDBRANCH   6  26
BRANCH  19  28
ATOM     28  O   LIG    1       21.430 -30.892   9.882  0.00  0.00    -0.506 OA
ATOM     29  H   LIG    1       21.487 -31.603   9.204  0.00  0.00    +0.292 HD
ENDBRANCH  19  28
BRANCH   3  30
ATOM     30  O   LIG    1       21.298 -30.417  13.421  0.00  0.00    -0.343 OA
BRANCH  30  31
ATOM     31  C   LIG    1       19.992 -31.008  13.430  0.00  0.00    +0.253 C 
ATOM     32  O   LIG    1       19.482 -31.044  12.096  0.00  0.00    -0.346 OA
ATOM     33  C   LIG    1       18.187 -31.626  11.948  0.00  0.00    +0.148 C 
ATOM     34  C   LIG    1       18.224 -33.143  12.136  0.00  0.00    +0.040 C 
ATOM     35  C   LIG    1       17.154 -30.849  12.780  0.00  0.00    +0.160 C 
ATOM     36  C   LIG    1       17.605 -30.597  14.237  0.00  0.00    +0.087 C 
ATOM     37  C   LIG    1       19.066 -30.128  14.275  0.00  0.00    +0.082 C 
BRANCH  36  38
ATOM     38  N   LIG    1       17.379 -31.740  15.137  0.00  0.00    -0.325 NA
ATOM     39  H   LIG    1       16.809 -32.441  14.664  0.00  0.00    +0.119 HD
ATOM     40  H   LIG    1       18.242 -32.185  15.433  0.00  0.00    +0.119 HD
ENDBRANCH  36  38
BRANCH  35  41
ATOM     41  O   LIG    1       15.856 -31.443  12.727  0.00  0.00    -0.388 OA
ATOM     42  H   LIG    1       15.464 -31.228  11.865  0.00  0.00    +0.210 HD
ENDBRANCH  35  41
ENDBRANCH  30  31
ENDBRANCH   3  30
TORSDOF 8
ENDMDL
MODEL 6
REMARK VINA RESULT:      -5.9      2.749      6.001
REMARK  Name = *****
REMARK                            x       y       z     vdW  Elec       q    Type
REMARK                         _______ _______ _______ _____ _____    ______ ____
ROOT
ATOM      1  C   LIG    1       25.293 -30.656   7.434  0.00  0.00    +0.130 C 
ATOM      2  C   LIG    1       25.167 -29.372   8.273  0.00  0.00    +0.079 C 
ATOM      3  C   LIG    1       24.952 -29.670   9.760  0.00  0.00    +0.158 C 
ATOM      4  C   LIG    1       23.638 -30.431   9.892  0.00  0.00    +0.030 A 
ATOM      5  C   LIG    1       23.300 -31.413   8.930  0.00  0.00    +0.007 A 
ATOM      6  C   LIG    1       22.163 -32.209   9.132  0.00  0.00    +0.132 A 
ATOM      7  C   LIG    1       21.281 -31.971  10.197  0.00  0.00    +0.078 A 
ATOM      8  C   LIG    1       20.074 -32.796  10.361  0.00  0.00    +0.198 C 
ATOM      9  O   LIG    1       19.943 -33.825   9.702  0.00  0.00    -0.286 OA
ATOM     10  C   LIG    1       19.018 -32.360  11.291  0.00  0.00    +0.033 A 
ATOM     11  C   LIG    1       19.216 -31.244  12.090  0.00  0.00    +0.033 A 
ATOM     12  C   LIG    1       18.162 -30.793  12.915  0.00  0.00    +0.012 A 
ATOM     13  C   LIG    1       16.949 -31.481  12.948  0.00  0.00    +0.001 A 
ATOM     14  C   LIG    1       16.769 -32.622  12.165  0.00  0.00    +0.001 A 
ATOM     15  C   LIG    1       20.504 -30.524  12.055  0.00  0.00    +0.198 C 
ATOM     16  O   LIG    1       20.717 -29.585  12.821  0.00  0.00    -0.286 OA
ATOM     17  C   LIG    1       17.798 -33.065  11.338  0.00  0.00    +0.012 A 
ATOM     18  C   LIG    1       21.526 -30.897  11.065  0.00  0.00    +0.078 A 
ATOM     19  C   LIG    1       22.727 -30.167  10.930  0.00  0.00    +0.135 A 
ATOM     20  C   LIG    1       24.042 -31.532   7.604  0.00  0.00    +0.082 C 
ENDROOT
BRANCH   1  22
ATOM     21  C   LIG    1       25.131 -28.867   5.533  0.00  0.00    +0.089 C 
ATOM     22  C   LIG    1       25.491 -30.272   5.951  0.00  0.00    +0.162 C 
ATOM     23  O   LIG    1       25.897 -31.078   5.108  0.00  0.00    -0.295 OA
ENDBRANCH   1  22
BRANCH   1  24
ATOM     24  O   LIG    1       26.449 -31.426   7.785  0.00  0.00    -0.381 OA
ATOM     25  H   LIG    1       26.546 -31.373   8.757  0.00  0.00    +0.211 HD
ENDBRANCH   1  24
BRANCH   6  26
ATOM     26  O   LIG    1       21.921 -33.201   8.213  0.00  0.00    -0.506 OA
ATOM     27  H   LIG    1       22.450 -33.993   8.458  0.00  0.00    +0.292 HD
ENDBRANCH   6  26
BRANCH  19  28
ATOM     28  O   LIG    1       23.012 -29.118  11.773  0.00  0.00    -0.506 OA
ATOM     29  H   LIG    1       22.324 -29.080  12.475  0.00  0.00    +0.292 HD
ENDBRANCH  19  28
BRANCH   3  30
ATOM     30  O   LIG    1       25.992 -30.475  10.343  0.00  0.00    -0.343 OA
BRANCH  30  31
ATOM     31  C   LIG    1       26.413 -30.065  11.651  0.00  0.00    +0.253 C 
ATOM     32  O   LIG    1       25.479 -30.545  12.620  0.00  0.00    -0.346 OA
ATOM     33  C   LIG    1       25.781 -30.225  13.977  0.00  0.00    +0.148 C 
ATOM     34  C   LIG    1       26.967 -31.037  14.498  0.00  0.00    +0.040 C 
ATOM     35  C   LIG    1       25.848 -28.700  14.165  0.00  0.00    +0.160 C 
ATOM     36  C   LIG    1       26.722 -27.990  13.106  0.00  0.00    +0.087 C 
ATOM     37  C   LIG    1       26.418 -28.535  11.703  0.00  0.00    +0.082 C 
BRANCH  36  38
ATOM     38  N   LIG    1       28.163 -28.028  13.401  0.00  0.00    -0.325 NA
ATOM     39  H   LIG    1       28.319 -27.792  14.381  0.00  0.00    +0.119 HD
ATOM     40  H   LIG    1       28.578 -28.938  13.228  0.00  0.00    +0.119 HD
ENDBRANCH  36  38
BRANCH  35  41
ATOM     41  O   LIG    1       26.226 -28.332  15.491  0.00  0.00    -0.388 OA
ATOM     42  H   LIG    1       26.686 -27.478  15.446  0.00  0.00    +0.210 HD
ENDBRANCH  35  41
ENDBRANCH  30  31
ENDBRANCH   3  30
TORSDOF 8
ENDMDL
MODEL 7
REMARK VINA RESULT:      -5.8      1.664      2.185
REMARK  Name = *****
REMARK                            x       y       z     vdW  Elec       q    Type
REMARK                         _______ _______ _______ _____ _____    ______ ____
ROOT
ATOM      1  C   LIG    1       25.468 -29.386  11.328  0.00  0.00    +0.130 C 
ATOM      2  C   LIG    1       25.012 -30.845  11.147  0.00  0.00    +0.079 C 
ATOM      3  C   LIG    1       23.642 -30.945  10.469  0.00  0.00    +0.158 C 
ATOM      4  C   LIG    1       22.627 -30.259  11.377  0.00  0.00    +0.030 A 
ATOM      5  C   LIG    1       22.986 -29.066  12.049  0.00  0.00    +0.007 A 
ATOM      6  C   LIG    1       22.007 -28.363  12.768  0.00  0.00    +0.132 A 
ATOM      7  C   LIG    1       20.715 -28.879  12.944  0.00  0.00    +0.078 A 
ATOM      8  C   LIG    1       19.721 -28.139  13.738  0.00  0.00    +0.198 C 
ATOM      9  O   LIG    1       19.945 -26.977  14.067  0.00  0.00    -0.286 OA
ATOM     10  C   LIG    1       18.481 -28.814  14.160  0.00  0.00    +0.033 A 
ATOM     11  C   LIG    1       18.203 -30.096  13.710  0.00  0.00    +0.033 A 
ATOM     12  C   LIG    1       17.051 -30.757  14.189  0.00  0.00    +0.012 A 
ATOM     13  C   LIG    1       16.188 -30.117  15.077  0.00  0.00    +0.001 A 
ATOM     14  C   LIG    1       16.458 -28.814  15.500  0.00  0.00    +0.001 A 
ATOM     15  C   LIG    1       19.116 -30.766  12.765  0.00  0.00    +0.198 C 
ATOM     16  O   LIG    1       18.834 -31.869  12.297  0.00  0.00    -0.286 OA
ATOM     17  C   LIG    1       17.599 -28.160  15.044  0.00  0.00    +0.012 A 
ATOM     18  C   LIG    1       20.399 -30.138  12.413  0.00  0.00    +0.078 A 
ATOM     19  C   LIG    1       21.346 -30.794  11.595  0.00  0.00    +0.135 A 
ATOM     20  C   LIG    1       24.433 -28.599  12.148  0.00  0.00    +0.082 C 
ENDROOT
BRANCH   1  22
ATOM     21  C   LIG    1       27.481 -28.030  12.302  0.00  0.00    +0.089 C 
ATOM     22  C   LIG    1       26.843 -29.371  12.030  0.00  0.00    +0.162 C 
ATOM     23  O   LIG    1       27.438 -30.407  12.340  0.00  0.00    -0.295 OA
ENDBRANCH   1  22
BRANCH   1  24
ATOM     24  O   LIG    1       25.672 -28.719  10.077  0.00  0.00    -0.381 OA
ATOM     25  H   LIG    1       26.211 -27.923  10.259  0.00  0.00    +0.211 HD
ENDBRANCH   1  24
BRANCH   6  26
ATOM     26  O   LIG    1       22.384 -27.170  13.336  0.00  0.00    -0.506 OA
ATOM     27  H   LIG    1       23.334 -27.227  13.586  0.00  0.00    +0.292 HD
ENDBRANCH   6  26
BRANCH  19  28
ATOM     28  O   LIG    1       21.067 -32.021  11.041  0.00  0.00    -0.506 OA
ATOM     29  H   LIG    1       20.928 -32.672  11.765  0.00  0.00    +0.292 HD
ENDBRANCH  19  28
BRANCH   3  30
ATOM     30  O   LIG    1       23.588 -30.305   9.181  0.00  0.00    -0.343 OA
BRANCH  30  31
ATOM     31  C   LIG    1       24.137 -31.072   8.101  0.00  0.00    +0.253 C 
ATOM     32  O   LIG    1       23.643 -30.562   6.861  0.00  0.00    -0.346 OA
ATOM     33  C   LIG    1       24.122 -31.223   5.690  0.00  0.00    +0.148 C 
ATOM     34  C   LIG    1       25.589 -30.892   5.415  0.00  0.00    +0.040 C 
ATOM     35  C   LIG    1       23.740 -32.711   5.722  0.00  0.00    +0.160 C 
ATOM     36  C   LIG    1       24.086 -33.404   7.061  0.00  0.00    +0.087 C 
ATOM     37  C   LIG    1       23.667 -32.522   8.246  0.00  0.00    +0.082 C 
BRANCH  36  38
ATOM     38  N   LIG    1       25.491 -33.824   7.170  0.00  0.00    -0.325 NA
ATOM     39  H   LIG    1       26.087 -33.161   6.673  0.00  0.00    +0.119 HD
ATOM     40  H   LIG    1       25.815 -33.877   8.130  0.00  0.00    +0.119 HD
ENDBRANCH  36  38
BRANCH  35  41
ATOM     41  O   LIG    1       24.267 -33.431   4.608  0.00  0.00    -0.388 OA
ATOM     42  H   LIG    1       23.627 -33.368   3.881  0.00  0.00    +0.210 HD
ENDBRANCH  35  41
ENDBRANCH  30  31
ENDBRANCH   3  30
TORSDOF 8
ENDMDL
MODEL 8
REMARK VINA RESULT:      -5.3      7.464     10.924
REMARK  Name = *****
REMARK                            x       y       z     vdW  Elec       q    Type
REMARK                         _______ _______ _______ _____ _____    ______ ____
ROOT
ATOM      1  C   LIG    1       24.689 -20.306   4.932  0.00  0.00    +0.130 C 
ATOM      2  C   LIG    1       24.820 -20.350   6.466  0.00  0.00    +0.079 C 
ATOM      3  C   LIG    1       25.999 -21.215   6.922  0.00  0.00    +0.158 C 
ATOM      4  C   LIG    1       25.738 -22.639   6.445  0.00  0.00    +0.030 A 
ATOM      5  C   LIG    1       25.171 -22.854   5.166  0.00  0.00    +0.007 A 
ATOM      6  C   LIG    1       25.065 -24.164   4.674  0.00  0.00    +0.132 A 
ATOM      7  C   LIG    1       25.388 -25.274   5.469  0.00  0.00    +0.078 A 
ATOM      8  C   LIG    1       25.227 -26.638   4.940  0.00  0.00    +0.198 C 
ATOM      9  O   LIG    1       25.020 -26.808   3.742  0.00  0.00    -0.286 OA
ATOM     10  C   LIG    1       25.285 -27.785   5.864  0.00  0.00    +0.033 A 
ATOM     11  C   LIG    1       25.605 -27.585   7.198  0.00  0.00    +0.033 A 
ATOM     12  C   LIG    1       25.575 -28.684   8.084  0.00  0.00    +0.012 A 
ATOM     13  C   LIG    1       25.259 -29.959   7.617  0.00  0.00    +0.001 A 
ATOM     14  C   LIG    1       24.969 -30.158   6.265  0.00  0.00    +0.001 A 
ATOM     15  C   LIG    1       25.945 -26.234   7.686  0.00  0.00    +0.198 C 
ATOM     16  O   LIG    1       26.310 -26.062   8.849  0.00  0.00    -0.286 OA
ATOM     17  C   LIG    1       24.982 -29.077   5.388  0.00  0.00    +0.012 A 
ATOM     18  C   LIG    1       25.800 -25.074   6.794  0.00  0.00    +0.078 A 
ATOM     19  C   LIG    1       26.015 -23.755   7.253  0.00  0.00    +0.135 A 
ATOM     20  C   LIG    1       24.531 -21.726   4.367  0.00  0.00    +0.082 C 
ENDROOT
BRANCH   1  22
ATOM     21  C   LIG    1       22.108 -19.885   5.017  0.00  0.00    +0.089 C 
ATOM     22  C   LIG    1       23.473 -19.432   4.555  0.00  0.00    +0.162 C 
ATOM     23  O   LIG    1       23.580 -18.409   3.872  0.00  0.00    -0.295 OA
ENDBRANCH   1  22
BRANCH   1  24
ATOM     24  O   LIG    1       25.815 -19.680   4.306  0.00  0.00    -0.381 OA
ATOM     25  H   LIG    1       25.731 -19.833   3.343  0.00  0.00    +0.211 HD
ENDBRANCH   1  24
BRANCH   6  26
ATOM     26  O   LIG    1       24.583 -24.316   3.397  0.00  0.00    -0.506 OA
ATOM     27  H   LIG    1       23.847 -24.969   3.414  0.00  0.00    +0.292 HD
ENDBRANCH   6  26
BRANCH  19  28
ATOM     28  O   LIG    1       26.437 -23.518   8.540  0.00  0.00    -0.506 OA
ATOM     29  H   LIG    1       27.376 -23.224   8.517  0.00  0.00    +0.292 HD
ENDBRANCH  19  28
BRANCH   3  30
ATOM     30  O   LIG    1       27.265 -20.792   6.385  0.00  0.00    -0.343 OA
BRANCH  30  31
ATOM     31  C   LIG    1       28.283 -20.540   7.363  0.00  0.00    +0.253 C 
ATOM     32  O   LIG    1       28.956 -19.321   7.040  0.00  0.00    -0.346 OA
ATOM     33  C   LIG    1       29.991 -18.932   7.943  0.00  0.00    +0.148 C 
ATOM     34  C   LIG    1       29.423 -18.442   9.275  0.00  0.00    +0.040 C 
ATOM     35  C   LIG    1       31.078 -20.017   8.010  0.00  0.00    +0.160 C 
ATOM     36  C   LIG    1       30.512 -21.440   8.224  0.00  0.00    +0.087 C 
ATOM     37  C   LIG    1       29.302 -21.681   7.309  0.00  0.00    +0.082 C 
BRANCH  36  38
ATOM     38  N   LIG    1       30.201 -21.752   9.628  0.00  0.00    -0.325 NA
ATOM     39  H   LIG    1       29.233 -21.499   9.829  0.00  0.00    +0.119 HD
ATOM     40  H   LIG    1       30.320 -22.736   9.849  0.00  0.00    +0.119 HD
ENDBRANCH  36  38
BRANCH  35  41
ATOM     41  O   LIG    1       32.096 -19.708   8.962  0.00  0.00    -0.388 OA
ATOM     42  H   LIG    1       32.729 -20.444   8.972  0.00  0.00    +0.210 HD
ENDBRANCH  35  41
ENDBRANCH  30  31
ENDBRANCH   3  30
TORSDOF 8
ENDMDL
MODEL 9
REMARK VINA RESULT:      -4.9      2.154      2.509
REMARK  Name = *****
REMARK                            x       y       z     vdW  Elec       q    Type
REMARK                         _______ _______ _______ _____ _____    ______ ____
ROOT
ATOM      1  C   LIG    1       27.098 -28.632  13.614  0.00  0.00    +0.130 C 
ATOM      2  C   LIG    1       26.753 -30.021  14.182  0.00  0.00    +0.079 C 
ATOM      3  C   LIG    1       25.652 -30.720  13.378  0.00  0.00    +0.158 C 
ATOM      4  C   LIG    1       24.396 -29.862  13.475  0.00  0.00    +0.030 A 
ATOM      5  C   LIG    1       24.507 -28.452  13.423  0.00  0.00    +0.007 A 
ATOM      6  C   LIG    1       23.340 -27.673  13.369  0.00  0.00    +0.132 A 
ATOM      7  C   LIG    1       22.068 -28.250  13.495  0.00  0.00    +0.078 A 
ATOM      8  C   LIG    1       20.864 -27.404  13.475  0.00  0.00    +0.198 C 
ATOM      9  O   LIG    1       20.950 -26.227  13.136  0.00  0.00    -0.286 OA
ATOM     10  C   LIG    1       19.572 -27.972  13.897  0.00  0.00    +0.033 A 
ATOM     11  C   LIG    1       19.473 -29.323  14.194  0.00  0.00    +0.033 A 
ATOM     12  C   LIG    1       18.246 -29.833  14.674  0.00  0.00    +0.012 A 
ATOM     13  C   LIG    1       17.141 -28.995  14.817  0.00  0.00    +0.001 A 
ATOM     14  C   LIG    1       17.240 -27.642  14.485  0.00  0.00    +0.001 A 
ATOM     15  C   LIG    1       20.644 -30.207  14.035  0.00  0.00    +0.198 C 
ATOM     16  O   LIG    1       20.542 -31.420  14.217  0.00  0.00    -0.286 OA
ATOM     17  C   LIG    1       18.449 -27.129  14.024  0.00  0.00    +0.012 A 
ATOM     18  C   LIG    1       21.957 -29.632  13.705  0.00  0.00    +0.078 A 
ATOM     19  C   LIG    1       23.121 -30.430  13.647  0.00  0.00    +0.135 A 
ATOM     20  C   LIG    1       25.845 -27.742  13.580  0.00  0.00    +0.082 C 
ENDROOT
BRANCH   1  22
ATOM     21  C   LIG    1       29.266 -28.894  15.054  0.00  0.00    +0.089 C 
ATOM     22  C   LIG    1       28.198 -27.990  14.486  0.00  0.00    +0.162 C 
ATOM     23  O   LIG    1       28.211 -26.784  14.754  0.00  0.00    -0.295 OA
ENDBRANCH   1  22
BRANCH   1  24
ATOM     24  O   LIG    1       27.652 -28.705  12.295  0.00  0.00    -0.381 OA
ATOM     25  H   LIG    1       27.182 -28.042  11.749  0.00  0.00    +0.211 HD
ENDBRANCH   1  24
BRANCH   6  26
ATOM     26  O   LIG    1       23.500 -26.315  13.239  0.00  0.00    -0.506 OA
ATOM     27  H   LIG    1       24.459 -26.104  13.296  0.00  0.00    +0.292 HD
ENDBRANCH   6  26
BRANCH  19  28
ATOM     28  O   LIG    1       23.052 -31.791  13.830  0.00  0.00    -0.506 OA
ATOM     29  H   LIG    1       22.437 -31.980  14.575  0.00  0.00    +0.292 HD
ENDBRANCH  19  28
BRANCH   3  30
ATOM     30  O   LIG    1       25.972 -30.882  11.984  0.00  0.00    -0.343 OA
BRANCH  30  31
ATOM     31  C   LIG    1       24.901 -31.380  11.172  0.00  0.00    +0.253 C 
ATOM     32  O   LIG    1       25.281 -32.638  10.609  0.00  0.00    -0.346 OA
ATOM     33  C   LIG    1       24.299 -33.266   9.786  0.00  0.00    +0.148 C 
ATOM     34  C   LIG    1       23.137 -33.817  10.612  0.00  0.00    +0.040 C 
ATOM     35  C   LIG    1       23.938 -32.358   8.599  0.00  0.00    +0.160 C 
ATOM     36  C   LIG    1       23.622 -30.902   9.015  0.00  0.00    +0.087 C 
ATOM     37  C   LIG    1       24.659 -30.394  10.026  0.00  0.00    +0.082 C 
BRANCH  36  38
ATOM     38  N   LIG    1       22.248 -30.707   9.504  0.00  0.00    -0.325 NA
ATOM     39  H   LIG    1       22.156 -29.774   9.904  0.00  0.00    +0.119 HD
ATOM     40  H   LIG    1       21.551 -30.804   8.772  0.00  0.00    +0.119 HD
ENDBRANCH  36  38
BRANCH  35  41
ATOM     41  O   LIG    1       22.900 -32.910   7.789  0.00  0.00    -0.388 OA
ATOM     42  H   LIG    1       22.077 -32.437   7.994  0.00  0.00    +0.210 HD
ENDBRANCH  35  41
ENDBRANCH  30  31
ENDBRANCH   3  30
TORSDOF 8
ENDMDL
