MODEL 1
REMARK VINA RESULT:      -3.6      0.000      0.000
REMARK  Name = *****
REMARK                            x       y       z     vdW  Elec       q    Type
REMARK                         _______ _______ _______ _____ _____    ______ ____
ROOT
ATOM      1  O   LIG    1       23.573 -30.685  11.860  0.00  0.00    -0.340 OA
ENDROOT
BRANCH   1   5
ATOM      2  C   LIG    1       24.539 -31.483   8.395  0.00  0.00    +0.283 C 
ATOM      3  C   LIG    1       23.913 -32.495   9.393  0.00  0.00    +0.201 C 
ATOM      4  C   LIG    1       24.697 -32.509  10.716  0.00  0.00    +0.180 C 
ATOM      5  C   LIG    1       24.848 -31.082  11.296  0.00  0.00    +0.192 C 
ATOM      6  C   LIG    1       25.321 -30.098  10.209  0.00  0.00    +0.261 C 
ATOM      7  O   LIG    1       24.601 -30.174   8.972  0.00  0.00    -0.332 OA
BRANCH   6   8
ATOM      8  C   LIG    1       26.827 -29.969  10.112  0.00  0.00    +0.337 C 
ATOM      9  O   LIG    1       27.656 -30.738  10.598  0.00  0.00    -0.248 OA
BRANCH   8  10
ATOM     10  O   LIG    1       27.195 -28.810   9.526  0.00  0.00    -0.479 OA
ATOM     11  H   LIG    1       27.492 -28.168  10.206  0.00  0.00    +0.295 HD
ENDBRANCH   8  10
ENDBRANCH   6   8
BRANCH   4  12
ATOM     12  O   LIG    1       25.988 -33.089  10.523  0.00  0.00    -0.386 OA
ATOM     13  H   LIG    1       25.958 -33.623   9.707  0.00  0.00    +0.210 HD
ENDBRANCH   4  12
BRANCH   3  14
ATOM     14  O   LIG    1       22.532 -32.162   9.647  0.00  0.00    -0.384 OA
ATOM     15  H   LIG    1       22.210 -32.824  10.289  0.00  0.00    +0.210 HD
ENDBRANCH   3  14
BRANCH   2  16
ATOM     16  O   LIG    1       25.810 -31.916   7.935  0.00  0.00    -0.341 OA
BRANCH  16  18
ATOM     17  C   LIG    1       25.418 -30.363   5.973  0.00  0.00    +0.160 C 
ATOM     18  C   LIG    1       26.214 -31.531   6.602  0.00  0.00    +0.177 C 
ATOM     19  C   LIG    1       26.201 -32.833   5.783  0.00  0.00    +0.176 C 
ATOM     20  C   LIG    1       26.443 -32.540   4.302  0.00  0.00    +0.178 C 
ATOM     21  O   LIG    1       25.426 -31.650   3.842  0.00  0.00    -0.341 OA
ATOM     22  C   LIG    1       25.536 -30.362   4.425  0.00  0.00    +0.270 C 
BRANCH  17  25
ATOM     23  C   LIG    1       25.816 -26.779   7.294  0.00  0.00    +0.109 C 
ATOM     24  C   LIG    1       25.137 -27.944   6.615  0.00  0.00    +0.210 C 
ATOM     25  N   LIG    1       25.922 -29.072   6.527  0.00  0.00    -0.305 N 
ATOM     26  H   LIG    1       26.918 -28.950   6.654  0.00  0.00    +0.149 HD
ATOM     27  O   LIG    1       23.960 -27.909   6.283  0.00  0.00    -0.276 OA
ENDBRANCH  17  25
BRANCH  22  28
ATOM     28  O   LIG    1       24.499 -29.592   3.853  0.00  0.00    -0.365 OA
ATOM     29  H   LIG    1       24.791 -28.674   3.993  0.00  0.00    +0.212 HD
ENDBRANCH  22  28
BRANCH  19  30
ATOM     30  O   LIG    1       27.217 -33.728   6.263  0.00  0.00    -0.387 OA
ATOM     31  H   LIG    1       27.533 -33.396   7.130  0.00  0.00    +0.210 HD
ENDBRANCH  19  30
BRANCH  20  32
ATOM     32  C   LIG    1       26.405 -33.825   3.460  0.00  0.00    +0.190 C 
BRANCH  32  33
ATOM     33  O   LIG    1       25.726 -33.657   2.221  0.00  0.00    -0.392 OA
ATOM     34  H   LIG    1       25.524 -34.554   1.875  0.00  0.00    +0.209 HD
ENDBRANCH  32  33
ENDBRANCH  20  32
ENDBRANCH  16  18
ENDBRANCH   2  16
ENDBRANCH   1   5
BRANCH   1  35
ATOM     35  C   LIG    1       23.465 -29.318  12.284  0.00  0.00    +0.274 C 
ATOM     36  C   LIG    1       22.093 -29.083  12.938  0.00  0.00    +0.160 C 
ATOM     37  C   LIG    1       22.061 -29.613  14.380  0.00  0.00    +0.177 C 
ATOM     38  C   LIG    1       23.291 -29.104  15.162  0.00  0.00    +0.176 C 
ATOM     39  C   LIG    1       24.633 -29.263  14.413  0.00  0.00    +0.178 C 
ATOM     40  O   LIG    1       24.558 -28.829  13.050  0.00  0.00    -0.341 OA
BRANCH  36  41
ATOM     41  N   LIG    1       21.646 -27.692  12.820  0.00  0.00    -0.305 N 
ATOM     42  H   LIG    1       22.319 -26.943  12.936  0.00  0.00    +0.149 HD
ATOM     43  C   LIG    1       20.307 -27.383  12.935  0.00  0.00    +0.210 C 
ATOM     44  O   LIG    1       19.437 -28.225  13.129  0.00  0.00    -0.276 OA
ATOM     45  C   LIG    1       20.004 -25.923  12.757  0.00  0.00    +0.109 C 
ENDBRANCH  36  41
BRANCH  38  46
ATOM     46  O   LIG    1       23.078 -27.697  15.429  0.00  0.00    -0.387 OA
ATOM     47  H   LIG    1       23.679 -27.179  14.866  0.00  0.00    +0.210 HD
ENDBRANCH  38  46
BRANCH  39  48
ATOM     48  C   LIG    1       25.323 -30.623  14.564  0.00  0.00    +0.190 C 
BRANCH  48  49
ATOM     49  O   LIG    1       26.718 -30.536  14.301  0.00  0.00    -0.392 OA
ATOM     50  H   LIG    1       27.081 -31.436  14.237  0.00  0.00    +0.209 HD
ENDBRANCH  48  49
ENDBRANCH  39  48
BRANCH  37  51
ATOM     51  O   LIG    1       21.996 -31.048  14.455  0.00  0.00    -0.341 OA
BRANCH  51  52
ATOM     52  C   LIG    1       20.744 -31.579  14.921  0.00  0.00    +0.283 C 
ATOM     53  C   LIG    1       19.619 -30.572  14.610  0.00  0.00    +0.201 C 
ATOM     54  C   LIG    1       18.245 -31.233  14.715  0.00  0.00    +0.179 C 
ATOM     55  C   LIG    1       18.165 -32.600  14.015  0.00  0.00    +0.185 C 
ATOM     56  C   LIG    1       19.515 -33.082  13.469  0.00  0.00    +0.260 C 
ATOM     57  O   LIG    1       20.560 -32.899  14.420  0.00  0.00    -0.332 OA
BRANCH  56  58
ATOM     58  C   LIG    1       19.819 -32.553  12.068  0.00  0.00    +0.337 C 
ATOM     59  O   LIG    1       19.166 -31.697  11.483  0.00  0.00    -0.248 OA
BRANCH  58  60
ATOM     60  O   LIG    1       20.871 -33.170  11.487  0.00  0.00    -0.479 OA
ATOM     61  H   LIG    1       21.725 -32.825  11.827  0.00  0.00    +0.295 HD
ENDBRANCH  58  60
ENDBRANCH  56  58
BRANCH  55  62
ATOM     62  O   LIG    1       17.690 -33.569  14.980  0.00  0.00    -0.386 OA
ATOM     63  H   LIG    1       17.179 -34.253  14.511  0.00  0.00    +0.210 HD
ENDBRANCH  55  62
BRANCH  54  64
ATOM     64  O   LIG    1       17.272 -30.339  14.150  0.00  0.00    -0.386 OA
ATOM     65  H   LIG    1       17.522 -30.205  13.215  0.00  0.00    +0.210 HD
ENDBRANCH  54  64
BRANCH  53  66
ATOM     66  O   LIG    1       19.648 -29.434  15.499  0.00  0.00    -0.384 OA
ATOM     67  H   LIG    1       20.031 -28.657  15.038  0.00  0.00    +0.210 HD
ENDBRANCH  53  66
ENDBRANCH  51  52
ENDBRANCH  37  51
ENDBRANCH   1  35
TORSDOF 24
ENDMDL
MODEL 2
REMARK VINA RESULT:      -3.6      1.794      3.107
REMARK  Name = *****
REMARK                            x       y       z     vdW  Elec       q    Type
REMARK                         _______ _______ _______ _____ _____    ______ ____
ROOT
ATOM      1  O   LIG    1       24.511 -30.665  12.437  0.00  0.00    -0.340 OA
ENDROOT
BRANCH   1   5
ATOM      2  C   LIG    1       23.917 -30.609   8.801  0.00  0.00    +0.283 C 
ATOM      3  C   LIG    1       22.850 -30.983   9.865  0.00  0.00    +0.201 C 
ATOM      4  C   LIG    1       23.384 -32.072  10.811  0.00  0.00    +0.180 C 
ATOM      5  C   LIG    1       24.748 -31.670  11.419  0.00  0.00    +0.192 C 
ATOM      6  C   LIG    1       25.704 -31.159  10.325  0.00  0.00    +0.261 C 
ATOM      7  O   LIG    1       25.136 -30.195   9.428  0.00  0.00    -0.332 OA
BRANCH   6   8
ATOM      8  C   LIG    1       26.561 -32.242   9.704  0.00  0.00    +0.337 C 
ATOM      9  O   LIG    1       27.517 -32.071   8.948  0.00  0.00    -0.248 OA
BRANCH   8  10
ATOM     10  O   LIG    1       26.078 -33.476   9.966  0.00  0.00    -0.479 OA
ATOM     11  H   LIG    1       25.735 -33.885   9.142  0.00  0.00    +0.295 HD
ENDBRANCH   8  10
ENDBRANCH   6   8
BRANCH   4  12
ATOM     12  O   LIG    1       23.513 -33.313  10.116  0.00  0.00    -0.386 OA
ATOM     13  H   LIG    1       24.288 -33.247   9.526  0.00  0.00    +0.210 HD
ENDBRANCH   4  12
BRANCH   3  14
ATOM     14  O   LIG    1       22.470 -29.818  10.627  0.00  0.00    -0.384 OA
ATOM     15  H   LIG    1       22.447 -30.104  11.561  0.00  0.00    +0.210 HD
ENDBRANCH   3  14
BRANCH   2  16
ATOM     16  O   LIG    1       24.132 -31.666   7.878  0.00  0.00    -0.341 OA
BRANCH  16  18
ATOM     17  C   LIG    1       24.840 -30.097   6.019  0.00  0.00    +0.160 C 
ATOM     18  C   LIG    1       25.041 -31.429   6.779  0.00  0.00    +0.177 C 
ATOM     19  C   LIG    1       24.954 -32.690   5.903  0.00  0.00    +0.176 C 
ATOM     20  C   LIG    1       25.740 -32.499   4.605  0.00  0.00    +0.178 C 
ATOM     21  O   LIG    1       25.209 -31.370   3.912  0.00  0.00    -0.341 OA
ATOM     22  C   LIG    1       25.459 -30.154   4.597  0.00  0.00    +0.270 C 
BRANCH  17  25
ATOM     23  C   LIG    1       25.857 -26.707   7.511  0.00  0.00    +0.109 C 
ATOM     24  C   LIG    1       25.206 -27.659   6.537  0.00  0.00    +0.210 C 
ATOM     25  N   LIG    1       25.457 -28.988   6.804  0.00  0.00    -0.305 N 
ATOM     26  H   LIG    1       26.237 -29.194   7.414  0.00  0.00    +0.149 HD
ATOM     27  O   LIG    1       24.436 -27.276   5.667  0.00  0.00    -0.276 OA
ENDBRANCH  17  25
BRANCH  22  28
ATOM     28  O   LIG    1       24.914 -29.136   3.783  0.00  0.00    -0.365 OA
ATOM     29  H   LIG    1       25.556 -28.409   3.864  0.00  0.00    +0.212 HD
ENDBRANCH  22  28
BRANCH  19  30
ATOM     30  O   LIG    1       25.476 -33.823   6.614  0.00  0.00    -0.387 OA
ATOM     31  H   LIG    1       26.272 -33.535   7.107  0.00  0.00    +0.210 HD
ENDBRANCH  19  30
BRANCH  20  32
ATOM     32  C   LIG    1       25.642 -33.737   3.700  0.00  0.00    +0.190 C 
BRANCH  32  33
ATOM     33  O   LIG    1       25.756 -33.424   2.317  0.00  0.00    -0.392 OA
ATOM     34  H   LIG    1       24.860 -33.182   1.997  0.00  0.00    +0.209 HD
ENDBRANCH  32  33
ENDBRANCH  20  32
ENDBRANCH  16  18
ENDBRANCH   2  16
ENDBRANCH   1   5
BRANCH   1  35
ATOM     35  C   LIG    1       25.590 -29.752  12.690  0.00  0.00    +0.274 C 
ATOM     36  C   LIG    1       25.028 -28.356  13.002  0.00  0.00    +0.160 C 
ATOM     37  C   LIG    1       24.513 -28.268  14.447  0.00  0.00    +0.177 C 
ATOM     38  C   LIG    1       25.575 -28.815  15.425  0.00  0.00    +0.176 C 
ATOM     39  C   LIG    1       26.188 -30.170  15.006  0.00  0.00    +0.178 C 
ATOM     40  O   LIG    1       26.563 -30.202  13.624  0.00  0.00    -0.341 OA
BRANCH  36  41
ATOM     41  N   LIG    1       25.964 -27.282  12.653  0.00  0.00    -0.305 N 
ATOM     42  H   LIG    1       26.804 -27.507  12.134  0.00  0.00    +0.149 HD
ATOM     43  C   LIG    1       25.919 -26.079  13.325  0.00  0.00    +0.210 C 
ATOM     44  O   LIG    1       25.117 -25.839  14.220  0.00  0.00    -0.276 OA
ATOM     45  C   LIG    1       26.916 -25.072  12.830  0.00  0.00    +0.109 C 
ENDBRANCH  36  41
BRANCH  38  46
ATOM     46  O   LIG    1       26.636 -27.833  15.499  0.00  0.00    -0.387 OA
ATOM     47  H   LIG    1       27.354 -28.105  14.902  0.00  0.00    +0.210 HD
ENDBRANCH  38  46
BRANCH  39  48
ATOM     48  C   LIG    1       25.408 -31.416  15.438  0.00  0.00    +0.190 C 
BRANCH  48  49
ATOM     49  O   LIG    1       24.107 -31.446  14.865  0.00  0.00    -0.392 OA
ATOM     50  H   LIG    1       24.159 -31.111  13.953  0.00  0.00    +0.209 HD
ENDBRANCH  48  49
ENDBRANCH  39  48
BRANCH  37  51
ATOM     51  O   LIG    1       23.266 -28.958  14.647  0.00  0.00    -0.341 OA
BRANCH  51  52
ATOM     52  C   LIG    1       22.127 -28.108  14.863  0.00  0.00    +0.283 C 
ATOM     53  C   LIG    1       21.755 -27.411  13.539  0.00  0.00    +0.201 C 
ATOM     54  C   LIG    1       20.347 -26.821  13.605  0.00  0.00    +0.179 C 
ATOM     55  C   LIG    1       19.304 -27.783  14.200  0.00  0.00    +0.185 C 
ATOM     56  C   LIG    1       19.913 -29.087  14.726  0.00  0.00    +0.260 C 
ATOM     57  O   LIG    1       21.086 -28.844  15.498  0.00  0.00    -0.332 OA
BRANCH  56  58
ATOM     58  C   LIG    1       20.062 -30.159  13.648  0.00  0.00    +0.337 C 
ATOM     59  O   LIG    1       20.709 -31.194  13.770  0.00  0.00    -0.248 OA
BRANCH  58  60
ATOM     60  O   LIG    1       19.446 -29.835  12.491  0.00  0.00    -0.479 OA
ATOM     61  H   LIG    1       18.974 -30.605  12.104  0.00  0.00    +0.295 HD
ENDBRANCH  58  60
ENDBRANCH  56  58
BRANCH  55  62
ATOM     62  O   LIG    1       18.649 -27.107  15.299  0.00  0.00    -0.386 OA
ATOM     63  H   LIG    1       18.365 -27.773  15.952  0.00  0.00    +0.210 HD
ENDBRANCH  55  62
BRANCH  54  64
ATOM     64  O   LIG    1       19.956 -26.441  12.275  0.00  0.00    -0.386 OA
ATOM     65  H   LIG    1       19.167 -26.971  12.051  0.00  0.00    +0.210 HD
ENDBRANCH  54  64
BRANCH  53  66
ATOM     66  O   LIG    1       22.679 -26.353  13.204  0.00  0.00    -0.384 OA
ATOM     67  H   LIG    1       23.306 -26.206  13.945  0.00  0.00    +0.210 HD
ENDBRANCH  53  66
ENDBRANCH  51  52
ENDBRANCH  37  51
ENDBRANCH   1  35
TORSDOF 24
ENDMDL
MODEL 3
REMARK VINA RESULT:      -2.9      3.683      8.359
REMARK  Name = *****
REMARK                            x       y       z     vdW  Elec       q    Type
REMARK                         _______ _______ _______ _____ _____    ______ ____
ROOT
ATOM      1  O   LIG    1       24.773 -28.908   6.609  0.00  0.00    -0.340 OA
ENDROOT
BRANCH   1   5
ATOM      2  C   LIG    1       25.504 -25.313   6.948  0.00  0.00    +0.283 C 
ATOM      3  C   LIG    1       24.195 -25.896   6.349  0.00  0.00    +0.201 C 
ATOM      4  C   LIG    1       24.512 -26.918   5.244  0.00  0.00    +0.180 C 
ATOM      5  C   LIG    1       25.498 -28.000   5.743  0.00  0.00    +0.192 C 
ATOM      6  C   LIG    1       26.695 -27.356   6.468  0.00  0.00    +0.261 C 
ATOM      7  O   LIG    1       26.348 -26.361   7.440  0.00  0.00    -0.332 OA
BRANCH   6   8
ATOM      8  C   LIG    1       27.864 -27.038   5.558  0.00  0.00    +0.337 C 
ATOM      9  O   LIG    1       28.871 -26.400   5.863  0.00  0.00    -0.248 OA
BRANCH   8  10
ATOM     10  O   LIG    1       27.631 -27.427   4.286  0.00  0.00    -0.479 OA
ATOM     11  H   LIG    1       27.238 -26.687   3.775  0.00  0.00    +0.295 HD
ENDBRANCH   8  10
ENDBRANCH   6   8
BRANCH   4  12
ATOM     12  O   LIG    1       25.058 -26.259   4.100  0.00  0.00    -0.386 OA
ATOM     13  H   LIG    1       24.584 -25.413   3.986  0.00  0.00    +0.210 HD
ENDBRANCH   4  12
BRANCH   3  14
ATOM     14  O   LIG    1       23.405 -26.522   7.382  0.00  0.00    -0.384 OA
ATOM     15  H   LIG    1       23.417 -27.479   7.185  0.00  0.00    +0.210 HD
ENDBRANCH   3  14
BRANCH   2  16
ATOM     16  O   LIG    1       26.184 -24.483   6.019  0.00  0.00    -0.341 OA
BRANCH  16  18
ATOM     17  C   LIG    1       26.289 -22.457   7.537  0.00  0.00    +0.160 C 
ATOM     18  C   LIG    1       26.010 -23.053   6.137  0.00  0.00    +0.177 C 
ATOM     19  C   LIG    1       24.602 -22.770   5.586  0.00  0.00    +0.176 C 
ATOM     20  C   LIG    1       24.220 -21.306   5.813  0.00  0.00    +0.178 C 
ATOM     21  O   LIG    1       24.273 -21.034   7.213  0.00  0.00    -0.341 OA
ATOM     22  C   LIG    1       25.596 -21.080   7.719  0.00  0.00    +0.270 C 
BRANCH  17  25
ATOM     23  C   LIG    1       29.908 -21.203   7.818  0.00  0.00    +0.109 C 
ATOM     24  C   LIG    1       28.440 -21.149   7.468  0.00  0.00    +0.210 C 
ATOM     25  N   LIG    1       27.763 -22.321   7.727  0.00  0.00    -0.305 N 
ATOM     26  H   LIG    1       28.320 -23.156   7.849  0.00  0.00    +0.149 HD
ATOM     27  O   LIG    1       27.895 -20.118   7.100  0.00  0.00    -0.276 OA
ENDBRANCH  17  25
BRANCH  22  28
ATOM     28  O   LIG    1       25.496 -20.758   9.091  0.00  0.00    -0.365 OA
ATOM     29  H   LIG    1       26.320 -20.275   9.275  0.00  0.00    +0.212 HD
ENDBRANCH  22  28
BRANCH  19  30
ATOM     30  O   LIG    1       24.554 -23.061   4.180  0.00  0.00    -0.387 OA
ATOM     31  H   LIG    1       23.791 -23.654   4.017  0.00  0.00    +0.210 HD
ENDBRANCH  19  30
BRANCH  20  32
ATOM     32  C   LIG    1       22.804 -21.008   5.296  0.00  0.00    +0.190 C 
BRANCH  32  33
ATOM     33  O   LIG    1       21.919 -22.114   5.430  0.00  0.00    -0.392 OA
ATOM     34  H   LIG    1       21.430 -22.201   4.582  0.00  0.00    +0.209 HD
ENDBRANCH  32  33
ENDBRANCH  20  32
ENDBRANCH  16  18
ENDBRANCH   2  16
ENDBRANCH   1   5
BRANCH   1  35
ATOM     35  C   LIG    1       24.915 -30.308   6.322  0.00  0.00    +0.274 C 
ATOM     36  C   LIG    1       26.249 -30.823   6.888  0.00  0.00    +0.160 C 
ATOM     37  C   LIG    1       26.160 -31.064   8.403  0.00  0.00    +0.177 C 
ATOM     38  C   LIG    1       24.904 -31.898   8.737  0.00  0.00    +0.176 C 
ATOM     39  C   LIG    1       23.610 -31.402   8.054  0.00  0.00    +0.178 C 
ATOM     40  O   LIG    1       23.796 -31.116   6.662  0.00  0.00    -0.341 OA
BRANCH  36  41
ATOM     41  N   LIG    1       26.766 -31.977   6.146  0.00  0.00    -0.305 N 
ATOM     42  H   LIG    1       27.552 -32.494   6.520  0.00  0.00    +0.149 HD
ATOM     43  C   LIG    1       26.463 -32.132   4.809  0.00  0.00    +0.210 C 
ATOM     44  O   LIG    1       25.763 -31.346   4.183  0.00  0.00    -0.276 OA
ATOM     45  C   LIG    1       27.037 -33.378   4.200  0.00  0.00    +0.109 C 
ENDBRANCH  36  41
BRANCH  38  46
ATOM     46  O   LIG    1       25.163 -33.255   8.303  0.00  0.00    -0.387 OA
ATOM     47  H   LIG    1       24.325 -33.749   8.310  0.00  0.00    +0.210 HD
ENDBRANCH  38  46
BRANCH  39  48
ATOM     48  C   LIG    1       22.850 -30.294   8.790  0.00  0.00    +0.190 C 
BRANCH  48  49
ATOM     49  O   LIG    1       21.925 -30.827   9.730  0.00  0.00    -0.392 OA
ATOM     50  H   LIG    1       21.437 -31.556   9.310  0.00  0.00    +0.209 HD
ENDBRANCH  48  49
ENDBRANCH  39  48
BRANCH  37  51
ATOM     51  O   LIG    1       26.154 -29.847   9.171  0.00  0.00    -0.341 OA
BRANCH  51  52
ATOM     52  C   LIG    1       26.848 -29.916  10.428  0.00  0.00    +0.283 C 
ATOM     53  C   LIG    1       26.471 -28.691  11.284  0.00  0.00    +0.201 C 
ATOM     54  C   LIG    1       26.852 -28.904  12.748  0.00  0.00    +0.179 C 
ATOM     55  C   LIG    1       26.447 -30.284  13.294  0.00  0.00    +0.185 C 
ATOM     56  C   LIG    1       25.861 -31.212  12.223  0.00  0.00    +0.260 C 
ATOM     57  O   LIG    1       26.639 -31.190  11.029  0.00  0.00    -0.332 OA
BRANCH  56  58
ATOM     58  C   LIG    1       24.360 -31.021  12.018  0.00  0.00    +0.337 C 
ATOM     59  O   LIG    1       23.772 -29.947  12.085  0.00  0.00    -0.248 OA
BRANCH  58  60
ATOM     60  O   LIG    1       23.703 -32.182  11.804  0.00  0.00    -0.479 OA
ATOM     61  H   LIG    1       23.859 -32.524  10.897  0.00  0.00    +0.295 HD
ENDBRANCH  58  60
ENDBRANCH  56  58
BRANCH  55  62
ATOM     62  O   LIG    1       27.628 -30.911  13.847  0.00  0.00    -0.386 OA
ATOM     63  H   LIG    1       27.371 -31.757  14.256  0.00  0.00    +0.210 HD
ENDBRANCH  55  62
BRANCH  54  64
ATOM     64  O   LIG    1       26.233 -27.870  13.530  0.00  0.00    -0.386 OA
ATOM     65  H   LIG    1       26.926 -27.503  14.112  0.00  0.00    +0.210 HD
ENDBRANCH  54  64
BRANCH  53  66
ATOM     66  O   LIG    1       27.111 -27.483  10.816  0.00  0.00    -0.384 OA
ATOM     67  H   LIG    1       27.215 -26.849  11.558  0.00  0.00    +0.210 HD
ENDBRANCH  53  66
ENDBRANCH  51  52
ENDBRANCH  37  51
ENDBRANCH   1  35
TORSDOF 24
ENDMDL
MODEL 4
REMARK VINA RESULT:      -2.8      3.843      8.665
REMARK  Name = *****
REMARK                            x       y       z     vdW  Elec       q    Type
REMARK                         _______ _______ _______ _____ _____    ______ ____
ROOT
ATOM      1  O   LIG    1       24.779 -28.893   6.308  0.00  0.00    -0.340 OA
ENDROOT
BRANCH   1   5
ATOM      2  C   LIG    1       25.560 -25.357   6.989  0.00  0.00    +0.283 C 
ATOM      3  C   LIG    1       24.269 -25.858   6.286  0.00  0.00    +0.201 C 
ATOM      4  C   LIG    1       24.615 -26.787   5.111  0.00  0.00    +0.180 C 
ATOM      5  C   LIG    1       25.559 -27.930   5.556  0.00  0.00    +0.192 C 
ATOM      6  C   LIG    1       26.733 -27.377   6.384  0.00  0.00    +0.261 C 
ATOM      7  O   LIG    1       26.362 -26.462   7.423  0.00  0.00    -0.332 OA
BRANCH   6   8
ATOM      8  C   LIG    1       27.947 -27.008   5.557  0.00  0.00    +0.337 C 
ATOM      9  O   LIG    1       28.877 -26.284   5.911  0.00  0.00    -0.248 OA
BRANCH   8  10
ATOM     10  O   LIG    1       27.849 -27.465   4.290  0.00  0.00    -0.479 OA
ATOM     11  H   LIG    1       28.507 -28.177   4.136  0.00  0.00    +0.295 HD
ENDBRANCH   8  10
ENDBRANCH   6   8
BRANCH   4  12
ATOM     12  O   LIG    1       25.224 -26.045   4.053  0.00  0.00    -0.386 OA
ATOM     13  H   LIG    1       25.366 -26.653   3.303  0.00  0.00    +0.210 HD
ENDBRANCH   4  12
BRANCH   3  14
ATOM     14  O   LIG    1       23.422 -26.552   7.226  0.00  0.00    -0.384 OA
ATOM     15  H   LIG    1       24.010 -27.153   7.724  0.00  0.00    +0.210 HD
ENDBRANCH   3  14
BRANCH   2  16
ATOM     16  O   LIG    1       26.296 -24.465   6.165  0.00  0.00    -0.341 OA
BRANCH  16  18
ATOM     17  C   LIG    1       26.370 -22.491   7.751  0.00  0.00    +0.160 C 
ATOM     18  C   LIG    1       26.075 -23.048   6.338  0.00  0.00    +0.177 C 
ATOM     19  C   LIG    1       24.644 -22.797   5.833  0.00  0.00    +0.176 C 
ATOM     20  C   LIG    1       24.216 -21.357   6.122  0.00  0.00    +0.178 C 
ATOM     21  O   LIG    1       24.297 -21.131   7.530  0.00  0.00    -0.341 OA
ATOM     22  C   LIG    1       25.635 -21.147   7.999  0.00  0.00    +0.270 C 
BRANCH  17  25
ATOM     23  C   LIG    1       29.989 -21.206   7.708  0.00  0.00    +0.109 C 
ATOM     24  C   LIG    1       28.524 -21.250   7.346  0.00  0.00    +0.210 C 
ATOM     25  N   LIG    1       27.843 -22.309   7.907  0.00  0.00    -0.305 N 
ATOM     26  H   LIG    1       28.398 -23.079   8.255  0.00  0.00    +0.149 HD
ATOM     27  O   LIG    1       27.983 -20.357   6.708  0.00  0.00    -0.276 OA
ENDBRANCH  17  25
BRANCH  22  28
ATOM     28  O   LIG    1       25.560 -20.876   9.383  0.00  0.00    -0.365 OA
ATOM     29  H   LIG    1       25.425 -21.754   9.782  0.00  0.00    +0.212 HD
ENDBRANCH  22  28
BRANCH  19  30
ATOM     30  O   LIG    1       24.568 -23.042   4.420  0.00  0.00    -0.387 OA
ATOM     31  H   LIG    1       25.348 -23.575   4.160  0.00  0.00    +0.210 HD
ENDBRANCH  19  30
BRANCH  20  32
ATOM     32  C   LIG    1       22.777 -21.092   5.653  0.00  0.00    +0.190 C 
BRANCH  32  33
ATOM     33  O   LIG    1       21.991 -22.276   5.575  0.00  0.00    -0.392 OA
ATOM     34  H   LIG    1       21.859 -22.600   6.493  0.00  0.00    +0.209 HD
ENDBRANCH  32  33
ENDBRANCH  20  32
ENDBRANCH  16  18
ENDBRANCH   2  16
ENDBRANCH   1   5
BRANCH   1  35
ATOM     35  C   LIG    1       24.563 -30.165   5.678  0.00  0.00    +0.274 C 
ATOM     36  C   LIG    1       25.811 -31.047   5.843  0.00  0.00    +0.160 C 
ATOM     37  C   LIG    1       25.879 -31.667   7.247  0.00  0.00    +0.177 C 
ATOM     38  C   LIG    1       24.526 -32.318   7.607  0.00  0.00    +0.176 C 
ATOM     39  C   LIG    1       23.295 -31.430   7.319  0.00  0.00    +0.178 C 
ATOM     40  O   LIG    1       23.348 -30.818   6.025  0.00  0.00    -0.341 OA
BRANCH  36  41
ATOM     41  N   LIG    1       25.949 -32.032   4.765  0.00  0.00    -0.305 N 
ATOM     42  H   LIG    1       25.142 -32.263   4.199  0.00  0.00    +0.149 HD
ATOM     43  C   LIG    1       27.019 -32.902   4.756  0.00  0.00    +0.210 C 
ATOM     44  O   LIG    1       27.894 -32.901   5.614  0.00  0.00    -0.276 OA
ATOM     45  C   LIG    1       27.038 -33.825   3.572  0.00  0.00    +0.109 C 
ENDBRANCH  36  41
BRANCH  38  46
ATOM     46  O   LIG    1       24.412 -33.532   6.825  0.00  0.00    -0.387 OA
ATOM     47  H   LIG    1       24.855 -34.253   7.304  0.00  0.00    +0.210 HD
ENDBRANCH  38  46
BRANCH  39  48
ATOM     48  C   LIG    1       22.912 -30.443   8.427  0.00  0.00    +0.190 C 
BRANCH  48  49
ATOM     49  O   LIG    1       22.200 -31.084   9.478  0.00  0.00    -0.392 OA
ATOM     50  H   LIG    1       22.801 -31.208  10.233  0.00  0.00    +0.209 HD
ENDBRANCH  48  49
ENDBRANCH  39  48
BRANCH  37  51
ATOM     51  O   LIG    1       26.252 -30.723   8.266  0.00  0.00    -0.341 OA
BRANCH  51  52
ATOM     52  C   LIG    1       25.442 -30.756   9.453  0.00  0.00    +0.283 C 
ATOM     53  C   LIG    1       26.231 -31.440  10.587  0.00  0.00    +0.201 C 
ATOM     54  C   LIG    1       25.598 -31.156  11.949  0.00  0.00    +0.179 C 
ATOM     55  C   LIG    1       25.225 -29.678  12.156  0.00  0.00    +0.185 C 
ATOM     56  C   LIG    1       25.443 -28.816  10.907  0.00  0.00    +0.260 C 
ATOM     57  O   LIG    1       24.941 -29.453   9.735  0.00  0.00    -0.332 OA
BRANCH  56  58
ATOM     58  C   LIG    1       26.869 -28.281  10.788  0.00  0.00    +0.337 C 
ATOM     59  O   LIG    1       27.464 -27.665  11.665  0.00  0.00    -0.248 OA
BRANCH  58  60
ATOM     60  O   LIG    1       27.418 -28.503   9.574  0.00  0.00    -0.479 OA
ATOM     61  H   LIG    1       28.391 -28.373   9.588  0.00  0.00    +0.295 HD
ENDBRANCH  58  60
ENDBRANCH  56  58
BRANCH  55  62
ATOM     62  O   LIG    1       23.823 -29.616  12.515  0.00  0.00    -0.386 OA
ATOM     63  H   LIG    1       23.344 -29.125  11.823  0.00  0.00    +0.210 HD
ENDBRANCH  55  62
BRANCH  54  64
ATOM     64  O   LIG    1       26.518 -31.574  12.970  0.00  0.00    -0.386 OA
ATOM     65  H   LIG    1       26.821 -32.470  12.726  0.00  0.00    +0.210 HD
ENDBRANCH  54  64
BRANCH  53  66
ATOM     66  O   LIG    1       26.308 -32.871  10.409  0.00  0.00    -0.384 OA
ATOM     67  H   LIG    1       27.105 -33.224  10.861  0.00  0.00    +0.210 HD
ENDBRANCH  53  66
ENDBRANCH  51  52
ENDBRANCH  37  51
ENDBRANCH   1  35
TORSDOF 24
ENDMDL
MODEL 5
REMARK VINA RESULT:      -2.7      3.666      7.549
REMARK  Name = *****
REMARK                            x       y       z     vdW  Elec       q    Type
REMARK                         _______ _______ _______ _____ _____    ______ ____
ROOT
ATOM      1  O   LIG    1       25.034 -29.086   6.686  0.00  0.00    -0.340 OA
ENDROOT
BRANCH   1   5
ATOM      2  C   LIG    1       25.546 -25.443   6.887  0.00  0.00    +0.283 C 
ATOM      3  C   LIG    1       24.213 -26.127   6.477  0.00  0.00    +0.201 C 
ATOM      4  C   LIG    1       24.450 -27.145   5.349  0.00  0.00    +0.180 C 
ATOM      5  C   LIG    1       25.569 -28.147   5.720  0.00  0.00    +0.192 C 
ATOM      6  C   LIG    1       26.804 -27.407   6.269  0.00  0.00    +0.261 C 
ATOM      7  O   LIG    1       26.521 -26.419   7.269  0.00  0.00    -0.332 OA
BRANCH   6   8
ATOM      8  C   LIG    1       27.814 -27.027   5.206  0.00  0.00    +0.337 C 
ATOM      9  O   LIG    1       27.659 -27.120   3.989  0.00  0.00    -0.248 OA
BRANCH   8  10
ATOM     10  O   LIG    1       29.003 -26.680   5.744  0.00  0.00    -0.479 OA
ATOM     11  H   LIG    1       29.273 -27.340   6.417  0.00  0.00    +0.295 HD
ENDBRANCH   8  10
ENDBRANCH   6   8
BRANCH   4  12
ATOM     12  O   LIG    1       24.788 -26.473   4.136  0.00  0.00    -0.386 OA
ATOM     13  H   LIG    1       24.773 -27.130   3.414  0.00  0.00    +0.210 HD
ENDBRANCH   4  12
BRANCH   3  14
ATOM     14  O   LIG    1       23.617 -26.785   7.614  0.00  0.00    -0.384 OA
ATOM     15  H   LIG    1       24.141 -27.597   7.759  0.00  0.00    +0.210 HD
ENDBRANCH   3  14
BRANCH   2  16
ATOM     16  O   LIG    1       26.033 -24.585   5.865  0.00  0.00    -0.341 OA
BRANCH  16  18
ATOM     17  C   LIG    1       26.157 -22.632   7.473  0.00  0.00    +0.160 C 
ATOM     18  C   LIG    1       25.876 -23.160   6.047  0.00  0.00    +0.177 C 
ATOM     19  C   LIG    1       24.473 -22.836   5.504  0.00  0.00    +0.176 C 
ATOM     20  C   LIG    1       24.107 -21.380   5.795  0.00  0.00    +0.178 C 
ATOM     21  O   LIG    1       24.158 -21.171   7.207  0.00  0.00    -0.341 OA
ATOM     22  C   LIG    1       25.480 -21.255   7.714  0.00  0.00    +0.270 C 
BRANCH  17  25
ATOM     23  C   LIG    1       29.787 -21.432   7.831  0.00  0.00    +0.109 C 
ATOM     24  C   LIG    1       28.321 -21.344   7.481  0.00  0.00    +0.210 C 
ATOM     25  N   LIG    1       27.631 -22.521   7.673  0.00  0.00    -0.305 N 
ATOM     26  H   LIG    1       28.179 -23.368   7.750  0.00  0.00    +0.149 HD
ATOM     27  O   LIG    1       27.788 -20.289   7.169  0.00  0.00    -0.276 OA
ENDBRANCH  17  25
BRANCH  22  28
ATOM     28  O   LIG    1       25.377 -20.994   9.099  0.00  0.00    -0.365 OA
ATOM     29  H   LIG    1       26.303 -20.886   9.381  0.00  0.00    +0.212 HD
ENDBRANCH  22  28
BRANCH  19  30
ATOM     30  O   LIG    1       24.427 -23.064   4.087  0.00  0.00    -0.387 OA
ATOM     31  H   LIG    1       24.258 -22.206   3.644  0.00  0.00    +0.210 HD
ENDBRANCH  19  30
BRANCH  20  32
ATOM     32  C   LIG    1       22.696 -21.042   5.288  0.00  0.00    +0.190 C 
BRANCH  32  33
ATOM     33  O   LIG    1       21.792 -22.136   5.391  0.00  0.00    -0.392 OA
ATOM     34  H   LIG    1       21.235 -22.131   4.582  0.00  0.00    +0.209 HD
ENDBRANCH  32  33
ENDBRANCH  20  32
ENDBRANCH  16  18
ENDBRANCH   2  16
ENDBRANCH   1   5
BRANCH   1  35
ATOM     35  C   LIG    1       25.995 -29.878   7.400  0.00  0.00    +0.274 C 
ATOM     36  C   LIG    1       25.714 -29.801   8.910  0.00  0.00    +0.160 C 
ATOM     37  C   LIG    1       24.547 -30.717   9.311  0.00  0.00    +0.177 C 
ATOM     38  C   LIG    1       24.752 -32.129   8.721  0.00  0.00    +0.176 C 
ATOM     39  C   LIG    1       25.141 -32.145   7.226  0.00  0.00    +0.178 C 
ATOM     40  O   LIG    1       26.174 -31.202   6.916  0.00  0.00    -0.341 OA
BRANCH  36  41
ATOM     41  N   LIG    1       26.920 -30.010   9.717  0.00  0.00    -0.305 N 
ATOM     42  H   LIG    1       27.305 -30.943   9.800  0.00  0.00    +0.149 HD
ATOM     43  C   LIG    1       27.304 -29.065  10.646  0.00  0.00    +0.210 C 
ATOM     44  O   LIG    1       26.686 -28.026  10.842  0.00  0.00    -0.276 OA
ATOM     45  C   LIG    1       28.576 -29.407  11.367  0.00  0.00    +0.109 C 
ENDBRANCH  36  41
BRANCH  38  46
ATOM     46  O   LIG    1       25.811 -32.761   9.479  0.00  0.00    -0.387 OA
ATOM     47  H   LIG    1       26.156 -32.121  10.126  0.00  0.00    +0.210 HD
ENDBRANCH  38  46
BRANCH  39  48
ATOM     48  C   LIG    1       23.975 -32.094   6.233  0.00  0.00    +0.190 C 
BRANCH  48  49
ATOM     49  O   LIG    1       24.385 -31.592   4.967  0.00  0.00    -0.392 OA
ATOM     50  H   LIG    1       25.244 -31.147   5.070  0.00  0.00    +0.209 HD
ENDBRANCH  48  49
ENDBRANCH  39  48
BRANCH  37  51
ATOM     51  O   LIG    1       23.263 -30.205   8.913  0.00  0.00    -0.341 OA
BRANCH  51  52
ATOM     52  C   LIG    1       22.197 -30.438   9.849  0.00  0.00    +0.283 C 
ATOM     53  C   LIG    1       22.050 -31.954  10.085  0.00  0.00    +0.201 C 
ATOM     54  C   LIG    1       21.225 -32.239  11.339  0.00  0.00    +0.179 C 
ATOM     55  C   LIG    1       21.634 -31.385  12.551  0.00  0.00    +0.185 C 
ATOM     56  C   LIG    1       22.696 -30.330  12.219  0.00  0.00    +0.260 C 
ATOM     57  O   LIG    1       22.388 -29.638  11.012  0.00  0.00    -0.332 OA
BRANCH  56  58
ATOM     58  C   LIG    1       24.124 -30.866  12.309  0.00  0.00    +0.337 C 
ATOM     59  O   LIG    1       24.432 -32.052  12.290  0.00  0.00    -0.248 OA
BRANCH  58  60
ATOM     60  O   LIG    1       25.046 -29.891  12.471  0.00  0.00    -0.479 OA
ATOM     61  H   LIG    1       25.842 -30.052  11.920  0.00  0.00    +0.295 HD
ENDBRANCH  58  60
ENDBRANCH  56  58
BRANCH  55  62
ATOM     62  O   LIG    1       20.452 -30.706  13.039  0.00  0.00    -0.386 OA
ATOM     63  H   LIG    1       20.536 -30.585  14.002  0.00  0.00    +0.210 HD
ENDBRANCH  55  62
BRANCH  54  64
ATOM     64  O   LIG    1       21.360 -33.634  11.659  0.00  0.00    -0.386 OA
ATOM     65  H   LIG    1       20.463 -34.020  11.615  0.00  0.00    +0.210 HD
ENDBRANCH  54  64
BRANCH  53  66
ATOM     66  O   LIG    1       21.426 -32.620   8.966  0.00  0.00    -0.384 OA
ATOM     67  H   LIG    1       20.803 -33.307   9.287  0.00  0.00    +0.210 HD
ENDBRANCH  53  66
ENDBRANCH  51  52
ENDBRANCH  37  51
ENDBRANCH   1  35
TORSDOF 24
ENDMDL
MODEL 6
REMARK VINA RESULT:      -1.5      1.894      4.057
REMARK  Name = *****
REMARK                            x       y       z     vdW  Elec       q    Type
REMARK                         _______ _______ _______ _____ _____    ______ ____
ROOT
ATOM      1  O   LIG    1       24.441 -32.383  11.707  0.00  0.00    -0.340 OA
ENDROOT
BRANCH   1   5
ATOM      2  C   LIG    1       24.110 -30.566   8.519  0.00  0.00    +0.283 C 
ATOM      3  C   LIG    1       22.931 -31.215   9.293  0.00  0.00    +0.201 C 
ATOM      4  C   LIG    1       23.240 -32.686   9.619  0.00  0.00    +0.180 C 
ATOM      5  C   LIG    1       24.603 -32.829  10.338  0.00  0.00    +0.192 C 
ATOM      6  C   LIG    1       25.694 -32.028   9.603  0.00  0.00    +0.261 C 
ATOM      7  O   LIG    1       25.330 -30.685   9.261  0.00  0.00    -0.332 OA
BRANCH   6   8
ATOM      8  C   LIG    1       26.430 -32.823   8.544  0.00  0.00    +0.337 C 
ATOM      9  O   LIG    1       27.630 -33.094   8.540  0.00  0.00    -0.248 OA
BRANCH   8  10
ATOM     10  O   LIG    1       25.636 -33.112   7.490  0.00  0.00    -0.479 OA
ATOM     11  H   LIG    1       25.439 -32.295   6.984  0.00  0.00    +0.295 HD
ENDBRANCH   8  10
ENDBRANCH   6   8
BRANCH   4  12
ATOM     12  O   LIG    1       23.240 -33.471   8.426  0.00  0.00    -0.386 OA
ATOM     13  H   LIG    1       22.610 -34.205   8.549  0.00  0.00    +0.210 HD
ENDBRANCH   4  12
BRANCH   3  14
ATOM     14  O   LIG    1       22.668 -30.489  10.511  0.00  0.00    -0.384 OA
ATOM     15  H   LIG    1       22.155 -31.096  11.080  0.00  0.00    +0.210 HD
ENDBRANCH   3  14
BRANCH   2  16
ATOM     16  O   LIG    1       24.237 -31.098   7.209  0.00  0.00    -0.341 OA
BRANCH  16  18
ATOM     17  C   LIG    1       25.661 -30.418   5.227  0.00  0.00    +0.160 C 
ATOM     18  C   LIG    1       24.420 -30.169   6.118  0.00  0.00    +0.177 C 
ATOM     19  C   LIG    1       24.358 -28.773   6.760  0.00  0.00    +0.176 C 
ATOM     20  C   LIG    1       24.712 -27.693   5.736  0.00  0.00    +0.178 C 
ATOM     21  O   LIG    1       26.023 -27.955   5.233  0.00  0.00    -0.341 OA
ATOM     22  C   LIG    1       26.071 -29.137   4.452  0.00  0.00    +0.270 C 
BRANCH  17  25
ATOM     23  C   LIG    1       25.622 -33.682   3.205  0.00  0.00    +0.109 C 
ATOM     24  C   LIG    1       26.157 -32.646   4.164  0.00  0.00    +0.210 C 
ATOM     25  N   LIG    1       25.364 -31.524   4.272  0.00  0.00    -0.305 N 
ATOM     26  H   LIG    1       24.687 -31.368   3.537  0.00  0.00    +0.149 HD
ATOM     27  O   LIG    1       27.143 -32.849   4.859  0.00  0.00    -0.276 OA
ENDBRANCH  17  25
BRANCH  22  28
ATOM     28  O   LIG    1       27.405 -29.243   3.999  0.00  0.00    -0.365 OA
ATOM     29  H   LIG    1       27.894 -29.531   4.790  0.00  0.00    +0.212 HD
ENDBRANCH  22  28
BRANCH  19  30
ATOM     30  O   LIG    1       23.041 -28.525   7.276  0.00  0.00    -0.387 OA
ATOM     31  H   LIG    1       22.870 -29.165   7.998  0.00  0.00    +0.210 HD
ENDBRANCH  19  30
BRANCH  20  32
ATOM     32  C   LIG    1       24.685 -26.291   6.364  0.00  0.00    +0.190 C 
BRANCH  32  33
ATOM     33  O   LIG    1       25.734 -26.082   7.302  0.00  0.00    -0.392 OA
ATOM     34  H   LIG    1       25.358 -25.569   8.051  0.00  0.00    +0.209 HD
ENDBRANCH  32  33
ENDBRANCH  20  32
ENDBRANCH  16  18
ENDBRANCH   2  16
ENDBRANCH   1   5
BRANCH   1  35
ATOM     35  C   LIG    1       25.548 -31.667  12.276  0.00  0.00    +0.274 C 
ATOM     36  C   LIG    1       25.087 -30.273  12.732  0.00  0.00    +0.160 C 
ATOM     37  C   LIG    1       24.341 -30.340  14.075  0.00  0.00    +0.177 C 
ATOM     38  C   LIG    1       25.156 -31.162  15.096  0.00  0.00    +0.176 C 
ATOM     39  C   LIG    1       25.690 -32.506  14.551  0.00  0.00    +0.178 C 
ATOM     40  O   LIG    1       26.293 -32.376  13.258  0.00  0.00    -0.341 OA
BRANCH  36  41
ATOM     41  N   LIG    1       26.175 -29.290  12.721  0.00  0.00    -0.305 N 
ATOM     42  H   LIG    1       27.040 -29.503  13.203  0.00  0.00    +0.149 HD
ATOM     43  C   LIG    1       25.914 -27.973  12.407  0.00  0.00    +0.210 C 
ATOM     44  O   LIG    1       24.797 -27.558  12.121  0.00  0.00    -0.276 OA
ATOM     45  C   LIG    1       27.134 -27.098  12.405  0.00  0.00    +0.109 C 
ENDBRANCH  36  41
BRANCH  38  46
ATOM     46  O   LIG    1       26.284 -30.349  15.500  0.00  0.00    -0.387 OA
ATOM     47  H   LIG    1       25.971 -29.673  16.125  0.00  0.00    +0.210 HD
ENDBRANCH  38  46
BRANCH  39  48
ATOM     48  C   LIG    1       24.723 -33.691  14.637  0.00  0.00    +0.190 C 
BRANCH  48  49
ATOM     49  O   LIG    1       23.606 -33.399  15.469  0.00  0.00    -0.392 OA
ATOM     50  H   LIG    1       22.876 -33.998  15.235  0.00  0.00    +0.209 HD
ENDBRANCH  48  49
ENDBRANCH  39  48
BRANCH  37  51
ATOM     51  O   LIG    1       23.015 -30.884  13.959  0.00  0.00    -0.341 OA
BRANCH  51  52
ATOM     52  C   LIG    1       21.978 -30.099  14.572  0.00  0.00    +0.283 C 
ATOM     53  C   LIG    1       21.747 -28.823  13.741  0.00  0.00    +0.201 C 
ATOM     54  C   LIG    1       20.419 -28.160  14.104  0.00  0.00    +0.179 C 
ATOM     55  C   LIG    1       19.245 -29.149  14.198  0.00  0.00    +0.185 C 
ATOM     56  C   LIG    1       19.670 -30.613  14.036  0.00  0.00    +0.260 C 
ATOM     57  O   LIG    1       20.831 -30.910  14.808  0.00  0.00    -0.332 OA
BRANCH  56  58
ATOM     58  C   LIG    1       19.733 -31.063  12.578  0.00  0.00    +0.337 C 
ATOM     59  O   LIG    1       19.644 -32.225  12.196  0.00  0.00    -0.248 OA
BRANCH  58  60
ATOM     60  O   LIG    1       19.958 -30.045  11.719  0.00  0.00    -0.479 OA
ATOM     61  H   LIG    1       19.777 -29.174  12.135  0.00  0.00    +0.295 HD
ENDBRANCH  58  60
ENDBRANCH  56  58
BRANCH  55  62
ATOM     62  O   LIG    1       18.631 -28.992  15.499  0.00  0.00    -0.386 OA
ATOM     63  H   LIG    1       17.792 -29.488  15.512  0.00  0.00    +0.210 HD
ENDBRANCH  55  62
BRANCH  54  64
ATOM     64  O   LIG    1       20.132 -27.155  13.119  0.00  0.00    -0.386 OA
ATOM     65  H   LIG    1       19.864 -26.352  13.606  0.00  0.00    +0.210 HD
ENDBRANCH  54  64
BRANCH  53  66
ATOM     66  O   LIG    1       22.805 -27.856  13.924  0.00  0.00    -0.384 OA
ATOM     67  H   LIG    1       23.619 -28.304  14.240  0.00  0.00    +0.210 HD
ENDBRANCH  53  66
ENDBRANCH  51  52
ENDBRANCH  37  51
ENDBRANCH   1  35
TORSDOF 24
ENDMDL
MODEL 7
REMARK VINA RESULT:      -1.2      3.923      8.423
REMARK  Name = *****
REMARK                            x       y       z     vdW  Elec       q    Type
REMARK                         _______ _______ _______ _____ _____    ______ ____
ROOT
ATOM      1  O   LIG    1       24.693 -28.738   6.724  0.00  0.00    -0.340 OA
ENDROOT
BRANCH   1   5
ATOM      2  C   LIG    1       25.005 -25.069   6.869  0.00  0.00    +0.283 C 
ATOM      3  C   LIG    1       23.842 -25.831   6.176  0.00  0.00    +0.201 C 
ATOM      4  C   LIG    1       24.389 -26.878   5.192  0.00  0.00    +0.180 C 
ATOM      5  C   LIG    1       25.417 -27.811   5.876  0.00  0.00    +0.192 C 
ATOM      6  C   LIG    1       26.448 -26.993   6.677  0.00  0.00    +0.261 C 
ATOM      7  O   LIG    1       25.889 -25.984   7.528  0.00  0.00    -0.332 OA
BRANCH   6   8
ATOM      8  C   LIG    1       27.676 -26.606   5.880  0.00  0.00    +0.337 C 
ATOM      9  O   LIG    1       28.494 -25.736   6.179  0.00  0.00    -0.248 OA
BRANCH   8  10
ATOM     10  O   LIG    1       27.724 -27.243   4.690  0.00  0.00    -0.479 OA
ATOM     11  H   LIG    1       27.600 -26.601   3.959  0.00  0.00    +0.295 HD
ENDBRANCH   8  10
ENDBRANCH   6   8
BRANCH   4  12
ATOM     12  O   LIG    1       24.995 -26.237   4.069  0.00  0.00    -0.386 OA
ATOM     13  H   LIG    1       25.920 -26.031   4.303  0.00  0.00    +0.210 HD
ENDBRANCH   4  12
BRANCH   3  14
ATOM     14  O   LIG    1       23.006 -26.474   7.160  0.00  0.00    -0.384 OA
ATOM     15  H   LIG    1       22.130 -26.047   7.088  0.00  0.00    +0.210 HD
ENDBRANCH   3  14
BRANCH   2  16
ATOM     16  O   LIG    1       25.700 -24.229   5.960  0.00  0.00    -0.341 OA
BRANCH  16  18
ATOM     17  C   LIG    1       25.245 -21.977   4.892  0.00  0.00    +0.160 C 
ATOM     18  C   LIG    1       25.603 -22.800   6.152  0.00  0.00    +0.177 C 
ATOM     19  C   LIG    1       26.921 -22.393   6.833  0.00  0.00    +0.176 C 
ATOM     20  C   LIG    1       27.025 -20.871   6.938  0.00  0.00    +0.178 C 
ATOM     21  O   LIG    1       26.950 -20.317   5.624  0.00  0.00    -0.341 OA
ATOM     22  C   LIG    1       25.669 -20.491   5.042  0.00  0.00    +0.270 C 
BRANCH  17  25
ATOM     23  C   LIG    1       21.448 -21.417   4.761  0.00  0.00    +0.109 C 
ATOM     24  C   LIG    1       22.871 -21.202   5.218  0.00  0.00    +0.210 C 
ATOM     25  N   LIG    1       23.776 -22.070   4.647  0.00  0.00    -0.305 N 
ATOM     26  H   LIG    1       23.403 -22.908   4.221  0.00  0.00    +0.149 HD
ATOM     27  O   LIG    1       23.190 -20.267   5.939  0.00  0.00    -0.276 OA
ENDBRANCH  17  25
BRANCH  22  28
ATOM     28  O   LIG    1       25.735 -19.869   3.776  0.00  0.00    -0.365 OA
ATOM     29  H   LIG    1       24.855 -19.467   3.671  0.00  0.00    +0.212 HD
ENDBRANCH  22  28
BRANCH  19  30
ATOM     30  O   LIG    1       26.995 -22.967   8.148  0.00  0.00    -0.387 OA
ATOM     31  H   LIG    1       26.367 -23.719   8.190  0.00  0.00    +0.210 HD
ENDBRANCH  19  30
BRANCH  20  32
ATOM     32  C   LIG    1       28.349 -20.441   7.590  0.00  0.00    +0.190 C 
BRANCH  32  33
ATOM     33  O   LIG    1       29.422 -21.332   7.307  0.00  0.00    -0.392 OA
ATOM     34  H   LIG    1       29.993 -21.364   8.106  0.00  0.00    +0.209 HD
ENDBRANCH  32  33
ENDBRANCH  20  32
ENDBRANCH  16  18
ENDBRANCH   2  16
ENDBRANCH   1   5
BRANCH   1  35
ATOM     35  C   LIG    1       24.816 -30.129   6.393  0.00  0.00    +0.274 C 
ATOM     36  C   LIG    1       26.165 -30.667   6.898  0.00  0.00    +0.160 C 
ATOM     37  C   LIG    1       26.127 -30.951   8.408  0.00  0.00    +0.177 C 
ATOM     38  C   LIG    1       24.878 -31.787   8.760  0.00  0.00    +0.176 C 
ATOM     39  C   LIG    1       23.564 -31.265   8.137  0.00  0.00    +0.178 C 
ATOM     40  O   LIG    1       23.704 -30.941   6.748  0.00  0.00    -0.341 OA
BRANCH  36  41
ATOM     41  N   LIG    1       26.649 -31.802   6.106  0.00  0.00    -0.305 N 
ATOM     42  H   LIG    1       27.432 -32.347   6.448  0.00  0.00    +0.149 HD
ATOM     43  C   LIG    1       26.322 -31.905   4.770  0.00  0.00    +0.210 C 
ATOM     44  O   LIG    1       25.625 -31.084   4.184  0.00  0.00    -0.276 OA
ATOM     45  C   LIG    1       26.864 -33.137   4.107  0.00  0.00    +0.109 C 
ENDBRANCH  36  41
BRANCH  38  46
ATOM     46  O   LIG    1       25.113 -33.133   8.280  0.00  0.00    -0.387 OA
ATOM     47  H   LIG    1       24.402 -33.709   8.610  0.00  0.00    +0.210 HD
ENDBRANCH  38  46
BRANCH  39  48
ATOM     48  C   LIG    1       22.837 -30.174   8.930  0.00  0.00    +0.190 C 
BRANCH  48  49
ATOM     49  O   LIG    1       21.893 -30.727   9.839  0.00  0.00    -0.392 OA
ATOM     50  H   LIG    1       21.036 -30.813   9.386  0.00  0.00    +0.209 HD
ENDBRANCH  48  49
ENDBRANCH  39  48
BRANCH  37  51
ATOM     51  O   LIG    1       26.155 -29.756   9.209  0.00  0.00    -0.341 OA
BRANCH  51  52
ATOM     52  C   LIG    1       26.875 -29.870  10.448  0.00  0.00    +0.283 C 
ATOM     53  C   LIG    1       26.510 -28.681  11.358  0.00  0.00    +0.201 C 
ATOM     54  C   LIG    1       26.922 -28.949  12.806  0.00  0.00    +0.179 C 
ATOM     55  C   LIG    1       26.534 -30.351  13.305  0.00  0.00    +0.185 C 
ATOM     56  C   LIG    1       25.931 -31.240  12.212  0.00  0.00    +0.260 C 
ATOM     57  O   LIG    1       26.683 -31.167  11.003  0.00  0.00    -0.332 OA
BRANCH  56  58
ATOM     58  C   LIG    1       24.424 -31.049  12.045  0.00  0.00    +0.337 C 
ATOM     59  O   LIG    1       23.827 -29.991  12.207  0.00  0.00    -0.248 OA
BRANCH  58  60
ATOM     60  O   LIG    1       23.775 -32.195  11.745  0.00  0.00    -0.479 OA
ATOM     61  H   LIG    1       24.100 -32.947  12.287  0.00  0.00    +0.295 HD
ENDBRANCH  58  60
ENDBRANCH  56  58
BRANCH  55  62
ATOM     62  O   LIG    1       27.729 -30.993  13.810  0.00  0.00    -0.386 OA
ATOM     63  H   LIG    1       27.473 -31.810  14.274  0.00  0.00    +0.210 HD
ENDBRANCH  55  62
BRANCH  54  64
ATOM     64  O   LIG    1       26.314 -27.949  13.639  0.00  0.00    -0.386 OA
ATOM     65  H   LIG    1       26.317 -28.302  14.550  0.00  0.00    +0.210 HD
ENDBRANCH  54  64
BRANCH  53  66
ATOM     66  O   LIG    1       27.135 -27.453  10.925  0.00  0.00    -0.384 OA
ATOM     67  H   LIG    1       27.077 -26.777  11.635  0.00  0.00    +0.210 HD
ENDBRANCH  53  66
ENDBRANCH  51  52
ENDBRANCH  37  51
ENDBRANCH   1  35
TORSDOF 24
ENDMDL
MODEL 8
REMARK VINA RESULT:      -1.1      3.900      8.623
REMARK  Name = *****
REMARK                            x       y       z     vdW  Elec       q    Type
REMARK                         _______ _______ _______ _____ _____    ______ ____
ROOT
ATOM      1  O   LIG    1       24.957 -28.839   6.998  0.00  0.00    -0.340 OA
ENDROOT
BRANCH   1   5
ATOM      2  C   LIG    1       25.397 -25.182   6.902  0.00  0.00    +0.283 C 
ATOM      3  C   LIG    1       24.136 -25.934   6.396  0.00  0.00    +0.201 C 
ATOM      4  C   LIG    1       24.526 -27.050   5.413  0.00  0.00    +0.180 C 
ATOM      5  C   LIG    1       25.601 -27.984   6.020  0.00  0.00    +0.192 C 
ATOM      6  C   LIG    1       26.746 -27.165   6.644  0.00  0.00    +0.261 C 
ATOM      7  O   LIG    1       26.326 -26.094   7.499  0.00  0.00    -0.332 OA
BRANCH   6   8
ATOM      8  C   LIG    1       27.879 -26.865   5.685  0.00  0.00    +0.337 C 
ATOM      9  O   LIG    1       28.895 -26.217   5.938  0.00  0.00    -0.248 OA
BRANCH   8  10
ATOM     10  O   LIG    1       27.601 -27.284   4.432  0.00  0.00    -0.479 OA
ATOM     11  H   LIG    1       26.631 -27.381   4.317  0.00  0.00    +0.295 HD
ENDBRANCH   8  10
ENDBRANCH   6   8
BRANCH   4  12
ATOM     12  O   LIG    1       25.010 -26.490   4.192  0.00  0.00    -0.386 OA
ATOM     13  H   LIG    1       25.565 -27.161   3.752  0.00  0.00    +0.210 HD
ENDBRANCH   4  12
BRANCH   3  14
ATOM     14  O   LIG    1       23.406 -26.494   7.508  0.00  0.00    -0.384 OA
ATOM     15  H   LIG    1       22.486 -26.602   7.197  0.00  0.00    +0.210 HD
ENDBRANCH   3  14
BRANCH   2  16
ATOM     16  O   LIG    1       26.001 -24.415   5.870  0.00  0.00    -0.341 OA
BRANCH  16  18
ATOM     17  C   LIG    1       26.131 -22.358   7.342  0.00  0.00    +0.160 C 
ATOM     18  C   LIG    1       25.891 -22.976   5.945  0.00  0.00    +0.177 C 
ATOM     19  C   LIG    1       24.527 -22.642   5.318  0.00  0.00    +0.176 C 
ATOM     20  C   LIG    1       24.205 -21.157   5.491  0.00  0.00    +0.178 C 
ATOM     21  O   LIG    1       24.204 -20.850   6.885  0.00  0.00    -0.341 OA
ATOM     22  C   LIG    1       25.498 -20.945   7.456  0.00  0.00    +0.270 C 
BRANCH  17  25
ATOM     23  C   LIG    1       29.793 -21.274   7.747  0.00  0.00    +0.109 C 
ATOM     24  C   LIG    1       28.349 -21.165   7.319  0.00  0.00    +0.210 C 
ATOM     25  N   LIG    1       27.598 -22.286   7.601  0.00  0.00    -0.305 N 
ATOM     26  H   LIG    1       28.104 -23.141   7.794  0.00  0.00    +0.149 HD
ATOM     27  O   LIG    1       27.878 -20.129   6.871  0.00  0.00    -0.276 OA
ENDBRANCH  17  25
BRANCH  22  28
ATOM     28  O   LIG    1       25.347 -20.582   8.813  0.00  0.00    -0.365 OA
ATOM     29  H   LIG    1       26.067 -19.944   8.962  0.00  0.00    +0.212 HD
ENDBRANCH  22  28
BRANCH  19  30
ATOM     30  O   LIG    1       24.532 -22.968   3.920  0.00  0.00    -0.387 OA
ATOM     31  H   LIG    1       25.438 -22.824   3.575  0.00  0.00    +0.210 HD
ENDBRANCH  19  30
BRANCH  20  32
ATOM     32  C   LIG    1       22.831 -20.806   4.898  0.00  0.00    +0.190 C 
BRANCH  32  33
ATOM     33  O   LIG    1       21.864 -21.830   5.093  0.00  0.00    -0.392 OA
ATOM     34  H   LIG    1       21.115 -21.644   4.485  0.00  0.00    +0.209 HD
ENDBRANCH  32  33
ENDBRANCH  20  32
ENDBRANCH  16  18
ENDBRANCH   2  16
ENDBRANCH   1   5
BRANCH   1  35
ATOM     35  C   LIG    1       24.956 -30.245   6.709  0.00  0.00    +0.274 C 
ATOM     36  C   LIG    1       26.267 -30.879   7.202  0.00  0.00    +0.160 C 
ATOM     37  C   LIG    1       26.242 -31.113   8.721  0.00  0.00    +0.177 C 
ATOM     38  C   LIG    1       24.937 -31.831   9.126  0.00  0.00    +0.176 C 
ATOM     39  C   LIG    1       23.656 -31.219   8.515  0.00  0.00    +0.178 C 
ATOM     40  O   LIG    1       23.789 -30.949   7.114  0.00  0.00    -0.341 OA
BRANCH  36  41
ATOM     41  N   LIG    1       26.636 -32.074   6.436  0.00  0.00    -0.305 N 
ATOM     42  H   LIG    1       27.324 -32.713   6.817  0.00  0.00    +0.149 HD
ATOM     43  C   LIG    1       26.362 -32.143   5.086  0.00  0.00    +0.210 C 
ATOM     44  O   LIG    1       25.807 -31.244   4.466  0.00  0.00    -0.276 OA
ATOM     45  C   LIG    1       26.769 -33.442   4.452  0.00  0.00    +0.109 C 
ENDBRANCH  36  41
BRANCH  38  46
ATOM     46  O   LIG    1       25.047 -33.205   8.684  0.00  0.00    -0.387 OA
ATOM     47  H   LIG    1       24.760 -33.788   9.408  0.00  0.00    +0.210 HD
ENDBRANCH  38  46
BRANCH  39  48
ATOM     48  C   LIG    1       23.042 -30.048   9.288  0.00  0.00    +0.190 C 
BRANCH  48  49
ATOM     49  O   LIG    1       22.976 -30.316  10.684  0.00  0.00    -0.392 OA
ATOM     50  H   LIG    1       23.748 -30.852  10.936  0.00  0.00    +0.209 HD
ENDBRANCH  48  49
ENDBRANCH  39  48
BRANCH  37  51
ATOM     51  O   LIG    1       26.389 -29.902   9.482  0.00  0.00    -0.341 OA
BRANCH  51  52
ATOM     52  C   LIG    1       26.537 -30.087  10.900  0.00  0.00    +0.283 C 
ATOM     53  C   LIG    1       27.973 -29.710  11.314  0.00  0.00    +0.201 C 
ATOM     54  C   LIG    1       28.076 -29.507  12.825  0.00  0.00    +0.179 C 
ATOM     55  C   LIG    1       26.938 -28.652  13.408  0.00  0.00    +0.185 C 
ATOM     56  C   LIG    1       25.863 -28.288  12.378  0.00  0.00    +0.260 C 
ATOM     57  O   LIG    1       25.489 -29.415  11.590  0.00  0.00    -0.332 OA
BRANCH  56  58
ATOM     58  C   LIG    1       26.196 -27.027  11.582  0.00  0.00    +0.337 C 
ATOM     59  O   LIG    1       26.385 -26.990  10.371  0.00  0.00    -0.248 OA
BRANCH  58  60
ATOM     60  O   LIG    1       26.322 -25.929  12.358  0.00  0.00    -0.479 OA
ATOM     61  H   LIG    1       25.951 -26.075  13.255  0.00  0.00    +0.295 HD
ENDBRANCH  58  60
ENDBRANCH  56  58
BRANCH  55  62
ATOM     62  O   LIG    1       26.313 -29.406  14.475  0.00  0.00    -0.386 OA
ATOM     63  H   LIG    1       26.215 -28.827  15.252  0.00  0.00    +0.210 HD
ENDBRANCH  55  62
BRANCH  54  64
ATOM     64  O   LIG    1       29.343 -28.893  13.112  0.00  0.00    -0.386 OA
ATOM     65  H   LIG    1       29.347 -28.030  12.654  0.00  0.00    +0.210 HD
ENDBRANCH  54  64
BRANCH  53  66
ATOM     66  O   LIG    1       28.934 -30.715  10.922  0.00  0.00    -0.384 OA
ATOM     67  H   LIG    1       29.265 -31.192  11.714  0.00  0.00    +0.210 HD
ENDBRANCH  53  66
ENDBRANCH  51  52
ENDBRANCH  37  51
ENDBRANCH   1  35
TORSDOF 24
ENDMDL
MODEL 9
REMARK VINA RESULT:      -0.9      3.907      7.596
REMARK  Name = *****
REMARK                            x       y       z     vdW  Elec       q    Type
REMARK                         _______ _______ _______ _____ _____    ______ ____
ROOT
ATOM      1  O   LIG    1       25.080 -28.926   6.821  0.00  0.00    -0.340 OA
ENDROOT
BRANCH   1   5
ATOM      2  C   LIG    1       24.945 -25.244   6.828  0.00  0.00    +0.283 C 
ATOM      3  C   LIG    1       23.856 -26.167   6.217  0.00  0.00    +0.201 C 
ATOM      4  C   LIG    1       24.485 -27.179   5.244  0.00  0.00    +0.180 C 
ATOM      5  C   LIG    1       25.648 -27.953   5.910  0.00  0.00    +0.192 C 
ATOM      6  C   LIG    1       26.604 -26.985   6.632  0.00  0.00    +0.261 C 
ATOM      7  O   LIG    1       25.962 -26.018   7.474  0.00  0.00    -0.332 OA
BRANCH   6   8
ATOM      8  C   LIG    1       27.740 -26.483   5.765  0.00  0.00    +0.337 C 
ATOM      9  O   LIG    1       28.378 -25.444   5.931  0.00  0.00    -0.248 OA
BRANCH   8  10
ATOM     10  O   LIG    1       27.911 -27.251   4.668  0.00  0.00    -0.479 OA
ATOM     11  H   LIG    1       28.256 -26.707   3.927  0.00  0.00    +0.295 HD
ENDBRANCH   8  10
ENDBRANCH   6   8
BRANCH   4  12
ATOM     12  O   LIG    1       24.958 -26.513   4.072  0.00  0.00    -0.386 OA
ATOM     13  H   LIG    1       24.984 -27.165   3.346  0.00  0.00    +0.210 HD
ENDBRANCH   4  12
BRANCH   3  14
ATOM     14  O   LIG    1       23.148 -26.868   7.260  0.00  0.00    -0.384 OA
ATOM     15  H   LIG    1       23.800 -27.470   7.669  0.00  0.00    +0.210 HD
ENDBRANCH   3  14
BRANCH   2  16
ATOM     16  O   LIG    1       25.491 -24.362   5.858  0.00  0.00    -0.341 OA
BRANCH  16  18
ATOM     17  C   LIG    1       25.129 -22.052   4.882  0.00  0.00    +0.160 C 
ATOM     18  C   LIG    1       25.412 -22.942   6.116  0.00  0.00    +0.177 C 
ATOM     19  C   LIG    1       26.703 -22.596   6.877  0.00  0.00    +0.176 C 
ATOM     20  C   LIG    1       26.830 -21.083   7.062  0.00  0.00    +0.178 C 
ATOM     21  O   LIG    1       26.827 -20.465   5.775  0.00  0.00    -0.341 OA
ATOM     22  C   LIG    1       25.572 -20.584   5.125  0.00  0.00    +0.270 C 
BRANCH  17  25
ATOM     23  C   LIG    1       21.328 -21.523   4.737  0.00  0.00    +0.109 C 
ATOM     24  C   LIG    1       22.729 -21.404   5.286  0.00  0.00    +0.210 C 
ATOM     25  N   LIG    1       23.672 -22.104   4.565  0.00  0.00    -0.305 N 
ATOM     26  H   LIG    1       23.332 -22.823   3.941  0.00  0.00    +0.149 HD
ATOM     27  O   LIG    1       23.003 -20.659   6.217  0.00  0.00    -0.276 OA
ENDBRANCH  17  25
BRANCH  22  28
ATOM     28  O   LIG    1       25.710 -19.903   3.895  0.00  0.00    -0.365 OA
ATOM     29  H   LIG    1       24.791 -19.723   3.629  0.00  0.00    +0.212 HD
ENDBRANCH  22  28
BRANCH  19  30
ATOM     30  O   LIG    1       26.704 -23.234   8.164  0.00  0.00    -0.387 OA
ATOM     31  H   LIG    1       27.619 -23.213   8.515  0.00  0.00    +0.210 HD
ENDBRANCH  19  30
BRANCH  20  32
ATOM     32  C   LIG    1       28.129 -20.713   7.794  0.00  0.00    +0.190 C 
BRANCH  32  33
ATOM     33  O   LIG    1       29.241 -21.500   7.386  0.00  0.00    -0.392 OA
ATOM     34  H   LIG    1       30.018 -20.902   7.331  0.00  0.00    +0.209 HD
ENDBRANCH  32  33
ENDBRANCH  20  32
ENDBRANCH  16  18
ENDBRANCH   2  16
ENDBRANCH   1   5
BRANCH   1  35
ATOM     35  C   LIG    1       26.015 -29.766   7.515  0.00  0.00    +0.274 C 
ATOM     36  C   LIG    1       25.699 -29.765   9.020  0.00  0.00    +0.160 C 
ATOM     37  C   LIG    1       24.512 -30.686   9.345  0.00  0.00    +0.177 C 
ATOM     38  C   LIG    1       24.716 -32.068   8.687  0.00  0.00    +0.176 C 
ATOM     39  C   LIG    1       25.141 -32.010   7.202  0.00  0.00    +0.178 C 
ATOM     40  O   LIG    1       26.192 -31.065   6.966  0.00  0.00    -0.341 OA
BRANCH  36  41
ATOM     41  N   LIG    1       26.883 -30.030   9.843  0.00  0.00    -0.305 N 
ATOM     42  H   LIG    1       27.181 -30.988   9.987  0.00  0.00    +0.149 HD
ATOM     43  C   LIG    1       27.354 -29.066  10.709  0.00  0.00    +0.210 C 
ATOM     44  O   LIG    1       26.834 -27.964  10.835  0.00  0.00    -0.276 OA
ATOM     45  C   LIG    1       28.591 -29.475  11.456  0.00  0.00    +0.109 C 
ENDBRANCH  36  41
BRANCH  38  46
ATOM     46  O   LIG    1       25.750 -32.752   9.435  0.00  0.00    -0.387 OA
ATOM     47  H   LIG    1       25.708 -33.701   9.227  0.00  0.00    +0.210 HD
ENDBRANCH  38  46
BRANCH  39  48
ATOM     48  C   LIG    1       24.000 -31.893   6.186  0.00  0.00    +0.190 C 
BRANCH  48  49
ATOM     49  O   LIG    1       23.027 -32.915   6.369  0.00  0.00    -0.392 OA
ATOM     50  H   LIG    1       22.352 -32.597   6.992  0.00  0.00    +0.209 HD
ENDBRANCH  48  49
ENDBRANCH  39  48
BRANCH  37  51
ATOM     51  O   LIG    1       23.244 -30.138   8.945  0.00  0.00    -0.341 OA
BRANCH  51  52
ATOM     52  C   LIG    1       22.150 -30.421   9.833  0.00  0.00    +0.283 C 
ATOM     53  C   LIG    1       22.106 -31.935  10.119  0.00  0.00    +0.201 C 
ATOM     54  C   LIG    1       21.238 -32.240  11.339  0.00  0.00    +0.179 C 
ATOM     55  C   LIG    1       21.517 -31.316  12.537  0.00  0.00    +0.185 C 
ATOM     56  C   LIG    1       22.512 -30.194  12.220  0.00  0.00    +0.260 C 
ATOM     57  O   LIG    1       22.218 -29.569  10.973  0.00  0.00    -0.332 OA
BRANCH  56  58
ATOM     58  C   LIG    1       23.969 -30.615  12.402  0.00  0.00    +0.337 C 
ATOM     59  O   LIG    1       24.354 -31.769  12.555  0.00  0.00    -0.248 OA
BRANCH  58  60
ATOM     60  O   LIG    1       24.822 -29.568  12.436  0.00  0.00    -0.479 OA
ATOM     61  H   LIG    1       24.553 -28.903  13.106  0.00  0.00    +0.295 HD
ENDBRANCH  58  60
ENDBRANCH  56  58
BRANCH  55  62
ATOM     62  O   LIG    1       20.262 -30.715  12.939  0.00  0.00    -0.386 OA
ATOM     63  H   LIG    1       20.364 -29.745  12.934  0.00  0.00    +0.210 HD
ENDBRANCH  55  62
BRANCH  54  64
ATOM     64  O   LIG    1       21.460 -33.608  11.718  0.00  0.00    -0.386 OA
ATOM     65  H   LIG    1       20.677 -34.112  11.424  0.00  0.00    +0.210 HD
ENDBRANCH  54  64
BRANCH  53  66
ATOM     66  O   LIG    1       21.594 -32.685   8.995  0.00  0.00    -0.384 OA
ATOM     67  H   LIG    1       21.704 -32.169   8.168  0.00  0.00    +0.210 HD
ENDBRANCH  53  66
ENDBRANCH  51  52
ENDBRANCH  37  51
ENDBRANCH   1  35
TORSDOF 24
ENDMDL
