MODEL 1
REMARK VINA RESULT:       3.1      0.000      0.000
REMARK  Name = *****
REMARK                            x       y       z     vdW  Elec       q    Type
REMARK                         _______ _______ _______ _____ _____    ______ ____
ROOT
ATOM      1  C   LIG    1       26.513 -18.864   4.495  0.00  0.00    +0.231 A 
ATOM      2  C   LIG    1       27.725 -18.212   4.669  0.00  0.00    +0.264 A 
ATOM      3  N   LIG    1       27.892 -16.891   4.479  0.00  0.00    -0.187 NA
ATOM      4  C   LIG    1       26.933 -16.170   3.889  0.00  0.00    +0.203 A 
ATOM      5  N   LIG    1       25.791 -16.737   3.474  0.00  0.00    -0.204 NA
ATOM      6  C   LIG    1       25.593 -18.037   3.817  0.00  0.00    +0.188 A 
ENDROOT
BRANCH   4   7
ATOM      7  C   LIG    1       27.325 -14.774   3.498  0.00  0.00    +0.198 A 
ATOM      8  N   LIG    1       26.578 -14.178   2.523  0.00  0.00    -0.233 NA
ATOM      9  C   LIG    1       26.837 -12.887   2.245  0.00  0.00    +0.115 A 
ATOM     10  C   LIG    1       27.816 -12.165   2.876  0.00  0.00    +0.039 A 
ATOM     11  C   LIG    1       28.543 -12.855   3.819  0.00  0.00    +0.115 A 
ATOM     12  N   LIG    1       28.323 -14.145   4.152  0.00  0.00    -0.233 NA
ENDBRANCH   4   7
BRANCH   6  13
ATOM     13  N   LIG    1       24.375 -18.533   3.232  0.00  0.00    -0.196 N 
ATOM     14  H   LIG    1       24.412 -19.491   2.919  0.00  0.00    +0.175 HD
BRANCH  13  15
ATOM     15  S   LIG    1       22.965 -18.201   4.086  0.00  0.00    +0.074 S 
ATOM     16  O   LIG    1       22.994 -18.810   5.359  0.00  0.00    -0.150 OA
ATOM     17  O   LIG    1       21.869 -18.429   3.154  0.00  0.00    -0.150 OA
BRANCH  15  18
ATOM     18  C   LIG    1       23.041 -16.425   4.331  0.00  0.00    +0.109 A 
ATOM     19  C   LIG    1       22.874 -15.830   5.587  0.00  0.00    +0.029 A 
ATOM     20  C   LIG    1       23.134 -14.455   5.767  0.00  0.00    +0.006 A 
ATOM     21  C   LIG    1       23.554 -13.646   4.695  0.00  0.00    -0.042 A 
ATOM     22  C   LIG    1       23.685 -14.278   3.442  0.00  0.00    +0.006 A 
ATOM     23  C   LIG    1       23.439 -15.647   3.251  0.00  0.00    +0.029 A 
BRANCH  21  24
ATOM     24  C   LIG    1       23.941 -12.155   4.853  0.00  0.00    -0.013 C 
ATOM     25  C   LIG    1       25.376 -11.927   5.380  0.00  0.00    +0.015 C 
ATOM     26  C   LIG    1       22.990 -11.447   5.852  0.00  0.00    +0.015 C 
ATOM     27  C   LIG    1       23.838 -11.448   3.484  0.00  0.00    +0.015 C 
ENDBRANCH  21  24
ENDBRANCH  15  18
ENDBRANCH  13  15
ENDBRANCH   6  13
BRANCH   1  28
ATOM     28  O   LIG    1       26.050 -19.899   5.289  0.00  0.00    -0.444 OA
BRANCH  28  30
ATOM     29  C   LIG    1       23.995 -21.174   4.428  0.00  0.00    +0.162 A 
ATOM     30  C   LIG    1       24.859 -20.606   5.375  0.00  0.00    +0.170 A 
ATOM     31  C   LIG    1       24.359 -20.608   6.708  0.00  0.00    +0.050 A 
ATOM     32  C   LIG    1       23.084 -21.105   7.062  0.00  0.00    +0.004 A 
ATOM     33  C   LIG    1       22.214 -21.543   6.081  0.00  0.00    +0.004 A 
ATOM     34  C   LIG    1       22.675 -21.571   4.775  0.00  0.00    +0.049 A 
BRANCH  29  36
ATOM     35  C   LIG    1       23.282 -20.977   2.233  0.00  0.00    +0.277 C 
ATOM     36  O   LIG    1       24.223 -21.496   3.124  0.00  0.00    -0.491 OA
ENDBRANCH  29  36
ENDBRANCH  28  30
ENDBRANCH   1  28
BRANCH   2  37
ATOM     37  O   LIG    1       28.912 -18.899   4.828  0.00  0.00    -0.471 OA
BRANCH  37  38
ATOM     38  C   LIG    1       29.312 -19.051   6.237  0.00  0.00    +0.258 C 
BRANCH  38  39
ATOM     39  C   LIG    1       29.260 -20.516   6.701  0.00  0.00    +0.197 C 
BRANCH  39  40
ATOM     40  O   LIG    1       27.910 -20.961   6.778  0.00  0.00    -0.392 OA
ATOM     41  H   LIG    1       27.971 -21.933   6.839  0.00  0.00    +0.209 HD
ENDBRANCH  39  40
ENDBRANCH  38  39
ENDBRANCH  37  38
ENDBRANCH   2  37
TORSDOF 12
ENDMDL
