MODEL 1
REMARK VINA RESULT:      -7.6      0.000      0.000
REMARK  Name = *****
REMARK                            x       y       z     vdW  Elec       q    Type
REMARK                         _______ _______ _______ _____ _____    ______ ____
ROOT
ATOM      1  N   LIG    1       29.164 -20.155   7.231  0.00  0.00    -0.322 N 
ATOM      2  C   LIG    1       27.842 -20.447   7.039  0.00  0.00    +0.151 A 
ATOM      3  C   LIG    1       26.937 -21.269   7.771  0.00  0.00    +0.282 C 
ATOM      4  N   LIG    1       25.735 -21.488   7.083  0.00  0.00    -0.262 N 
ATOM      5  C   LIG    1       25.377 -20.908   5.849  0.00  0.00    +0.333 C 
ATOM      6  N   LIG    1       26.303 -20.052   5.252  0.00  0.00    -0.280 N 
ATOM      7  C   LIG    1       26.039 -19.472   3.948  0.00  0.00    +0.155 C 
ATOM      8  O   LIG    1       24.287 -21.159   5.324  0.00  0.00    -0.246 OA
ATOM      9  C   LIG    1       24.765 -22.381   7.685  0.00  0.00    +0.157 C 
ATOM     10  O   LIG    1       27.192 -21.727   8.873  0.00  0.00    -0.265 OA
ATOM     11  C   LIG    1       27.520 -19.851   5.859  0.00  0.00    +0.168 A 
ATOM     12  N   LIG    1       28.547 -19.102   5.367  0.00  0.00    -0.218 NA
ATOM     13  C   LIG    1       29.531 -19.298   6.222  0.00  0.00    +0.202 A 
ENDROOT
BRANCH   1  14
ATOM     14  C   LIG    1       30.064 -20.741   8.210  0.00  0.00    +0.156 C 
BRANCH  14  15
ATOM     15  C   LIG    1       31.201 -19.779   8.596  0.00  0.00    +0.148 C 
BRANCH  15  16
ATOM     16  O   LIG    1       32.244 -20.461   9.315  0.00  0.00    -0.389 OA
ATOM     17  H   LIG    1       32.931 -20.731   8.677  0.00  0.00    +0.210 HD
ENDBRANCH  15  16
BRANCH  15  18
ATOM     18  C   LIG    1       30.706 -18.611   9.480  0.00  0.00    +0.117 C 
BRANCH  18  20
ATOM     19  C   LIG    1       32.432 -16.931   9.539  0.00  0.00    +0.105 C 
ATOM     20  N   LIG    1       31.713 -17.946  10.323  0.00  0.00    -0.301 NA
BRANCH  20  21
ATOM     21  C   LIG    1       31.148 -17.347  11.547  0.00  0.00    +0.112 C 
BRANCH  21  22
ATOM     22  C   LIG    1       32.121 -16.593  12.465  0.00  0.00    +0.171 C 
BRANCH  22  23
ATOM     23  O   LIG    1       31.471 -15.448  13.002  0.00  0.00    -0.394 OA
ATOM     24  H   LIG    1       30.544 -15.698  13.155  0.00  0.00    +0.209 HD
ENDBRANCH  22  23
ENDBRANCH  21  22
ENDBRANCH  20  21
ENDBRANCH  18  20
ENDBRANCH  15  18
ENDBRANCH  14  15
ENDBRANCH   1  14
TORSDOF 8
ENDMDL
MODEL 2
REMARK VINA RESULT:      -7.1      2.206      3.819
REMARK  Name = *****
REMARK                            x       y       z     vdW  Elec       q    Type
REMARK                         _______ _______ _______ _____ _____    ______ ____
ROOT
ATOM      1  N   LIG    1       26.824 -21.566   6.532  0.00  0.00    -0.322 N 
ATOM      2  C   LIG    1       25.646 -21.312   5.885  0.00  0.00    +0.151 A 
ATOM      3  C   LIG    1       25.269 -20.287   4.968  0.00  0.00    +0.282 C 
ATOM      4  N   LIG    1       23.887 -20.253   4.741  0.00  0.00    -0.262 N 
ATOM      5  C   LIG    1       22.945 -21.163   5.261  0.00  0.00    +0.333 C 
ATOM      6  N   LIG    1       23.427 -22.180   6.085  0.00  0.00    -0.280 N 
ATOM      7  C   LIG    1       22.514 -23.115   6.717  0.00  0.00    +0.155 C 
ATOM      8  O   LIG    1       21.743 -21.053   4.995  0.00  0.00    -0.246 OA
ATOM      9  C   LIG    1       23.368 -19.198   3.893  0.00  0.00    +0.157 C 
ATOM     10  O   LIG    1       26.072 -19.529   4.447  0.00  0.00    -0.265 OA
ATOM     11  C   LIG    1       24.768 -22.223   6.386  0.00  0.00    +0.168 A 
ATOM     12  N   LIG    1       25.374 -23.108   7.225  0.00  0.00    -0.218 NA
ATOM     13  C   LIG    1       26.623 -22.693   7.292  0.00  0.00    +0.202 A 
ENDROOT
BRANCH   1  14
ATOM     14  C   LIG    1       28.018 -20.738   6.548  0.00  0.00    +0.156 C 
BRANCH  14  15
ATOM     15  C   LIG    1       28.436 -20.360   7.980  0.00  0.00    +0.148 C 
BRANCH  15  16
ATOM     16  O   LIG    1       27.302 -19.961   8.769  0.00  0.00    -0.389 OA
ATOM     17  H   LIG    1       27.210 -20.588   9.512  0.00  0.00    +0.210 HD
ENDBRANCH  15  16
BRANCH  15  18
ATOM     18  C   LIG    1       29.458 -19.198   8.005  0.00  0.00    +0.117 C 
BRANCH  18  20
ATOM     19  C   LIG    1       31.086 -20.771   8.827  0.00  0.00    +0.105 C 
ATOM     20  N   LIG    1       30.637 -19.372   8.868  0.00  0.00    -0.301 NA
BRANCH  20  21
ATOM     21  C   LIG    1       31.749 -18.464   8.528  0.00  0.00    +0.112 C 
BRANCH  21  22
ATOM     22  C   LIG    1       31.917 -17.214   9.405  0.00  0.00    +0.171 C 
BRANCH  22  23
ATOM     23  O   LIG    1       32.672 -16.240   8.696  0.00  0.00    -0.394 OA
ATOM     24  H   LIG    1       32.726 -16.543   7.774  0.00  0.00    +0.209 HD
ENDBRANCH  22  23
ENDBRANCH  21  22
ENDBRANCH  20  21
ENDBRANCH  18  20
ENDBRANCH  15  18
ENDBRANCH  14  15
ENDBRANCH   1  14
TORSDOF 8
ENDMDL
MODEL 3
REMARK VINA RESULT:      -6.9      2.446      4.088
REMARK  Name = *****
REMARK                            x       y       z     vdW  Elec       q    Type
REMARK                         _______ _______ _______ _____ _____    ______ ____
ROOT
ATOM      1  N   LIG    1       27.076 -20.941   6.361  0.00  0.00    -0.322 N 
ATOM      2  C   LIG    1       25.847 -20.881   5.764  0.00  0.00    +0.151 A 
ATOM      3  C   LIG    1       25.308 -19.990   4.791  0.00  0.00    +0.282 C 
ATOM      4  N   LIG    1       23.922 -20.135   4.641  0.00  0.00    -0.262 N 
ATOM      5  C   LIG    1       23.121 -21.100   5.285  0.00  0.00    +0.333 C 
ATOM      6  N   LIG    1       23.759 -21.979   6.159  0.00  0.00    -0.280 N 
ATOM      7  C   LIG    1       22.995 -22.954   6.915  0.00  0.00    +0.155 C 
ATOM      8  O   LIG    1       21.904 -21.152   5.080  0.00  0.00    -0.246 OA
ATOM      9  C   LIG    1       23.241 -19.224   3.742  0.00  0.00    +0.157 C 
ATOM     10  O   LIG    1       25.988 -19.192   4.166  0.00  0.00    -0.265 OA
ATOM     11  C   LIG    1       25.109 -21.840   6.386  0.00  0.00    +0.168 A 
ATOM     12  N   LIG    1       25.855 -22.574   7.258  0.00  0.00    -0.218 NA
ATOM     13  C   LIG    1       27.047 -22.014   7.220  0.00  0.00    +0.202 A 
ENDROOT
BRANCH   1  14
ATOM     14  C   LIG    1       28.162 -19.982   6.243  0.00  0.00    +0.156 C 
BRANCH  14  15
ATOM     15  C   LIG    1       29.138 -20.070   7.429  0.00  0.00    +0.148 C 
BRANCH  15  16
ATOM     16  O   LIG    1       28.714 -19.235   8.520  0.00  0.00    -0.389 OA
ATOM     17  H   LIG    1       28.101 -18.560   8.171  0.00  0.00    +0.210 HD
ENDBRANCH  15  16
BRANCH  15  18
ATOM     18  C   LIG    1       30.573 -19.642   7.040  0.00  0.00    +0.117 C 
BRANCH  18  20
ATOM     19  C   LIG    1       31.966 -18.350   8.521  0.00  0.00    +0.105 C 
ATOM     20  N   LIG    1       31.593 -19.708   8.099  0.00  0.00    -0.301 NA
BRANCH  20  21
ATOM     21  C   LIG    1       31.177 -20.513   9.263  0.00  0.00    +0.112 C 
BRANCH  21  22
ATOM     22  C   LIG    1       31.160 -22.038   9.083  0.00  0.00    +0.171 C 
BRANCH  22  23
ATOM     23  O   LIG    1       32.394 -22.459   8.515  0.00  0.00    -0.394 OA
ATOM     24  H   LIG    1       32.352 -22.250   7.566  0.00  0.00    +0.209 HD
ENDBRANCH  22  23
ENDBRANCH  21  22
ENDBRANCH  20  21
ENDBRANCH  18  20
ENDBRANCH  15  18
ENDBRANCH  14  15
ENDBRANCH   1  14
TORSDOF 8
ENDMDL
MODEL 4
REMARK VINA RESULT:      -6.7      3.711      8.510
REMARK  Name = *****
REMARK                            x       y       z     vdW  Elec       q    Type
REMARK                         _______ _______ _______ _____ _____    ______ ____
ROOT
ATOM      1  N   LIG    1       25.385 -22.588   7.261  0.00  0.00    -0.322 N 
ATOM      2  C   LIG    1       25.852 -21.490   6.593  0.00  0.00    +0.151 A 
ATOM      3  C   LIG    1       25.419 -20.854   5.394  0.00  0.00    +0.282 C 
ATOM      4  N   LIG    1       26.337 -19.901   4.930  0.00  0.00    -0.262 N 
ATOM      5  C   LIG    1       27.523 -19.514   5.586  0.00  0.00    +0.333 C 
ATOM      6  N   LIG    1       27.816 -20.140   6.797  0.00  0.00    -0.280 N 
ATOM      7  C   LIG    1       29.053 -19.848   7.499  0.00  0.00    +0.155 C 
ATOM      8  O   LIG    1       28.266 -18.657   5.098  0.00  0.00    -0.246 OA
ATOM      9  C   LIG    1       26.051 -19.247   3.669  0.00  0.00    +0.157 C 
ATOM     10  O   LIG    1       24.363 -21.119   4.841  0.00  0.00    -0.265 OA
ATOM     11  C   LIG    1       26.977 -21.123   7.267  0.00  0.00    +0.168 A 
ATOM     12  N   LIG    1       27.165 -21.868   8.391  0.00  0.00    -0.218 NA
ATOM     13  C   LIG    1       26.182 -22.746   8.369  0.00  0.00    +0.202 A 
ENDROOT
BRANCH   1  14
ATOM     14  C   LIG    1       24.351 -23.511   6.825  0.00  0.00    +0.156 C 
BRANCH  14  15
ATOM     15  C   LIG    1       24.885 -24.535   5.808  0.00  0.00    +0.148 C 
BRANCH  15  16
ATOM     16  O   LIG    1       24.785 -24.038   4.463  0.00  0.00    -0.389 OA
ATOM     17  H   LIG    1       25.586 -24.310   3.975  0.00  0.00    +0.210 HD
ENDBRANCH  15  16
BRANCH  15  18
ATOM     18  C   LIG    1       24.120 -25.878   5.871  0.00  0.00    +0.117 C 
BRANCH  18  20
ATOM     19  C   LIG    1       26.338 -26.772   5.583  0.00  0.00    +0.105 C 
ATOM     20  N   LIG    1       24.906 -27.100   5.636  0.00  0.00    -0.301 NA
BRANCH  20  21
ATOM     21  C   LIG    1       24.656 -28.157   6.635  0.00  0.00    +0.112 C 
BRANCH  21  22
ATOM     22  C   LIG    1       24.383 -29.570   6.097  0.00  0.00    +0.171 C 
BRANCH  22  23
ATOM     23  O   LIG    1       23.139 -29.580   5.409  0.00  0.00    -0.394 OA
ATOM     24  H   LIG    1       22.454 -29.358   6.064  0.00  0.00    +0.209 HD
ENDBRANCH  22  23
ENDBRANCH  21  22
ENDBRANCH  20  21
ENDBRANCH  18  20
ENDBRANCH  15  18
ENDBRANCH  14  15
ENDBRANCH   1  14
TORSDOF 8
ENDMDL
MODEL 5
REMARK VINA RESULT:      -6.5      2.130      2.924
REMARK  Name = *****
REMARK                            x       y       z     vdW  Elec       q    Type
REMARK                         _______ _______ _______ _____ _____    ______ ____
ROOT
ATOM      1  N   LIG    1       27.071 -20.684   6.096  0.00  0.00    -0.322 N 
ATOM      2  C   LIG    1       25.723 -20.910   6.100  0.00  0.00    +0.151 A 
ATOM      3  C   LIG    1       24.912 -21.797   6.866  0.00  0.00    +0.282 C 
ATOM      4  N   LIG    1       23.602 -21.887   6.374  0.00  0.00    -0.262 N 
ATOM      5  C   LIG    1       23.072 -21.137   5.304  0.00  0.00    +0.333 C 
ATOM      6  N   LIG    1       23.927 -20.235   4.671  0.00  0.00    -0.280 N 
ATOM      7  C   LIG    1       23.479 -19.478   3.517  0.00  0.00    +0.155 C 
ATOM      8  O   LIG    1       21.898 -21.284   4.948  0.00  0.00    -0.246 OA
ATOM      9  C   LIG    1       22.703 -22.825   7.016  0.00  0.00    +0.157 C 
ATOM     10  O   LIG    1       25.324 -22.406   7.840  0.00  0.00    -0.265 OA
ATOM     11  C   LIG    1       25.238 -20.152   5.079  0.00  0.00    +0.168 A 
ATOM     12  N   LIG    1       26.204 -19.374   4.517  0.00  0.00    -0.218 NA
ATOM     13  C   LIG    1       27.307 -19.710   5.156  0.00  0.00    +0.202 A 
ENDROOT
BRANCH   1  14
ATOM     14  C   LIG    1       28.091 -21.422   6.822  0.00  0.00    +0.156 C 
BRANCH  14  15
ATOM     15  C   LIG    1       28.454 -20.744   8.154  0.00  0.00    +0.148 C 
BRANCH  15  16
ATOM     16  O   LIG    1       27.300 -20.147   8.770  0.00  0.00    -0.389 OA
ATOM     17  H   LIG    1       27.589 -19.352   9.258  0.00  0.00    +0.210 HD
ENDBRANCH  15  16
BRANCH  15  18
ATOM     18  C   LIG    1       29.518 -19.635   7.977  0.00  0.00    +0.117 C 
BRANCH  18  20
ATOM     19  C   LIG    1       31.221 -21.068   8.899  0.00  0.00    +0.105 C 
ATOM     20  N   LIG    1       30.693 -19.696   8.861  0.00  0.00    -0.301 NA
BRANCH  20  21
ATOM     21  C   LIG    1       31.756 -18.744   8.488  0.00  0.00    +0.112 C 
BRANCH  21  22
ATOM     22  C   LIG    1       31.895 -17.483   9.354  0.00  0.00    +0.171 C 
BRANCH  22  23
ATOM     23  O   LIG    1       32.556 -16.470   8.607  0.00  0.00    -0.394 OA
ATOM     24  H   LIG    1       32.971 -15.871   9.252  0.00  0.00    +0.209 HD
ENDBRANCH  22  23
ENDBRANCH  21  22
ENDBRANCH  20  21
ENDBRANCH  18  20
ENDBRANCH  15  18
ENDBRANCH  14  15
ENDBRANCH   1  14
TORSDOF 8
ENDMDL
MODEL 6
REMARK VINA RESULT:      -6.3      6.896     10.495
REMARK  Name = *****
REMARK                            x       y       z     vdW  Elec       q    Type
REMARK                         _______ _______ _______ _____ _____    ______ ____
ROOT
ATOM      1  N   LIG    1       24.921 -28.627   6.555  0.00  0.00    -0.322 N 
ATOM      2  C   LIG    1       25.232 -29.253   7.731  0.00  0.00    +0.151 A 
ATOM      3  C   LIG    1       26.125 -28.902   8.785  0.00  0.00    +0.282 C 
ATOM      4  N   LIG    1       26.326 -29.953   9.690  0.00  0.00    -0.262 N 
ATOM      5  C   LIG    1       25.673 -31.202   9.659  0.00  0.00    +0.333 C 
ATOM      6  N   LIG    1       24.756 -31.417   8.630  0.00  0.00    -0.280 N 
ATOM      7  C   LIG    1       24.095 -32.701   8.487  0.00  0.00    +0.155 C 
ATOM      8  O   LIG    1       25.915 -32.065  10.509  0.00  0.00    -0.246 OA
ATOM      9  C   LIG    1       27.282 -29.749  10.760  0.00  0.00    +0.157 C 
ATOM     10  O   LIG    1       26.651 -27.804   8.878  0.00  0.00    -0.265 OA
ATOM     11  C   LIG    1       24.566 -30.438   7.683  0.00  0.00    +0.168 A 
ATOM     12  N   LIG    1       23.760 -30.528   6.588  0.00  0.00    -0.218 NA
ATOM     13  C   LIG    1       23.989 -29.414   5.923  0.00  0.00    +0.202 A 
ENDROOT
BRANCH   1  14
ATOM     14  C   LIG    1       25.551 -27.444   5.992  0.00  0.00    +0.156 C 
BRANCH  14  15
ATOM     15  C   LIG    1       24.757 -26.165   6.309  0.00  0.00    +0.148 C 
BRANCH  15  16
ATOM     16  O   LIG    1       23.615 -26.030   5.446  0.00  0.00    -0.389 OA
ATOM     17  H   LIG    1       22.934 -25.511   5.916  0.00  0.00    +0.210 HD
ENDBRANCH  15  16
BRANCH  15  18
ATOM     18  C   LIG    1       25.617 -24.888   6.153  0.00  0.00    +0.117 C 
BRANCH  18  20
ATOM     19  C   LIG    1       26.343 -22.950   7.387  0.00  0.00    +0.105 C 
ATOM     20  N   LIG    1       25.175 -23.698   6.897  0.00  0.00    -0.301 NA
BRANCH  20  21
ATOM     21  C   LIG    1       24.289 -22.815   6.115  0.00  0.00    +0.112 C 
BRANCH  21  22
ATOM     22  C   LIG    1       22.874 -22.585   6.668  0.00  0.00    +0.171 C 
BRANCH  22  23
ATOM     23  O   LIG    1       22.163 -23.817   6.669  0.00  0.00    -0.394 OA
ATOM     24  H   LIG    1       22.825 -24.523   6.566  0.00  0.00    +0.209 HD
ENDBRANCH  22  23
ENDBRANCH  21  22
ENDBRANCH  20  21
ENDBRANCH  18  20
ENDBRANCH  15  18
ENDBRANCH  14  15
ENDBRANCH   1  14
TORSDOF 8
ENDMDL
MODEL 7
REMARK VINA RESULT:      -6.2      2.537      3.403
REMARK  Name = *****
REMARK                            x       y       z     vdW  Elec       q    Type
REMARK                         _______ _______ _______ _____ _____    ______ ____
ROOT
ATOM      1  N   LIG    1       27.449 -19.976   5.469  0.00  0.00    -0.322 N 
ATOM      2  C   LIG    1       26.488 -20.391   6.349  0.00  0.00    +0.151 A 
ATOM      3  C   LIG    1       26.576 -20.948   7.658  0.00  0.00    +0.282 C 
ATOM      4  N   LIG    1       25.352 -21.465   8.105  0.00  0.00    -0.262 N 
ATOM      5  C   LIG    1       24.125 -21.386   7.416  0.00  0.00    +0.333 C 
ATOM      6  N   LIG    1       24.129 -20.749   6.175  0.00  0.00    -0.280 N 
ATOM      7  C   LIG    1       22.922 -20.689   5.372  0.00  0.00    +0.155 C 
ATOM      8  O   LIG    1       23.095 -21.868   7.899  0.00  0.00    -0.246 OA
ATOM      9  C   LIG    1       25.332 -22.137   9.389  0.00  0.00    +0.157 C 
ATOM     10  O   LIG    1       27.610 -20.967   8.307  0.00  0.00    -0.265 OA
ATOM     11  C   LIG    1       25.316 -20.276   5.666  0.00  0.00    +0.168 A 
ATOM     12  N   LIG    1       25.490 -19.696   4.446  0.00  0.00    -0.218 NA
ATOM     13  C   LIG    1       26.793 -19.517   4.353  0.00  0.00    +0.202 A 
ENDROOT
BRANCH   1  14
ATOM     14  C   LIG    1       28.889 -20.123   5.602  0.00  0.00    +0.156 C 
BRANCH  14  15
ATOM     15  C   LIG    1       29.540 -18.872   6.217  0.00  0.00    +0.148 C 
BRANCH  15  16
ATOM     16  O   LIG    1       29.725 -17.840   5.233  0.00  0.00    -0.389 OA
ATOM     17  H   LIG    1       28.929 -17.275   5.227  0.00  0.00    +0.210 HD
ENDBRANCH  15  16
BRANCH  15  18
ATOM     18  C   LIG    1       30.922 -19.177   6.843  0.00  0.00    +0.117 C 
BRANCH  18  20
ATOM     19  C   LIG    1       29.926 -18.064   8.733  0.00  0.00    +0.105 C 
ATOM     20  N   LIG    1       31.120 -18.766   8.242  0.00  0.00    -0.301 NA
BRANCH  20  21
ATOM     21  C   LIG    1       31.465 -19.886   9.138  0.00  0.00    +0.112 C 
BRANCH  21  22
ATOM     22  C   LIG    1       30.989 -21.284   8.716  0.00  0.00    +0.171 C 
BRANCH  22  23
ATOM     23  O   LIG    1       32.073 -22.199   8.810  0.00  0.00    -0.394 OA
ATOM     24  H   LIG    1       32.756 -21.771   9.354  0.00  0.00    +0.209 HD
ENDBRANCH  22  23
ENDBRANCH  21  22
ENDBRANCH  20  21
ENDBRANCH  18  20
ENDBRANCH  15  18
ENDBRANCH  14  15
ENDBRANCH   1  14
TORSDOF 8
ENDMDL
MODEL 8
REMARK VINA RESULT:      -6.2      6.602      9.713
REMARK  Name = *****
REMARK                            x       y       z     vdW  Elec       q    Type
REMARK                         _______ _______ _______ _____ _____    ______ ____
ROOT
ATOM      1  N   LIG    1       25.073 -28.015   6.442  0.00  0.00    -0.322 N 
ATOM      2  C   LIG    1       25.160 -28.907   7.474  0.00  0.00    +0.151 A 
ATOM      3  C   LIG    1       25.942 -28.905   8.666  0.00  0.00    +0.282 C 
ATOM      4  N   LIG    1       25.909 -30.139   9.331  0.00  0.00    -0.262 N 
ATOM      5  C   LIG    1       25.136 -31.256   8.955  0.00  0.00    +0.333 C 
ATOM      6  N   LIG    1       24.342 -31.128   7.815  0.00  0.00    -0.280 N 
ATOM      7  C   LIG    1       23.571 -32.255   7.322  0.00  0.00    +0.155 C 
ATOM      8  O   LIG    1       25.171 -32.301   9.612  0.00  0.00    -0.246 OA
ATOM      9  C   LIG    1       26.735 -30.291  10.512  0.00  0.00    +0.157 C 
ATOM     10  O   LIG    1       26.565 -27.930   9.055  0.00  0.00    -0.265 OA
ATOM     11  C   LIG    1       24.382 -29.957   7.095  0.00  0.00    +0.168 A 
ATOM     12  N   LIG    1       23.721 -29.709   5.931  0.00  0.00    -0.218 NA
ATOM     13  C   LIG    1       24.151 -28.521   5.557  0.00  0.00    +0.202 A 
ENDROOT
BRANCH   1  14
ATOM     14  C   LIG    1       25.893 -26.835   6.225  0.00  0.00    +0.156 C 
BRANCH  14  15
ATOM     15  C   LIG    1       25.044 -25.558   6.099  0.00  0.00    +0.148 C 
BRANCH  15  16
ATOM     16  O   LIG    1       24.903 -25.154   4.726  0.00  0.00    -0.389 OA
ATOM     17  H   LIG    1       24.052 -25.494   4.391  0.00  0.00    +0.210 HD
ENDBRANCH  15  16
BRANCH  15  18
ATOM     18  C   LIG    1       25.653 -24.369   6.879  0.00  0.00    +0.117 C 
BRANCH  18  20
ATOM     19  C   LIG    1       23.794 -22.838   6.941  0.00  0.00    +0.105 C 
ATOM     20  N   LIG    1       25.185 -23.024   6.506  0.00  0.00    -0.301 NA
BRANCH  20  21
ATOM     21  C   LIG    1       26.039 -21.942   7.033  0.00  0.00    +0.112 C 
BRANCH  21  22
ATOM     22  C   LIG    1       25.363 -20.903   7.940  0.00  0.00    +0.171 C 
BRANCH  22  23
ATOM     23  O   LIG    1       25.910 -20.994   9.249  0.00  0.00    -0.394 OA
ATOM     24  H   LIG    1       26.000 -21.942   9.451  0.00  0.00    +0.209 HD
ENDBRANCH  22  23
ENDBRANCH  21  22
ENDBRANCH  20  21
ENDBRANCH  18  20
ENDBRANCH  15  18
ENDBRANCH  14  15
ENDBRANCH   1  14
TORSDOF 8
ENDMDL
MODEL 9
REMARK VINA RESULT:      -6.0      2.355      6.906
REMARK  Name = *****
REMARK                            x       y       z     vdW  Elec       q    Type
REMARK                         _______ _______ _______ _____ _____    ______ ____
ROOT
ATOM      1  N   LIG    1       28.419 -19.696   5.803  0.00  0.00    -0.322 N 
ATOM      2  C   LIG    1       29.359 -20.049   6.731  0.00  0.00    +0.151 A 
ATOM      3  C   LIG    1       29.524 -21.230   7.512  0.00  0.00    +0.282 C 
ATOM      4  N   LIG    1       30.482 -21.074   8.523  0.00  0.00    -0.262 N 
ATOM      5  C   LIG    1       31.284 -19.933   8.729  0.00  0.00    +0.333 C 
ATOM      6  N   LIG    1       31.101 -18.859   7.858  0.00  0.00    -0.280 N 
ATOM      7  C   LIG    1       31.837 -17.622   8.045  0.00  0.00    +0.155 C 
ATOM      8  O   LIG    1       32.108 -19.895   9.648  0.00  0.00    -0.246 OA
ATOM      9  C   LIG    1       30.679 -22.178   9.442  0.00  0.00    +0.157 C 
ATOM     10  O   LIG    1       28.894 -22.257   7.312  0.00  0.00    -0.265 OA
ATOM     11  C   LIG    1       30.133 -18.940   6.884  0.00  0.00    +0.168 A 
ATOM     12  N   LIG    1       29.792 -17.954   6.009  0.00  0.00    -0.218 NA
ATOM     13  C   LIG    1       28.753 -18.439   5.359  0.00  0.00    +0.202 A 
ENDROOT
BRANCH   1  14
ATOM     14  C   LIG    1       27.211 -20.423   5.451  0.00  0.00    +0.156 C 
BRANCH  14  15
ATOM     15  C   LIG    1       26.072 -20.165   6.453  0.00  0.00    +0.148 C 
BRANCH  15  16
ATOM     16  O   LIG    1       26.256 -20.922   7.662  0.00  0.00    -0.389 OA
ATOM     17  H   LIG    1       25.793 -21.776   7.564  0.00  0.00    +0.210 HD
ENDBRANCH  15  16
BRANCH  15  18
ATOM     18  C   LIG    1       24.686 -20.535   5.874  0.00  0.00    +0.117 C 
BRANCH  18  20
ATOM     19  C   LIG    1       22.692 -21.862   6.133  0.00  0.00    +0.105 C 
ATOM     20  N   LIG    1       24.160 -21.866   6.215  0.00  0.00    -0.301 NA
BRANCH  20  21
ATOM     21  C   LIG    1       24.720 -22.947   5.381  0.00  0.00    +0.112 C 
BRANCH  21  22
ATOM     22  C   LIG    1       25.308 -24.160   6.118  0.00  0.00    +0.171 C 
BRANCH  22  23
ATOM     23  O   LIG    1       26.260 -23.713   7.075  0.00  0.00    -0.394 OA
ATOM     24  H   LIG    1       26.929 -23.202   6.588  0.00  0.00    +0.209 HD
ENDBRANCH  22  23
ENDBRANCH  21  22
ENDBRANCH  20  21
ENDBRANCH  18  20
ENDBRANCH  15  18
ENDBRANCH  14  15
ENDBRANCH   1  14
TORSDOF 8
ENDMDL
