MODEL 1
REMARK VINA RESULT:      -8.5      0.000      0.000
REMARK  Name = *****
REMARK                            x       y       z     vdW  Elec       q    Type
REMARK                         _______ _______ _______ _____ _____    ______ ____
ROOT
ATOM      1  N   LIG    1       27.574 -20.177   6.542  0.00  0.00    -0.266 N 
ATOM      2  C   LIG    1       27.448 -20.425   7.922  0.00  0.00    +0.271 C 
ATOM      3  O   LIG    1       28.417 -20.473   8.687  0.00  0.00    -0.270 OA
ATOM      4  C   LIG    1       26.014 -20.615   8.496  0.00  0.00    +0.320 C 
ATOM      5  N   LIG    1       25.648 -21.997   8.206  0.00  0.00    -0.243 NA
ATOM      6  C   LIG    1       25.395 -22.270   6.969  0.00  0.00    +0.081 C 
ATOM      7  C   LIG    1       25.371 -21.236   5.893  0.00  0.00    +0.024 A 
ATOM      8  C   LIG    1       24.206 -21.224   5.101  0.00  0.00    +0.032 A 
ATOM      9  C   LIG    1       24.165 -20.456   3.950  0.00  0.00    +0.042 A 
ATOM     10 CL   LIG    1       22.771 -20.494   2.944  0.00  0.00    -0.084 Cl
ATOM     11  C   LIG    1       25.257 -19.673   3.605  0.00  0.00    +0.022 A 
ATOM     12  C   LIG    1       26.377 -19.604   4.452  0.00  0.00    +0.025 A 
ATOM     13  C   LIG    1       26.457 -20.362   5.635  0.00  0.00    +0.046 A 
ENDROOT
BRANCH   6  14
ATOM     14  C   LIG    1       25.087 -23.697   6.603  0.00  0.00    +0.036 A 
ATOM     15  C   LIG    1       23.777 -24.190   6.612  0.00  0.00    +0.133 A 
ATOM     16  F   LIG    1       22.738 -23.394   6.904  0.00  0.00    -0.205 F 
ATOM     17  C   LIG    1       23.505 -25.522   6.304  0.00  0.00    +0.039 A 
ATOM     18  C   LIG    1       24.545 -26.378   5.951  0.00  0.00    +0.003 A 
ATOM     19  C   LIG    1       25.853 -25.895   5.908  0.00  0.00    +0.001 A 
ATOM     20  C   LIG    1       26.127 -24.561   6.230  0.00  0.00    +0.013 A 
ENDBRANCH   6  14
BRANCH   4  21
ATOM     21  O   LIG    1       26.008 -20.334   9.887  0.00  0.00    -0.364 OA
ATOM     22  H   LIG    1       25.367 -20.973  10.248  0.00  0.00    +0.212 HD
ENDBRANCH   4  21
BRANCH   1  23
ATOM     23  C   LIG    1       28.945 -19.965   5.985  0.00  0.00    +0.128 C 
BRANCH  23  24
ATOM     24  C   LIG    1       29.605 -18.601   6.270  0.00  0.00    +0.138 C 
BRANCH  24  26
ATOM     25  N   LIG    1       31.845 -18.837   7.629  0.00  0.00    -0.197 NA
ATOM     26  C   LIG    1       30.854 -18.746   7.038  0.00  0.00    +0.064 C 
ENDBRANCH  24  26
ENDBRANCH  23  24
ENDBRANCH   1  23
TORSDOF 5
ENDMDL
MODEL 2
REMARK VINA RESULT:      -6.8      1.015      1.238
REMARK  Name = *****
REMARK                            x       y       z     vdW  Elec       q    Type
REMARK                         _______ _______ _______ _____ _____    ______ ____
ROOT
ATOM      1  N   LIG    1       27.526 -20.207   6.433  0.00  0.00    -0.266 N 
ATOM      2  C   LIG    1       27.443 -20.429   7.820  0.00  0.00    +0.271 C 
ATOM      3  O   LIG    1       28.433 -20.442   8.560  0.00  0.00    -0.270 OA
ATOM      4  C   LIG    1       26.028 -20.638   8.437  0.00  0.00    +0.320 C 
ATOM      5  N   LIG    1       25.686 -22.033   8.184  0.00  0.00    -0.243 NA
ATOM      6  C   LIG    1       25.406 -22.336   6.960  0.00  0.00    +0.081 C 
ATOM      7  C   LIG    1       25.330 -21.324   5.865  0.00  0.00    +0.024 A 
ATOM      8  C   LIG    1       24.145 -21.353   5.105  0.00  0.00    +0.032 A 
ATOM      9  C   LIG    1       24.056 -20.609   3.940  0.00  0.00    +0.042 A 
ATOM     10 CL   LIG    1       22.637 -20.697   2.974  0.00  0.00    -0.084 Cl
ATOM     11  C   LIG    1       25.121 -19.811   3.551  0.00  0.00    +0.022 A 
ATOM     12  C   LIG    1       26.261 -19.701   4.366  0.00  0.00    +0.025 A 
ATOM     13  C   LIG    1       26.390 -20.433   5.560  0.00  0.00    +0.046 A 
ENDROOT
BRANCH   6  14
ATOM     14  C   LIG    1       25.118 -23.776   6.630  0.00  0.00    +0.036 A 
ATOM     15  C   LIG    1       23.815 -24.286   6.641  0.00  0.00    +0.133 A 
ATOM     16  F   LIG    1       22.763 -23.495   6.903  0.00  0.00    -0.205 F 
ATOM     17  C   LIG    1       23.562 -25.628   6.367  0.00  0.00    +0.039 A 
ATOM     18  C   LIG    1       24.615 -26.481   6.047  0.00  0.00    +0.003 A 
ATOM     19  C   LIG    1       25.918 -25.983   6.002  0.00  0.00    +0.001 A 
ATOM     20  C   LIG    1       26.172 -24.636   6.290  0.00  0.00    +0.013 A 
ENDBRANCH   6  14
BRANCH   4  21
ATOM     21  O   LIG    1       26.054 -20.329   9.822  0.00  0.00    -0.364 OA
ATOM     22  H   LIG    1       26.973 -20.521  10.083  0.00  0.00    +0.212 HD
ENDBRANCH   4  21
BRANCH   1  23
ATOM     23  C   LIG    1       28.877 -19.976   5.835  0.00  0.00    +0.128 C 
BRANCH  23  24
ATOM     24  C   LIG    1       29.444 -18.546   5.935  0.00  0.00    +0.138 C 
BRANCH  24  26
ATOM     25  N   LIG    1       28.186 -16.863   4.352  0.00  0.00    -0.197 NA
ATOM     26  C   LIG    1       28.727 -17.608   5.054  0.00  0.00    +0.064 C 
ENDBRANCH  24  26
ENDBRANCH  23  24
ENDBRANCH   1  23
TORSDOF 5
ENDMDL
MODEL 3
REMARK VINA RESULT:      -6.1      8.156     10.512
REMARK  Name = *****
REMARK                            x       y       z     vdW  Elec       q    Type
REMARK                         _______ _______ _______ _____ _____    ______ ____
ROOT
ATOM      1  N   LIG    1       24.771 -31.779   7.045  0.00  0.00    -0.266 N 
ATOM      2  C   LIG    1       25.572 -32.622   7.839  0.00  0.00    +0.271 C 
ATOM      3  O   LIG    1       25.334 -33.825   7.994  0.00  0.00    -0.270 OA
ATOM      4  C   LIG    1       26.825 -32.000   8.522  0.00  0.00    +0.320 C 
ATOM      5  N   LIG    1       26.332 -31.326   9.719  0.00  0.00    -0.243 NA
ATOM      6  C   LIG    1       25.663 -30.238   9.523  0.00  0.00    +0.081 C 
ATOM      7  C   LIG    1       25.473 -29.628   8.174  0.00  0.00    +0.024 A 
ATOM      8  C   LIG    1       25.814 -28.265   8.081  0.00  0.00    +0.032 A 
ATOM      9  C   LIG    1       25.481 -27.548   6.944  0.00  0.00    +0.042 A 
ATOM     10 CL   LIG    1       25.834 -25.868   6.857  0.00  0.00    -0.084 Cl
ATOM     11  C   LIG    1       24.846 -28.187   5.889  0.00  0.00    +0.022 A 
ATOM     12  C   LIG    1       24.601 -29.570   5.941  0.00  0.00    +0.025 A 
ATOM     13  C   LIG    1       24.931 -30.338   7.073  0.00  0.00    +0.046 A 
ENDROOT
BRANCH   6  14
ATOM     14  C   LIG    1       25.068 -29.543  10.718  0.00  0.00    +0.036 A 
ATOM     15  C   LIG    1       25.821 -28.666  11.507  0.00  0.00    +0.133 A 
ATOM     16  F   LIG    1       27.094 -28.375  11.200  0.00  0.00    -0.205 F 
ATOM     17  C   LIG    1       25.272 -28.053  12.631  0.00  0.00    +0.039 A 
ATOM     18  C   LIG    1       23.941 -28.288  12.968  0.00  0.00    +0.003 A 
ATOM     19  C   LIG    1       23.167 -29.136  12.175  0.00  0.00    +0.001 A 
ATOM     20  C   LIG    1       23.724 -29.762  11.053  0.00  0.00    +0.013 A 
ENDBRANCH   6  14
BRANCH   4  21
ATOM     21  O   LIG    1       27.767 -33.017   8.823  0.00  0.00    -0.364 OA
ATOM     22  H   LIG    1       27.402 -33.806   8.383  0.00  0.00    +0.212 HD
ENDBRANCH   4  21
BRANCH   1  23
ATOM     23  C   LIG    1       23.582 -32.373   6.362  0.00  0.00    +0.128 C 
BRANCH  23  24
ATOM     24  C   LIG    1       23.863 -33.295   5.159  0.00  0.00    +0.138 C 
BRANCH  24  26
ATOM     25  N   LIG    1       25.934 -32.493   3.748  0.00  0.00    -0.197 NA
ATOM     26  C   LIG    1       25.019 -32.832   4.371  0.00  0.00    +0.064 C 
ENDBRANCH  24  26
ENDBRANCH  23  24
ENDBRANCH   1  23
TORSDOF 5
ENDMDL
MODEL 4
REMARK VINA RESULT:      -6.0      8.462      9.608
REMARK  Name = *****
REMARK                            x       y       z     vdW  Elec       q    Type
REMARK                         _______ _______ _______ _____ _____    ______ ____
ROOT
ATOM      1  N   LIG    1       26.672 -27.447  13.677  0.00  0.00    -0.266 N 
ATOM      2  C   LIG    1       27.400 -28.649  13.764  0.00  0.00    +0.271 C 
ATOM      3  O   LIG    1       28.632 -28.684  13.842  0.00  0.00    -0.270 OA
ATOM      4  C   LIG    1       26.596 -29.982  13.791  0.00  0.00    +0.320 C 
ATOM      5  N   LIG    1       26.263 -30.274  12.401  0.00  0.00    -0.243 NA
ATOM      6  C   LIG    1       25.363 -29.521  11.862  0.00  0.00    +0.081 C 
ATOM      7  C   LIG    1       24.617 -28.472  12.618  0.00  0.00    +0.024 A 
ATOM      8  C   LIG    1       23.214 -28.538  12.509  0.00  0.00    +0.032 A 
ATOM      9  C   LIG    1       22.436 -27.498  12.989  0.00  0.00    +0.042 A 
ATOM     10 CL   LIG    1       20.729 -27.546  12.794  0.00  0.00    -0.084 Cl
ATOM     11  C   LIG    1       23.042 -26.416  13.610  0.00  0.00    +0.022 A 
ATOM     12  C   LIG    1       24.433 -26.401  13.813  0.00  0.00    +0.025 A 
ATOM     13  C   LIG    1       25.260 -27.439  13.348  0.00  0.00    +0.046 A 
ENDROOT
BRANCH   6  14
ATOM     14  C   LIG    1       25.035 -29.730  10.409  0.00  0.00    +0.036 A 
ATOM     15  C   LIG    1       25.717 -29.045   9.396  0.00  0.00    +0.133 A 
ATOM     16  F   LIG    1       26.724 -28.206   9.683  0.00  0.00    -0.205 F 
ATOM     17  C   LIG    1       25.384 -29.220   8.055  0.00  0.00    +0.039 A 
ATOM     18  C   LIG    1       24.375 -30.112   7.702  0.00  0.00    +0.003 A 
ATOM     19  C   LIG    1       23.706 -30.827   8.696  0.00  0.00    +0.001 A 
ATOM     20  C   LIG    1       24.032 -30.640  10.045  0.00  0.00    +0.013 A 
ENDBRANCH   6  14
BRANCH   4  21
ATOM     21  O   LIG    1       27.377 -31.006  14.387  0.00  0.00    -0.364 OA
ATOM     22  H   LIG    1       27.139 -31.803  13.880  0.00  0.00    +0.212 HD
ENDBRANCH   4  21
BRANCH   1  23
ATOM     23  C   LIG    1       27.433 -26.160  13.679  0.00  0.00    +0.128 C 
BRANCH  23  24
ATOM     24  C   LIG    1       27.639 -25.480  15.048  0.00  0.00    +0.138 C 
BRANCH  24  26
ATOM     25  N   LIG    1       26.568 -23.078  15.097  0.00  0.00    -0.197 NA
ATOM     26  C   LIG    1       27.050 -24.130  15.084  0.00  0.00    +0.064 C 
ENDBRANCH  24  26
ENDBRANCH  23  24
ENDBRANCH   1  23
TORSDOF 5
ENDMDL
MODEL 5
REMARK VINA RESULT:      -6.0      3.115      5.419
REMARK  Name = *****
REMARK                            x       y       z     vdW  Elec       q    Type
REMARK                         _______ _______ _______ _____ _____    ______ ____
ROOT
ATOM      1  N   LIG    1       23.728 -21.497   5.087  0.00  0.00    -0.266 N 
ATOM      2  C   LIG    1       23.380 -20.554   6.073  0.00  0.00    +0.271 C 
ATOM      3  O   LIG    1       22.832 -19.478   5.810  0.00  0.00    -0.270 OA
ATOM      4  C   LIG    1       23.681 -20.914   7.558  0.00  0.00    +0.320 C 
ATOM      5  N   LIG    1       25.095 -20.618   7.760  0.00  0.00    -0.243 NA
ATOM      6  C   LIG    1       25.931 -21.425   7.197  0.00  0.00    +0.081 C 
ATOM      7  C   LIG    1       25.509 -22.653   6.460  0.00  0.00    +0.024 A 
ATOM      8  C   LIG    1       26.153 -23.841   6.859  0.00  0.00    +0.032 A 
ATOM      9  C   LIG    1       25.998 -24.994   6.107  0.00  0.00    +0.042 A 
ATOM     10 CL   LIG    1       26.837 -26.426   6.553  0.00  0.00    -0.084 Cl
ATOM     11  C   LIG    1       25.179 -24.980   4.988  0.00  0.00    +0.022 A 
ATOM     12  C   LIG    1       24.455 -23.823   4.652  0.00  0.00    +0.025 A 
ATOM     13  C   LIG    1       24.577 -22.633   5.392  0.00  0.00    +0.046 A 
ENDROOT
BRANCH   6  14
ATOM     14  C   LIG    1       27.400 -21.123   7.311  0.00  0.00    +0.036 A 
ATOM     15  C   LIG    1       28.057 -20.310   6.379  0.00  0.00    +0.133 A 
ATOM     16  F   LIG    1       27.389 -19.730   5.371  0.00  0.00    -0.205 F 
ATOM     17  C   LIG    1       29.426 -20.064   6.474  0.00  0.00    +0.039 A 
ATOM     18  C   LIG    1       30.157 -20.608   7.527  0.00  0.00    +0.003 A 
ATOM     19  C   LIG    1       29.512 -21.395   8.482  0.00  0.00    +0.001 A 
ATOM     20  C   LIG    1       28.139 -21.653   8.378  0.00  0.00    +0.013 A 
ENDBRANCH   6  14
BRANCH   4  21
ATOM     21  O   LIG    1       22.841 -20.160   8.418  0.00  0.00    -0.364 OA
ATOM     22  H   LIG    1       22.569 -19.403   7.868  0.00  0.00    +0.212 HD
ENDBRANCH   4  21
BRANCH   1  23
ATOM     23  C   LIG    1       23.417 -21.174   3.661  0.00  0.00    +0.128 C 
BRANCH  23  24
ATOM     24  C   LIG    1       24.572 -20.609   2.811  0.00  0.00    +0.138 C 
BRANCH  24  26
ATOM     25  N   LIG    1       25.203 -18.151   3.504  0.00  0.00    -0.197 NA
ATOM     26  C   LIG    1       24.928 -19.237   3.213  0.00  0.00    +0.064 C 
ENDBRANCH  24  26
ENDBRANCH  23  24
ENDBRANCH   1  23
TORSDOF 5
ENDMDL
MODEL 6
REMARK VINA RESULT:      -6.0      8.356     10.737
REMARK  Name = *****
REMARK                            x       y       z     vdW  Elec       q    Type
REMARK                         _______ _______ _______ _____ _____    ______ ____
ROOT
ATOM      1  N   LIG    1       24.467 -31.972   8.178  0.00  0.00    -0.266 N 
ATOM      2  C   LIG    1       25.454 -32.706   8.863  0.00  0.00    +0.271 C 
ATOM      3  O   LIG    1       25.245 -33.821   9.351  0.00  0.00    -0.270 OA
ATOM      4  C   LIG    1       26.875 -32.079   8.975  0.00  0.00    +0.320 C 
ATOM      5  N   LIG    1       26.805 -31.128  10.079  0.00  0.00    -0.243 NA
ATOM      6  C   LIG    1       26.137 -30.045   9.853  0.00  0.00    +0.081 C 
ATOM      7  C   LIG    1       25.547 -29.712   8.523  0.00  0.00    +0.024 A 
ATOM      8  C   LIG    1       25.878 -28.437   8.024  0.00  0.00    +0.032 A 
ATOM      9  C   LIG    1       25.222 -27.942   6.909  0.00  0.00    +0.042 A 
ATOM     10 CL   LIG    1       25.575 -26.359   6.340  0.00  0.00    -0.084 Cl
ATOM     11  C   LIG    1       24.270 -28.721   6.270  0.00  0.00    +0.022 A 
ATOM     12  C   LIG    1       24.017 -30.034   6.706  0.00  0.00    +0.025 A 
ATOM     13  C   LIG    1       24.666 -30.578   7.828  0.00  0.00    +0.046 A 
ENDROOT
BRANCH   6  14
ATOM     14  C   LIG    1       25.969 -29.063  10.981  0.00  0.00    +0.036 A 
ATOM     15  C   LIG    1       24.802 -29.024  11.753  0.00  0.00    +0.133 A 
ATOM     16  F   LIG    1       23.803 -29.894  11.544  0.00  0.00    -0.205 F 
ATOM     17  C   LIG    1       24.642 -28.089  12.773  0.00  0.00    +0.039 A 
ATOM     18  C   LIG    1       25.668 -27.192  13.059  0.00  0.00    +0.003 A 
ATOM     19  C   LIG    1       26.850 -27.237  12.320  0.00  0.00    +0.001 A 
ATOM     20  C   LIG    1       27.005 -28.168  11.286  0.00  0.00    +0.013 A 
ENDBRANCH   6  14
BRANCH   4  21
ATOM     21  O   LIG    1       27.837 -33.098   9.200  0.00  0.00    -0.364 OA
ATOM     22  H   LIG    1       28.526 -32.652   9.724  0.00  0.00    +0.212 HD
ENDBRANCH   4  21
BRANCH   1  23
ATOM     23  C   LIG    1       23.107 -32.577   8.040  0.00  0.00    +0.128 C 
BRANCH  23  24
ATOM     24  C   LIG    1       22.364 -32.918   9.347  0.00  0.00    +0.138 C 
BRANCH  24  26
ATOM     25  N   LIG    1       21.001 -30.857  10.249  0.00  0.00    -0.197 NA
ATOM     26  C   LIG    1       21.607 -31.765   9.865  0.00  0.00    +0.064 C 
ENDBRANCH  24  26
ENDBRANCH  23  24
ENDBRANCH   1  23
TORSDOF 5
ENDMDL
MODEL 7
REMARK VINA RESULT:      -5.9      7.821      9.786
REMARK  Name = *****
REMARK                            x       y       z     vdW  Elec       q    Type
REMARK                         _______ _______ _______ _____ _____    ______ ____
ROOT
ATOM      1  N   LIG    1       26.206 -30.065   9.990  0.00  0.00    -0.266 N 
ATOM      2  C   LIG    1       25.359 -31.013  10.595  0.00  0.00    +0.271 C 
ATOM      3  O   LIG    1       25.732 -31.764  11.503  0.00  0.00    -0.270 OA
ATOM      4  C   LIG    1       23.883 -31.085  10.105  0.00  0.00    +0.320 C 
ATOM      5  N   LIG    1       23.909 -31.876   8.879  0.00  0.00    -0.243 NA
ATOM      6  C   LIG    1       24.425 -31.303   7.843  0.00  0.00    +0.081 C 
ATOM      7  C   LIG    1       24.885 -29.882   7.841  0.00  0.00    +0.024 A 
ATOM      8  C   LIG    1       24.372 -29.089   6.796  0.00  0.00    +0.032 A 
ATOM      9  C   LIG    1       24.892 -27.825   6.573  0.00  0.00    +0.042 A 
ATOM     10 CL   LIG    1       24.315 -26.883   5.256  0.00  0.00    -0.084 Cl
ATOM     11  C   LIG    1       25.888 -27.334   7.403  0.00  0.00    +0.022 A 
ATOM     12  C   LIG    1       26.325 -28.085   8.509  0.00  0.00    +0.025 A 
ATOM     13  C   LIG    1       25.818 -29.369   8.777  0.00  0.00    +0.046 A 
ENDROOT
BRANCH   6  14
ATOM     14  C   LIG    1       24.545 -32.100   6.573  0.00  0.00    +0.036 A 
ATOM     15  C   LIG    1       25.783 -32.314   5.955  0.00  0.00    +0.133 A 
ATOM     16  F   LIG    1       26.920 -31.854   6.499  0.00  0.00    -0.205 F 
ATOM     17  C   LIG    1       25.881 -33.026   4.761  0.00  0.00    +0.039 A 
ATOM     18  C   LIG    1       24.735 -33.562   4.178  0.00  0.00    +0.003 A 
ATOM     19  C   LIG    1       23.497 -33.384   4.796  0.00  0.00    +0.001 A 
ATOM     20  C   LIG    1       23.399 -32.658   5.990  0.00  0.00    +0.013 A 
ENDBRANCH   6  14
BRANCH   4  21
ATOM     21  O   LIG    1       23.068 -31.668  11.109  0.00  0.00    -0.364 OA
ATOM     22  H   LIG    1       23.705 -32.125  11.686  0.00  0.00    +0.212 HD
ENDBRANCH   4  21
BRANCH   1  23
ATOM     23  C   LIG    1       27.617 -29.968  10.474  0.00  0.00    +0.128 C 
BRANCH  23  24
ATOM     24  C   LIG    1       27.895 -28.953  11.600  0.00  0.00    +0.138 C 
BRANCH  24  26
ATOM     25  N   LIG    1       29.171 -30.062  13.616  0.00  0.00    -0.197 NA
ATOM     26  C   LIG    1       28.621 -29.566  12.725  0.00  0.00    +0.064 C 
ENDBRANCH  24  26
ENDBRANCH  23  24
ENDBRANCH   1  23
TORSDOF 5
ENDMDL
MODEL 8
REMARK VINA RESULT:      -5.8      7.178     10.399
REMARK  Name = *****
REMARK                            x       y       z     vdW  Elec       q    Type
REMARK                         _______ _______ _______ _____ _____    ______ ____
ROOT
ATOM      1  N   LIG    1       25.086 -30.148  11.868  0.00  0.00    -0.266 N 
ATOM      2  C   LIG    1       25.666 -28.901  12.168  0.00  0.00    +0.271 C 
ATOM      3  O   LIG    1       25.186 -28.118  12.995  0.00  0.00    -0.270 OA
ATOM      4  C   LIG    1       26.987 -28.521  11.436  0.00  0.00    +0.320 C 
ATOM      5  N   LIG    1       26.586 -28.028  10.122  0.00  0.00    -0.243 NA
ATOM      6  C   LIG    1       26.156 -28.917   9.289  0.00  0.00    +0.081 C 
ATOM      7  C   LIG    1       26.152 -30.380   9.586  0.00  0.00    +0.024 A 
ATOM      8  C   LIG    1       26.763 -31.191   8.609  0.00  0.00    +0.032 A 
ATOM      9  C   LIG    1       26.630 -32.568   8.677  0.00  0.00    +0.042 A 
ATOM     10 CL   LIG    1       27.315 -33.555   7.448  0.00  0.00    -0.084 Cl
ATOM     11  C   LIG    1       25.928 -33.141   9.727  0.00  0.00    +0.022 A 
ATOM     12  C   LIG    1       25.410 -32.337  10.757  0.00  0.00    +0.025 A 
ATOM     13  C   LIG    1       25.529 -30.935  10.733  0.00  0.00    +0.046 A 
ENDROOT
BRANCH   6  14
ATOM     14  C   LIG    1       25.659 -28.454   7.946  0.00  0.00    +0.036 A 
ATOM     15  C   LIG    1       24.565 -29.062   7.319  0.00  0.00    +0.133 A 
ATOM     16  F   LIG    1       23.887 -30.054   7.915  0.00  0.00    -0.205 F 
ATOM     17  C   LIG    1       24.133 -28.648   6.060  0.00  0.00    +0.039 A 
ATOM     18  C   LIG    1       24.777 -27.593   5.419  0.00  0.00    +0.003 A 
ATOM     19  C   LIG    1       25.850 -26.956   6.043  0.00  0.00    +0.001 A 
ATOM     20  C   LIG    1       26.291 -27.381   7.302  0.00  0.00    +0.013 A 
ENDBRANCH   6  14
BRANCH   4  21
ATOM     21  O   LIG    1       27.693 -27.546  12.187  0.00  0.00    -0.364 OA
ATOM     22  H   LIG    1       26.986 -27.017  12.599  0.00  0.00    +0.212 HD
ENDBRANCH   4  21
BRANCH   1  23
ATOM     23  C   LIG    1       23.834 -30.535  12.586  0.00  0.00    +0.128 C 
BRANCH  23  24
ATOM     24  C   LIG    1       22.527 -29.870  12.110  0.00  0.00    +0.138 C 
BRANCH  24  26
ATOM     25  N   LIG    1       21.567 -31.008   9.941  0.00  0.00    -0.197 NA
ATOM     26  C   LIG    1       21.989 -30.520  10.903  0.00  0.00    +0.064 C 
ENDBRANCH  24  26
ENDBRANCH  23  24
ENDBRANCH   1  23
TORSDOF 5
ENDMDL
MODEL 9
REMARK VINA RESULT:      -5.8      7.595     10.325
REMARK  Name = *****
REMARK                            x       y       z     vdW  Elec       q    Type
REMARK                         _______ _______ _______ _____ _____    ______ ____
ROOT
ATOM      1  N   LIG    1       24.693 -29.279   7.355  0.00  0.00    -0.266 N 
ATOM      2  C   LIG    1       24.075 -30.399   6.768  0.00  0.00    +0.271 C 
ATOM      3  O   LIG    1       23.399 -30.330   5.736  0.00  0.00    -0.270 OA
ATOM      4  C   LIG    1       24.285 -31.783   7.449  0.00  0.00    +0.320 C 
ATOM      5  N   LIG    1       23.338 -31.830   8.558  0.00  0.00    -0.243 NA
ATOM      6  C   LIG    1       23.612 -31.077   9.571  0.00  0.00    +0.081 C 
ATOM      7  C   LIG    1       24.865 -30.271   9.675  0.00  0.00    +0.024 A 
ATOM      8  C   LIG    1       25.594 -30.450  10.867  0.00  0.00    +0.032 A 
ATOM      9  C   LIG    1       26.649 -29.604  11.161  0.00  0.00    +0.042 A 
ATOM     10 CL   LIG    1       27.496 -29.776  12.647  0.00  0.00    -0.084 Cl
ATOM     11  C   LIG    1       27.005 -28.609  10.263  0.00  0.00    +0.022 A 
ATOM     12  C   LIG    1       26.345 -28.500   9.026  0.00  0.00    +0.025 A 
ATOM     13  C   LIG    1       25.273 -29.343   8.683  0.00  0.00    +0.046 A 
ENDROOT
BRANCH   6  14
ATOM     14  C   LIG    1       22.629 -31.030  10.710  0.00  0.00    +0.036 A 
ATOM     15  C   LIG    1       22.364 -32.156  11.497  0.00  0.00    +0.133 A 
ATOM     16  F   LIG    1       23.012 -33.313  11.294  0.00  0.00    -0.205 F 
ATOM     17  C   LIG    1       21.428 -32.112  12.529  0.00  0.00    +0.039 A 
ATOM     18  C   LIG    1       20.760 -30.923  12.808  0.00  0.00    +0.003 A 
ATOM     19  C   LIG    1       21.034 -29.782  12.053  0.00  0.00    +0.001 A 
ATOM     20  C   LIG    1       21.966 -29.831  11.008  0.00  0.00    +0.013 A 
ENDBRANCH   6  14
BRANCH   4  21
ATOM     21  O   LIG    1       24.070 -32.823   6.509  0.00  0.00    -0.364 OA
ATOM     22  H   LIG    1       23.479 -33.439   6.978  0.00  0.00    +0.212 HD
ENDBRANCH   4  21
BRANCH   1  23
ATOM     23  C   LIG    1       24.520 -27.950   6.693  0.00  0.00    +0.128 C 
BRANCH  23  24
ATOM     24  C   LIG    1       25.541 -27.584   5.597  0.00  0.00    +0.138 C 
BRANCH  24  26
ATOM     25  N   LIG    1       25.151 -25.140   4.704  0.00  0.00    -0.197 NA
ATOM     26  C   LIG    1       25.335 -26.216   5.090  0.00  0.00    +0.064 C 
ENDBRANCH  24  26
ENDBRANCH  23  24
ENDBRANCH   1  23
TORSDOF 5
ENDMDL
