MODEL 1
REMARK VINA RESULT:       1.6      0.000      0.000
REMARK  Name = *****
REMARK                            x       y       z     vdW  Elec       q    Type
REMARK                         _______ _______ _______ _____ _____    ______ ____
ROOT
ATOM      1  N   LIG    1       26.305 -18.015   3.638  0.00  0.00    -0.297 NA
ATOM      2  C   LIG    1       25.138 -17.780   4.511  0.00  0.00    +0.100 C 
ATOM      3  C   LIG    1       23.849 -17.661   3.689  0.00  0.00    +0.100 C 
ATOM      4  N   LIG    1       22.689 -17.401   4.579  0.00  0.00    -0.290 NA
ATOM      5  C   LIG    1       22.062 -16.111   4.158  0.00  0.00    +0.100 C 
ATOM      6  C   LIG    1       22.845 -14.886   4.720  0.00  0.00    +0.100 C 
ATOM      7  N   LIG    1       23.980 -14.424   3.894  0.00  0.00    -0.290 NA
ATOM      8  C   LIG    1       24.974 -13.711   4.728  0.00  0.00    +0.100 C 
ATOM      9  C   LIG    1       26.401 -13.501   4.135  0.00  0.00    +0.100 C 
ATOM     10  N   LIG    1       27.383 -14.584   4.458  0.00  0.00    -0.290 NA
ATOM     11  C   LIG    1       27.189 -15.686   3.467  0.00  0.00    +0.100 C 
ATOM     12  C   LIG    1       27.391 -17.101   4.063  0.00  0.00    +0.100 C 
ENDROOT
BRANCH   1  13
ATOM     13  C   LIG    1       26.763 -19.417   3.705  0.00  0.00    +0.115 C 
BRANCH  13  15
ATOM     14  C   LIG    1       25.795 -21.273   5.179  0.00  0.00    +0.039 C 
ATOM     15  C   LIG    1       26.767 -20.101   5.095  0.00  0.00    +0.125 C 
BRANCH  15  16
ATOM     16  O   LIG    1       28.086 -20.585   5.373  0.00  0.00    -0.391 OA
ATOM     17  H   LIG    1       28.522 -20.797   4.531  0.00  0.00    +0.210 HD
ENDBRANCH  15  16
ENDBRANCH  13  15
ENDBRANCH   1  13
BRANCH   4  18
ATOM     18  C   LIG    1       21.699 -18.512   4.481  0.00  0.00    +0.205 C 
BRANCH  18  19
ATOM     19  C   LIG    1       22.168 -19.828   5.084  0.00  0.00    +0.319 C 
ATOM     20  O   LIG    1       21.936 -20.916   4.597  0.00  0.00    -0.250 OA
BRANCH  19  21
ATOM     21  O   LIG    1       22.830 -19.725   6.274  0.00  0.00    -0.480 OA
ATOM     22  H   LIG    1       22.289 -19.234   6.924  0.00  0.00    +0.295 HD
ENDBRANCH  19  21
ENDBRANCH  18  19
ENDBRANCH   4  18
BRANCH   7  23
ATOM     23  C   LIG    1       23.561 -13.667   2.685  0.00  0.00    +0.205 C 
BRANCH  23  24
ATOM     24  C   LIG    1       23.955 -12.199   2.664  0.00  0.00    +0.319 C 
ATOM     25  O   LIG    1       24.697 -11.698   1.812  0.00  0.00    -0.250 OA
BRANCH  24  26
ATOM     26  O   LIG    1       23.444 -11.464   3.673  0.00  0.00    -0.480 OA
ATOM     27  H   LIG    1       22.468 -11.420   3.685  0.00  0.00    +0.295 HD
ENDBRANCH  24  26
ENDBRANCH  23  24
ENDBRANCH   7  23
BRANCH  10  28
ATOM     28  C   LIG    1       28.773 -14.024   4.328  0.00  0.00    +0.205 C 
BRANCH  28  29
ATOM     29  C   LIG    1       28.763 -12.497   4.248  0.00  0.00    +0.319 C 
ATOM     30  O   LIG    1       28.549 -11.833   3.224  0.00  0.00    -0.250 OA
BRANCH  29  31
ATOM     31  O   LIG    1       29.040 -11.918   5.449  0.00  0.00    -0.480 OA
ATOM     32  H   LIG    1       28.206 -11.901   5.989  0.00  0.00    +0.295 HD
ENDBRANCH  29  31
ENDBRANCH  28  29
ENDBRANCH  10  28
TORSDOF 12
ENDMDL
MODEL 2
REMARK VINA RESULT:       3.7      1.393      6.040
REMARK  Name = *****
REMARK                            x       y       z     vdW  Elec       q    Type
REMARK                         _______ _______ _______ _____ _____    ______ ____
ROOT
ATOM      1  N   LIG    1       26.415 -18.194   4.266  0.00  0.00    -0.297 NA
ATOM      2  C   LIG    1       26.415 -17.114   3.259  0.00  0.00    +0.100 C 
ATOM      3  C   LIG    1       26.848 -15.780   3.880  0.00  0.00    +0.100 C 
ATOM      4  N   LIG    1       26.819 -14.700   2.860  0.00  0.00    -0.290 NA
ATOM      5  C   LIG    1       25.883 -13.638   3.338  0.00  0.00    +0.100 C 
ATOM      6  C   LIG    1       24.397 -14.021   3.061  0.00  0.00    +0.100 C 
ATOM      7  N   LIG    1       23.749 -14.842   4.104  0.00  0.00    -0.290 NA
ATOM      8  C   LIG    1       22.629 -15.623   3.530  0.00  0.00    +0.100 C 
ATOM      9  C   LIG    1       22.084 -16.827   4.359  0.00  0.00    +0.100 C 
ATOM     10  N   LIG    1       22.732 -18.143   4.059  0.00  0.00    -0.290 NA
ATOM     11  C   LIG    1       23.990 -18.225   4.862  0.00  0.00    +0.100 C 
ATOM     12  C   LIG    1       25.148 -18.950   4.132  0.00  0.00    +0.100 C 
ENDROOT
BRANCH   1  13
ATOM     13  C   LIG    1       27.570 -19.098   4.096  0.00  0.00    +0.115 C 
BRANCH  13  15
ATOM     14  C   LIG    1       29.281 -18.634   5.944  0.00  0.00    +0.039 C 
ATOM     15  C   LIG    1       28.262 -19.620   5.380  0.00  0.00    +0.125 C 
BRANCH  15  16
ATOM     16  O   LIG    1       27.267 -19.864   6.381  0.00  0.00    -0.391 OA
ATOM     17  H   LIG    1       26.391 -19.703   5.992  0.00  0.00    +0.210 HD
ENDBRANCH  15  16
ENDBRANCH  13  15
ENDBRANCH   1  13
BRANCH   4  18
ATOM     18  C   LIG    1       28.185 -14.134   2.664  0.00  0.00    +0.205 C 
BRANCH  18  19
ATOM     19  C   LIG    1       28.607 -13.127   3.724  0.00  0.00    +0.319 C 
ATOM     20  O   LIG    1       28.206 -13.144   4.871  0.00  0.00    -0.250 OA
BRANCH  19  21
ATOM     21  O   LIG    1       29.436 -12.132   3.291  0.00  0.00    -0.480 OA
ATOM     22  H   LIG    1       29.045 -11.257   3.478  0.00  0.00    +0.295 HD
ENDBRANCH  19  21
ENDBRANCH  18  19
ENDBRANCH   4  18
BRANCH   7  23
ATOM     23  C   LIG    1       23.377 -14.070   5.319  0.00  0.00    +0.205 C 
BRANCH  23  24
ATOM     24  C   LIG    1       23.982 -12.679   5.419  0.00  0.00    +0.319 C 
ATOM     25  O   LIG    1       23.392 -11.647   5.082  0.00  0.00    -0.250 OA
BRANCH  24  26
ATOM     26  O   LIG    1       25.243 -12.646   5.896  0.00  0.00    -0.480 OA
ATOM     27  H   LIG    1       25.652 -13.526   6.013  0.00  0.00    +0.295 HD
ENDBRANCH  24  26
ENDBRANCH  23  24
ENDBRANCH   7  23
BRANCH  10  28
ATOM     28  C   LIG    1       21.795 -19.244   4.472  0.00  0.00    +0.205 C 
BRANCH  28  29
ATOM     29  C   LIG    1       22.534 -20.379   5.183  0.00  0.00    +0.319 C 
ATOM     30  O   LIG    1       22.842 -20.394   6.383  0.00  0.00    -0.250 OA
BRANCH  29  31
ATOM     31  O   LIG    1       22.849 -21.398   4.336  0.00  0.00    -0.480 OA
ATOM     32  H   LIG    1       23.451 -22.028   4.813  0.00  0.00    +0.295 HD
ENDBRANCH  29  31
ENDBRANCH  28  29
ENDBRANCH  10  28
TORSDOF 12
ENDMDL
MODEL 3
REMARK VINA RESULT:       4.4      1.526      4.631
REMARK  Name = *****
REMARK                            x       y       z     vdW  Elec       q    Type
REMARK                         _______ _______ _______ _____ _____    ______ ____
ROOT
ATOM      1  N   LIG    1       22.863 -16.630   4.674  0.00  0.00    -0.297 NA
ATOM      2  C   LIG    1       23.773 -17.280   3.711  0.00  0.00    +0.100 C 
ATOM      3  C   LIG    1       24.916 -18.004   4.433  0.00  0.00    +0.100 C 
ATOM      4  N   LIG    1       25.835 -18.632   3.449  0.00  0.00    -0.290 NA
ATOM      5  C   LIG    1       27.200 -18.066   3.665  0.00  0.00    +0.100 C 
ATOM      6  C   LIG    1       27.349 -16.664   3.000  0.00  0.00    +0.100 C 
ATOM      7  N   LIG    1       26.914 -15.519   3.827  0.00  0.00    -0.290 NA
ATOM      8  C   LIG    1       26.535 -14.373   2.970  0.00  0.00    +0.100 C 
ATOM      9  C   LIG    1       25.687 -13.233   3.616  0.00  0.00    +0.100 C 
ATOM     10  N   LIG    1       24.205 -13.404   3.491  0.00  0.00    -0.290 NA
ATOM     11  C   LIG    1       23.754 -14.299   4.601  0.00  0.00    +0.100 C 
ATOM     12  C   LIG    1       22.599 -15.250   4.202  0.00  0.00    +0.100 C 
ENDROOT
BRANCH   1  13
ATOM     13  C   LIG    1       21.594 -17.373   4.814  0.00  0.00    +0.115 C 
BRANCH  13  15
ATOM     14  C   LIG    1       21.645 -19.926   4.636  0.00  0.00    +0.039 C 
ATOM     15  C   LIG    1       21.390 -18.612   3.906  0.00  0.00    +0.125 C 
BRANCH  15  16
ATOM     16  O   LIG    1       20.043 -18.617   3.420  0.00  0.00    -0.391 OA
ATOM     17  H   LIG    1       19.925 -19.390   2.843  0.00  0.00    +0.210 HD
ENDBRANCH  15  16
ENDBRANCH  13  15
ENDBRANCH   1  13
BRANCH   4  18
ATOM     18  C   LIG    1       25.855 -20.112   3.628  0.00  0.00    +0.205 C 
BRANCH  18  19
ATOM     19  C   LIG    1       25.728 -20.573   5.073  0.00  0.00    +0.319 C 
ATOM     20  O   LIG    1       24.673 -20.860   5.601  0.00  0.00    -0.250 OA
BRANCH  19  21
ATOM     21  O   LIG    1       26.891 -20.587   5.789  0.00  0.00    -0.480 OA
ATOM     22  H   LIG    1       27.466 -21.320   5.491  0.00  0.00    +0.295 HD
ENDBRANCH  19  21
ENDBRANCH  18  19
ENDBRANCH   4  18
BRANCH   7  23
ATOM     23  C   LIG    1       27.878 -15.167   4.903  0.00  0.00    +0.205 C 
BRANCH  23  24
ATOM     24  C   LIG    1       27.888 -13.705   5.319  0.00  0.00    +0.319 C 
ATOM     25  O   LIG    1       28.644 -12.858   4.833  0.00  0.00    -0.250 OA
BRANCH  24  26
ATOM     26  O   LIG    1       27.008 -13.391   6.291  0.00  0.00    -0.480 OA
ATOM     27  H   LIG    1       26.366 -14.099   6.498  0.00  0.00    +0.295 HD
ENDBRANCH  24  26
ENDBRANCH  23  24
ENDBRANCH   7  23
BRANCH  10  28
ATOM     28  C   LIG    1       23.554 -12.056   3.633  0.00  0.00    +0.205 C 
BRANCH  28  29
ATOM     29  C   LIG    1       23.446 -11.630   5.098  0.00  0.00    +0.319 C 
ATOM     30  O   LIG    1       22.388 -11.448   5.716  0.00  0.00    -0.250 OA
BRANCH  29  31
ATOM     31  O   LIG    1       24.667 -11.447   5.672  0.00  0.00    -0.480 OA
ATOM     32  H   LIG    1       24.675 -11.912   6.550  0.00  0.00    +0.295 HD
ENDBRANCH  29  31
ENDBRANCH  28  29
ENDBRANCH  10  28
TORSDOF 12
ENDMDL
MODEL 4
REMARK VINA RESULT:       4.5      1.600      6.581
REMARK  Name = *****
REMARK                            x       y       z     vdW  Elec       q    Type
REMARK                         _______ _______ _______ _____ _____    ______ ____
ROOT
ATOM      1  N   LIG    1       27.197 -15.860   4.553  0.00  0.00    -0.297 NA
ATOM      2  C   LIG    1       26.057 -15.997   3.625  0.00  0.00    +0.100 C 
ATOM      3  C   LIG    1       24.738 -15.628   4.313  0.00  0.00    +0.100 C 
ATOM      4  N   LIG    1       23.599 -15.794   3.374  0.00  0.00    -0.290 NA
ATOM      5  C   LIG    1       22.646 -16.777   3.972  0.00  0.00    +0.100 C 
ATOM      6  C   LIG    1       23.123 -18.245   3.747  0.00  0.00    +0.100 C 
ATOM      7  N   LIG    1       24.058 -18.770   4.763  0.00  0.00    -0.290 NA
ATOM      8  C   LIG    1       24.884 -19.860   4.195  0.00  0.00    +0.100 C 
ATOM      9  C   LIG    1       26.178 -20.268   4.966  0.00  0.00    +0.100 C 
ATOM     10  N   LIG    1       27.417 -19.542   4.541  0.00  0.00    -0.290 NA
ATOM     11  C   LIG    1       27.454 -18.238   5.270  0.00  0.00    +0.100 C 
ATOM     12  C   LIG    1       28.039 -17.074   4.432  0.00  0.00    +0.100 C 
ENDROOT
BRANCH   1  13
ATOM     13  C   LIG    1       27.997 -14.654   4.261  0.00  0.00    +0.115 C 
BRANCH  13  15
ATOM     14  C   LIG    1       28.676 -12.244   4.795  0.00  0.00    +0.039 C 
ATOM     15  C   LIG    1       27.869 -13.459   5.239  0.00  0.00    +0.125 C 
BRANCH  15  16
ATOM     16  O   LIG    1       26.491 -13.079   5.333  0.00  0.00    -0.391 OA
ATOM     17  H   LIG    1       25.950 -13.885   5.377  0.00  0.00    +0.210 HD
ENDBRANCH  15  16
ENDBRANCH  13  15
ENDBRANCH   1  13
BRANCH   4  18
ATOM     18  C   LIG    1       22.918 -14.487   3.147  0.00  0.00    +0.205 C 
BRANCH  18  19
ATOM     19  C   LIG    1       23.863 -13.312   2.944  0.00  0.00    +0.319 C 
ATOM     20  O   LIG    1       24.616 -13.205   1.998  0.00  0.00    -0.250 OA
BRANCH  19  21
ATOM     21  O   LIG    1       23.868 -12.383   3.946  0.00  0.00    -0.480 OA
ATOM     22  H   LIG    1       24.555 -11.709   3.782  0.00  0.00    +0.295 HD
ENDBRANCH  19  21
ENDBRANCH  18  19
ENDBRANCH   4  18
BRANCH   7  23
ATOM     23  C   LIG    1       23.397 -19.128   6.046  0.00  0.00    +0.205 C 
BRANCH  23  24
ATOM     24  C   LIG    1       23.002 -20.588   6.193  0.00  0.00    +0.319 C 
ATOM     25  O   LIG    1       23.457 -21.339   7.062  0.00  0.00    -0.250 OA
BRANCH  24  26
ATOM     26  O   LIG    1       22.113 -21.026   5.278  0.00  0.00    -0.480 OA
ATOM     27  H   LIG    1       21.428 -20.371   5.037  0.00  0.00    +0.295 HD
ENDBRANCH  24  26
ENDBRANCH  23  24
ENDBRANCH   7  23
BRANCH  10  28
ATOM     28  C   LIG    1       28.612 -20.371   4.925  0.00  0.00    +0.205 C 
BRANCH  28  29
ATOM     29  C   LIG    1       28.857 -20.344   6.435  0.00  0.00    +0.319 C 
ATOM     30  O   LIG    1       29.475 -19.460   7.045  0.00  0.00    -0.250 OA
BRANCH  29  31
ATOM     31  O   LIG    1       28.331 -21.433   7.061  0.00  0.00    -0.480 OA
ATOM     32  H   LIG    1       29.080 -21.997   7.390  0.00  0.00    +0.295 HD
ENDBRANCH  29  31
ENDBRANCH  28  29
ENDBRANCH  10  28
TORSDOF 12
ENDMDL
