MODEL 1
REMARK VINA RESULT:      -7.1      0.000      0.000
REMARK  Name = *****
REMARK                            x       y       z     vdW  Elec       q    Type
REMARK                         _______ _______ _______ _____ _____    ______ ____
ROOT
ATOM      1  C   LIG    1       24.378 -21.139   5.535  0.00  0.00    +0.130 C 
ATOM      2  C   LIG    1       24.346 -21.053   7.056  0.00  0.00    +0.238 C 
ATOM      3  O   LIG    1       23.317 -21.236   7.701  0.00  0.00    -0.274 OA
ATOM      4  N   LIG    1       25.556 -20.865   7.705  0.00  0.00    -0.228 N 
ATOM      5  C   LIG    1       25.543 -21.001   9.157  0.00  0.00    +0.143 C 
ATOM      6  C   LIG    1       26.705 -20.361   7.115  0.00  0.00    +0.317 C 
ATOM      7  O   LIG    1       27.705 -20.076   7.766  0.00  0.00    -0.252 OA
ATOM      8  N   LIG    1       26.655 -20.167   5.741  0.00  0.00    -0.228 N 
ATOM      9  C   LIG    1       27.850 -19.588   5.145  0.00  0.00    +0.143 C 
ATOM     10  C   LIG    1       25.538 -20.342   4.945  0.00  0.00    +0.238 C 
ATOM     11  O   LIG    1       25.514 -19.948   3.770  0.00  0.00    -0.274 OA
ENDROOT
BRANCH   1  12
ATOM     12  C   LIG    1       23.009 -20.635   4.908  0.00  0.00    +0.010 C 
ATOM     13  C   LIG    1       21.834 -21.623   5.050  0.00  0.00    +0.009 C 
BRANCH  12  14
ATOM     14  C   LIG    1       22.614 -19.234   5.464  0.00  0.00    +0.001 C 
ATOM     15  C   LIG    1       22.152 -18.234   4.409  0.00  0.00    +0.004 C 
ENDBRANCH  12  14
ENDBRANCH   1  12
BRANCH   1  16
ATOM     16  C   LIG    1       24.672 -22.645   5.200  0.00  0.00    +0.052 C 
BRANCH  16  18
ATOM     17  C   LIG    1       23.712 -24.586   6.522  0.00  0.00    +0.004 C 
ATOM     18  C   LIG    1       24.637 -23.632   6.347  0.00  0.00    -0.033 C 
ENDBRANCH  16  18
ENDBRANCH   1  16
TORSDOF 4
ENDMDL
MODEL 2
REMARK VINA RESULT:      -6.3      1.604      4.022
REMARK  Name = *****
REMARK                            x       y       z     vdW  Elec       q    Type
REMARK                         _______ _______ _______ _____ _____    ______ ____
ROOT
ATOM      1  C   LIG    1       24.700 -21.820   6.650  0.00  0.00    +0.130 C 
ATOM      2  C   LIG    1       24.928 -21.504   5.177  0.00  0.00    +0.238 C 
ATOM      3  O   LIG    1       24.272 -22.034   4.284  0.00  0.00    -0.274 OA
ATOM      4  N   LIG    1       25.840 -20.504   4.878  0.00  0.00    -0.228 N 
ATOM      5  C   LIG    1       25.889 -20.063   3.489  0.00  0.00    +0.143 C 
ATOM      6  C   LIG    1       26.832 -20.051   5.733  0.00  0.00    +0.317 C 
ATOM      7  O   LIG    1       27.705 -19.270   5.369  0.00  0.00    -0.252 OA
ATOM      8  N   LIG    1       26.803 -20.554   7.027  0.00  0.00    -0.228 N 
ATOM      9  C   LIG    1       27.883 -20.110   7.898  0.00  0.00    +0.143 C 
ATOM     10  C   LIG    1       25.938 -21.527   7.492  0.00  0.00    +0.238 C 
ATOM     11  O   LIG    1       26.111 -22.074   8.591  0.00  0.00    -0.274 OA
ENDROOT
BRANCH   1  12
ATOM     12  C   LIG    1       24.266 -23.335   6.846  0.00  0.00    +0.010 C 
ATOM     13  C   LIG    1       22.756 -23.599   6.684  0.00  0.00    +0.009 C 
BRANCH  12  14
ATOM     14  C   LIG    1       25.087 -24.283   5.921  0.00  0.00    +0.001 C 
ATOM     15  C   LIG    1       25.868 -25.371   6.651  0.00  0.00    +0.004 C 
ENDBRANCH  12  14
ENDBRANCH   1  12
BRANCH   1  16
ATOM     16  C   LIG    1       23.597 -20.814   7.136  0.00  0.00    +0.052 C 
BRANCH  16  18
ATOM     17  C   LIG    1       22.607 -19.182   5.465  0.00  0.00    +0.004 C 
ATOM     18  C   LIG    1       22.578 -20.353   6.116  0.00  0.00    -0.033 C 
ENDBRANCH  16  18
ENDBRANCH   1  16
TORSDOF 4
ENDMDL
MODEL 3
REMARK VINA RESULT:      -6.2      2.220      4.606
REMARK  Name = *****
REMARK                            x       y       z     vdW  Elec       q    Type
REMARK                         _______ _______ _______ _____ _____    ______ ____
ROOT
ATOM      1  C   LIG    1       25.347 -21.546   6.466  0.00  0.00    +0.130 C 
ATOM      2  C   LIG    1       23.851 -21.639   6.742  0.00  0.00    +0.238 C 
ATOM      3  O   LIG    1       23.172 -20.651   7.009  0.00  0.00    -0.274 OA
ATOM      4  N   LIG    1       23.252 -22.877   6.574  0.00  0.00    -0.228 N 
ATOM      5  C   LIG    1       21.796 -22.907   6.627  0.00  0.00    +0.143 C 
ATOM      6  C   LIG    1       23.922 -24.090   6.570  0.00  0.00    +0.317 C 
ATOM      7  O   LIG    1       23.331 -25.165   6.565  0.00  0.00    -0.252 OA
ATOM      8  N   LIG    1       25.309 -24.026   6.601  0.00  0.00    -0.228 N 
ATOM      9  C   LIG    1       25.997 -25.309   6.651  0.00  0.00    +0.143 C 
ATOM     10  C   LIG    1       26.057 -22.870   6.732  0.00  0.00    +0.238 C 
ATOM     11  O   LIG    1       27.274 -22.911   6.964  0.00  0.00    -0.274 OA
ENDROOT
BRANCH   1  12
ATOM     12  C   LIG    1       26.015 -20.397   7.336  0.00  0.00    +0.010 C 
ATOM     13  C   LIG    1       26.068 -20.685   8.850  0.00  0.00    +0.009 C 
BRANCH  12  14
ATOM     14  C   LIG    1       27.431 -20.032   6.800  0.00  0.00    +0.001 C 
ATOM     15  C   LIG    1       28.501 -19.874   7.876  0.00  0.00    +0.004 C 
ENDBRANCH  12  14
ENDBRANCH   1  12
BRANCH   1  16
ATOM     16  C   LIG    1       25.480 -21.284   4.924  0.00  0.00    +0.052 C 
BRANCH  16  18
ATOM     17  C   LIG    1       25.105 -19.124   3.648  0.00  0.00    +0.004 C 
ATOM     18  C   LIG    1       24.635 -20.177   4.331  0.00  0.00    -0.033 C 
ENDBRANCH  16  18
ENDBRANCH   1  16
TORSDOF 4
ENDMDL
MODEL 4
REMARK VINA RESULT:      -5.7      1.951      2.702
REMARK  Name = *****
REMARK                            x       y       z     vdW  Elec       q    Type
REMARK                         _______ _______ _______ _____ _____    ______ ____
ROOT
ATOM      1  C   LIG    1       25.246 -21.702   6.573  0.00  0.00    +0.130 C 
ATOM      2  C   LIG    1       26.413 -21.396   7.504  0.00  0.00    +0.238 C 
ATOM      3  O   LIG    1       26.447 -21.795   8.665  0.00  0.00    -0.274 OA
ATOM      4  N   LIG    1       27.502 -20.735   6.958  0.00  0.00    -0.228 N 
ATOM      5  C   LIG    1       28.692 -20.643   7.794  0.00  0.00    +0.143 C 
ATOM      6  C   LIG    1       27.474 -19.989   5.790  0.00  0.00    +0.317 C 
ATOM      7  O   LIG    1       28.426 -19.304   5.428  0.00  0.00    -0.252 OA
ATOM      8  N   LIG    1       26.295 -20.036   5.059  0.00  0.00    -0.228 N 
ATOM      9  C   LIG    1       26.264 -19.205   3.863  0.00  0.00    +0.143 C 
ATOM     10  C   LIG    1       25.134 -20.678   5.447  0.00  0.00    +0.238 C 
ATOM     11  O   LIG    1       24.064 -20.498   4.847  0.00  0.00    -0.274 OA
ENDROOT
BRANCH   1  12
ATOM     12  C   LIG    1       23.878 -21.763   7.378  0.00  0.00    +0.010 C 
ATOM     13  C   LIG    1       23.406 -20.411   7.949  0.00  0.00    +0.009 C 
BRANCH  12  14
ATOM     14  C   LIG    1       22.750 -22.420   6.528  0.00  0.00    +0.001 C 
ATOM     15  C   LIG    1       22.506 -23.897   6.820  0.00  0.00    +0.004 C 
ENDBRANCH  12  14
ENDBRANCH   1  12
BRANCH   1  16
ATOM     16  C   LIG    1       25.597 -23.068   5.883  0.00  0.00    +0.052 C 
BRANCH  16  18
ATOM     17  C   LIG    1       25.910 -25.521   6.448  0.00  0.00    +0.004 C 
ATOM     18  C   LIG    1       25.972 -24.226   6.784  0.00  0.00    -0.033 C 
ENDBRANCH  16  18
ENDBRANCH   1  16
TORSDOF 4
ENDMDL
MODEL 5
REMARK VINA RESULT:      -5.4      1.999      4.899
REMARK  Name = *****
REMARK                            x       y       z     vdW  Elec       q    Type
REMARK                         _______ _______ _______ _____ _____    ______ ____
ROOT
ATOM      1  C   LIG    1       27.082 -20.987   7.207  0.00  0.00    +0.130 C 
ATOM      2  C   LIG    1       26.949 -20.349   5.830  0.00  0.00    +0.238 C 
ATOM      3  O   LIG    1       27.926 -19.979   5.182  0.00  0.00    -0.274 OA
ATOM      4  N   LIG    1       25.681 -20.297   5.275  0.00  0.00    -0.228 N 
ATOM      5  C   LIG    1       25.597 -19.887   3.879  0.00  0.00    +0.143 C 
ATOM      6  C   LIG    1       24.497 -20.397   5.989  0.00  0.00    +0.317 C 
ATOM      7  O   LIG    1       23.402 -20.198   5.474  0.00  0.00    -0.252 OA
ATOM      8  N   LIG    1       24.617 -20.710   7.337  0.00  0.00    -0.228 N 
ATOM      9  C   LIG    1       23.368 -20.759   8.085  0.00  0.00    +0.143 C 
ATOM     10  C   LIG    1       25.807 -20.831   8.030  0.00  0.00    +0.238 C 
ATOM     11  O   LIG    1       25.830 -20.901   9.268  0.00  0.00    -0.274 OA
ENDROOT
BRANCH   1  12
ATOM     12  C   LIG    1       28.311 -20.372   8.002  0.00  0.00    +0.010 C 
ATOM     13  C   LIG    1       29.477 -21.352   8.243  0.00  0.00    +0.009 C 
BRANCH  12  14
ATOM     14  C   LIG    1       28.826 -19.066   7.328  0.00  0.00    +0.001 C 
ATOM     15  C   LIG    1       30.127 -18.517   7.904  0.00  0.00    +0.004 C 
ENDBRANCH  12  14
ENDBRANCH   1  12
BRANCH   1  16
ATOM     16  C   LIG    1       27.245 -22.527   6.949  0.00  0.00    +0.052 C 
BRANCH  16  18
ATOM     17  C   LIG    1       25.568 -24.368   6.466  0.00  0.00    +0.004 C 
ATOM     18  C   LIG    1       26.062 -23.415   7.268  0.00  0.00    -0.033 C 
ENDBRANCH  16  18
ENDBRANCH   1  16
TORSDOF 4
ENDMDL
MODEL 6
REMARK VINA RESULT:      -5.3      1.860      4.290
REMARK  Name = *****
REMARK                            x       y       z     vdW  Elec       q    Type
REMARK                         _______ _______ _______ _____ _____    ______ ____
ROOT
ATOM      1  C   LIG    1       24.762 -21.825   5.911  0.00  0.00    +0.130 C 
ATOM      2  C   LIG    1       25.529 -20.642   5.332  0.00  0.00    +0.238 C 
ATOM      3  O   LIG    1       26.692 -20.400   5.643  0.00  0.00    -0.274 OA
ATOM      4  N   LIG    1       24.899 -19.900   4.345  0.00  0.00    -0.228 N 
ATOM      5  C   LIG    1       25.718 -18.915   3.650  0.00  0.00    +0.143 C 
ATOM      6  C   LIG    1       23.531 -19.877   4.121  0.00  0.00    +0.317 C 
ATOM      7  O   LIG    1       23.010 -19.093   3.334  0.00  0.00    -0.252 OA
ATOM      8  N   LIG    1       22.772 -20.774   4.859  0.00  0.00    -0.228 N 
ATOM      9  C   LIG    1       21.332 -20.699   4.651  0.00  0.00    +0.143 C 
ATOM     10  C   LIG    1       23.253 -21.606   5.854  0.00  0.00    +0.238 C 
ATOM     11  O   LIG    1       22.486 -22.220   6.609  0.00  0.00    -0.274 OA
ENDROOT
BRANCH   1  12
ATOM     12  C   LIG    1       25.204 -22.111   7.408  0.00  0.00    +0.010 C 
ATOM     13  C   LIG    1       26.630 -22.679   7.561  0.00  0.00    +0.009 C 
BRANCH  12  14
ATOM     14  C   LIG    1       25.021 -20.850   8.304  0.00  0.00    +0.001 C 
ATOM     15  C   LIG    1       26.295 -20.352   8.978  0.00  0.00    +0.004 C 
ENDBRANCH  12  14
ENDBRANCH   1  12
BRANCH   1  16
ATOM     16  C   LIG    1       25.061 -23.035   4.955  0.00  0.00    +0.052 C 
BRANCH  16  18
ATOM     17  C   LIG    1       25.153 -25.569   4.876  0.00  0.00    +0.004 C 
ATOM     18  C   LIG    1       24.858 -24.428   5.513  0.00  0.00    -0.033 C 
ENDBRANCH  16  18
ENDBRANCH   1  16
TORSDOF 4
ENDMDL
MODEL 7
REMARK VINA RESULT:      -5.3      1.612      3.893
REMARK  Name = *****
REMARK                            x       y       z     vdW  Elec       q    Type
REMARK                         _______ _______ _______ _____ _____    ______ ____
ROOT
ATOM      1  C   LIG    1       24.714 -21.804   6.312  0.00  0.00    +0.130 C 
ATOM      2  C   LIG    1       23.978 -21.160   5.144  0.00  0.00    +0.238 C 
ATOM      3  O   LIG    1       22.876 -21.550   4.769  0.00  0.00    -0.274 OA
ATOM      4  N   LIG    1       24.552 -20.033   4.578  0.00  0.00    -0.228 N 
ATOM      5  C   LIG    1       23.738 -19.304   3.613  0.00  0.00    +0.143 C 
ATOM      6  C   LIG    1       25.886 -19.676   4.696  0.00  0.00    +0.317 C 
ATOM      7  O   LIG    1       26.377 -18.751   4.056  0.00  0.00    -0.252 OA
ATOM      8  N   LIG    1       26.653 -20.444   5.563  0.00  0.00    -0.228 N 
ATOM      9  C   LIG    1       28.064 -20.089   5.636  0.00  0.00    +0.143 C 
ATOM     10  C   LIG    1       26.221 -21.575   6.230  0.00  0.00    +0.238 C 
ATOM     11  O   LIG    1       27.017 -22.324   6.816  0.00  0.00    -0.274 OA
ENDROOT
BRANCH   1  12
ATOM     12  C   LIG    1       24.414 -23.362   6.384  0.00  0.00    +0.010 C 
ATOM     13  C   LIG    1       22.966 -23.721   6.773  0.00  0.00    +0.009 C 
BRANCH  12  14
ATOM     14  C   LIG    1       24.817 -24.078   5.061  0.00  0.00    +0.001 C 
ATOM     15  C   LIG    1       25.401 -25.475   5.242  0.00  0.00    +0.004 C 
ENDBRANCH  12  14
ENDBRANCH   1  12
BRANCH   1  16
ATOM     16  C   LIG    1       24.229 -21.040   7.595  0.00  0.00    +0.052 C 
BRANCH  16  18
ATOM     17  C   LIG    1       26.064 -20.250   9.159  0.00  0.00    +0.004 C 
ATOM     18  C   LIG    1       25.103 -21.124   8.828  0.00  0.00    -0.033 C 
ENDBRANCH  16  18
ENDBRANCH   1  16
TORSDOF 4
ENDMDL
MODEL 8
REMARK VINA RESULT:      -5.1      2.006      2.935
REMARK  Name = *****
REMARK                            x       y       z     vdW  Elec       q    Type
REMARK                         _______ _______ _______ _____ _____    ______ ____
ROOT
ATOM      1  C   LIG    1       24.497 -21.013   5.699  0.00  0.00    +0.130 C 
ATOM      2  C   LIG    1       25.570 -21.063   6.781  0.00  0.00    +0.238 C 
ATOM      3  O   LIG    1       26.003 -20.048   7.320  0.00  0.00    -0.274 OA
ATOM      4  N   LIG    1       25.969 -22.315   7.221  0.00  0.00    -0.228 N 
ATOM      5  C   LIG    1       26.828 -22.347   8.398  0.00  0.00    +0.143 C 
ATOM      6  C   LIG    1       25.792 -23.497   6.519  0.00  0.00    +0.317 C 
ATOM      7  O   LIG    1       26.293 -24.556   6.883  0.00  0.00    -0.252 OA
ATOM      8  N   LIG    1       25.035 -23.414   5.358  0.00  0.00    -0.228 N 
ATOM      9  C   LIG    1       24.903 -24.654   4.605  0.00  0.00    +0.143 C 
ATOM     10  C   LIG    1       24.536 -22.249   4.806  0.00  0.00    +0.238 C 
ATOM     11  O   LIG    1       24.055 -22.230   3.663  0.00  0.00    -0.274 OA
ENDROOT
BRANCH   1  12
ATOM     12  C   LIG    1       24.646 -19.706   4.811  0.00  0.00    +0.010 C 
ATOM     13  C   LIG    1       25.889 -19.686   3.899  0.00  0.00    +0.009 C 
BRANCH  12  14
ATOM     14  C   LIG    1       23.356 -19.435   3.981  0.00  0.00    +0.001 C 
ATOM     15  C   LIG    1       22.445 -18.353   4.550  0.00  0.00    +0.004 C 
ENDBRANCH  12  14
ENDBRANCH   1  12
BRANCH   1  16
ATOM     16  C   LIG    1       23.124 -21.070   6.458  0.00  0.00    +0.052 C 
BRANCH  16  18
ATOM     17  C   LIG    1       22.170 -23.384   6.867  0.00  0.00    +0.004 C 
ATOM     18  C   LIG    1       22.838 -22.302   7.289  0.00  0.00    -0.033 C 
ENDBRANCH  16  18
ENDBRANCH   1  16
TORSDOF 4
ENDMDL
MODEL 9
REMARK VINA RESULT:      -5.1      1.916      3.754
REMARK  Name = *****
REMARK                            x       y       z     vdW  Elec       q    Type
REMARK                         _______ _______ _______ _____ _____    ______ ____
ROOT
ATOM      1  C   LIG    1       25.011 -20.997   5.638  0.00  0.00    +0.130 C 
ATOM      2  C   LIG    1       24.707 -22.321   4.947  0.00  0.00    +0.238 C 
ATOM      3  O   LIG    1       24.160 -22.377   3.849  0.00  0.00    -0.274 OA
ATOM      4  N   LIG    1       25.173 -23.475   5.558  0.00  0.00    -0.228 N 
ATOM      5  C   LIG    1       25.068 -24.706   4.785  0.00  0.00    +0.143 C 
ATOM      6  C   LIG    1       25.526 -23.580   6.894  0.00  0.00    +0.317 C 
ATOM      7  O   LIG    1       25.791 -24.657   7.419  0.00  0.00    -0.252 OA
ATOM      8  N   LIG    1       25.537 -22.397   7.621  0.00  0.00    -0.228 N 
ATOM      9  C   LIG    1       25.857 -22.532   9.035  0.00  0.00    +0.143 C 
ATOM     10  C   LIG    1       25.136 -21.160   7.149  0.00  0.00    +0.238 C 
ATOM     11  O   LIG    1       24.974 -20.199   7.915  0.00  0.00    -0.274 OA
ENDROOT
BRANCH   1  12
ATOM     12  C   LIG    1       23.897 -19.915   5.307  0.00  0.00    +0.010 C 
ATOM     13  C   LIG    1       24.038 -19.247   3.925  0.00  0.00    +0.009 C 
BRANCH  12  14
ATOM     14  C   LIG    1       22.466 -20.504   5.484  0.00  0.00    +0.001 C 
ATOM     15  C   LIG    1       21.472 -20.108   4.397  0.00  0.00    +0.004 C 
ENDBRANCH  12  14
ENDBRANCH   1  12
BRANCH   1  16
ATOM     16  C   LIG    1       26.433 -20.568   5.129  0.00  0.00    +0.052 C 
BRANCH  16  18
ATOM     17  C   LIG    1       28.673 -20.485   6.317  0.00  0.00    +0.004 C 
ATOM     18  C   LIG    1       27.414 -20.053   6.160  0.00  0.00    -0.033 C 
ENDBRANCH  16  18
ENDBRANCH   1  16
TORSDOF 4
ENDMDL
