MODEL 1
REMARK VINA RESULT:      -6.7      0.000      0.000
REMARK  Name = *****
REMARK                            x       y       z     vdW  Elec       q    Type
REMARK                         _______ _______ _______ _____ _____    ______ ____
ROOT
ATOM      1  C   LIG    1       25.516 -18.426   3.357  0.00  0.00    +0.229 C 
ENDROOT
BRANCH   1   2
ATOM      2  O   LIG    1       26.040 -19.416   4.266  0.00  0.00    -0.492 OA
BRANCH   2   6
ATOM      3  C   LIG    1       21.454 -21.271   4.803  0.00  0.00    +0.044 C 
ATOM      4  C   LIG    1       22.846 -21.062   5.322  0.00  0.00    -0.047 A 
ATOM      5  C   LIG    1       23.809 -20.425   4.518  0.00  0.00    +0.049 A 
ATOM      6  C   LIG    1       25.105 -20.148   4.987  0.00  0.00    +0.124 A 
ATOM      7  C   LIG    1       25.457 -20.626   6.270  0.00  0.00    -0.009 A 
ATOM      8  C   LIG    1       26.810 -20.429   6.897  0.00  0.00    +0.048 C 
ATOM      9  C   LIG    1       24.489 -21.282   7.062  0.00  0.00    +0.007 A 
ATOM     10  C   LIG    1       23.195 -21.492   6.598  0.00  0.00    +0.004 A 
ENDBRANCH   2   6
ENDBRANCH   1   2
BRANCH   1  11
ATOM     11  C   LIG    1       26.304 -17.092   3.342  0.00  0.00    +0.042 C 
BRANCH  11  12
ATOM     12  C   LIG    1       25.475 -15.791   3.479  0.00  0.00    +0.021 C 
BRANCH  12  13
ATOM     13  C   LIG    1       26.298 -14.454   3.539  0.00  0.00    +0.062 C 
ATOM     14  C   LIG    1       26.300 -13.731   2.177  0.00  0.00    +0.022 C 
ATOM     15  C   LIG    1       27.756 -14.724   3.956  0.00  0.00    +0.022 C 
BRANCH  13  16
ATOM     16  C   LIG    1       25.704 -13.522   4.617  0.00  0.00    +0.310 C 
ATOM     17  O   LIG    1       24.574 -13.088   4.644  0.00  0.00    -0.250 OA
BRANCH  16  18
ATOM     18  O   LIG    1       26.549 -13.243   5.637  0.00  0.00    -0.480 OA
ATOM     19  H   LIG    1       26.921 -14.108   5.907  0.00  0.00    +0.295 HD
ENDBRANCH  16  18
ENDBRANCH  13  16
ENDBRANCH  12  13
ENDBRANCH  11  12
ENDBRANCH   1  11
TORSDOF 7
ENDMDL
MODEL 2
REMARK VINA RESULT:      -6.4      1.885      7.128
REMARK  Name = *****
REMARK                            x       y       z     vdW  Elec       q    Type
REMARK                         _______ _______ _______ _____ _____    ______ ____
ROOT
ATOM      1  C   LIG    1       26.215 -17.647   3.351  0.00  0.00    +0.229 C 
ENDROOT
BRANCH   1   2
ATOM      2  O   LIG    1       25.443 -16.506   2.923  0.00  0.00    -0.492 OA
BRANCH   2   6
ATOM      3  C   LIG    1       28.940 -13.099   3.884  0.00  0.00    +0.044 C 
ATOM      4  C   LIG    1       27.518 -13.568   3.969  0.00  0.00    -0.047 A 
ATOM      5  C   LIG    1       27.131 -14.761   3.330  0.00  0.00    +0.049 A 
ATOM      6  C   LIG    1       25.826 -15.274   3.438  0.00  0.00    +0.124 A 
ATOM      7  C   LIG    1       24.869 -14.497   4.129  0.00  0.00    -0.009 A 
ATOM      8  C   LIG    1       23.431 -14.901   4.307  0.00  0.00    +0.048 C 
ATOM      9  C   LIG    1       25.262 -13.291   4.750  0.00  0.00    +0.007 A 
ATOM     10  C   LIG    1       26.573 -12.834   4.678  0.00  0.00    +0.004 A 
ENDBRANCH   2   6
ENDBRANCH   1   2
BRANCH   1  11
ATOM     11  C   LIG    1       25.433 -18.985   3.347  0.00  0.00    +0.042 C 
BRANCH  11  12
ATOM     12  C   LIG    1       24.075 -19.000   4.091  0.00  0.00    +0.021 C 
BRANCH  12  13
ATOM     13  C   LIG    1       23.625 -20.389   4.673  0.00  0.00    +0.062 C 
ATOM     14  C   LIG    1       24.077 -21.553   3.768  0.00  0.00    +0.022 C 
ATOM     15  C   LIG    1       22.094 -20.451   4.829  0.00  0.00    +0.022 C 
BRANCH  13  16
ATOM     16  C   LIG    1       24.213 -20.577   6.088  0.00  0.00    +0.310 C 
ATOM     17  O   LIG    1       25.387 -20.544   6.386  0.00  0.00    -0.250 OA
BRANCH  16  18
ATOM     18  O   LIG    1       23.284 -20.732   7.061  0.00  0.00    -0.480 OA
ATOM     19  H   LIG    1       23.758 -21.164   7.802  0.00  0.00    +0.295 HD
ENDBRANCH  16  18
ENDBRANCH  13  16
ENDBRANCH  12  13
ENDBRANCH  11  12
ENDBRANCH   1  11
TORSDOF 7
ENDMDL
MODEL 3
REMARK VINA RESULT:      -6.3      1.128      2.754
REMARK  Name = *****
REMARK                            x       y       z     vdW  Elec       q    Type
REMARK                         _______ _______ _______ _____ _____    ______ ____
ROOT
ATOM      1  C   LIG    1       24.893 -17.774   3.676  0.00  0.00    +0.229 C 
ENDROOT
BRANCH   1   2
ATOM      2  O   LIG    1       24.943 -19.212   3.577  0.00  0.00    -0.492 OA
BRANCH   2   6
ATOM      3  C   LIG    1       28.148 -21.072   6.898  0.00  0.00    +0.044 C 
ATOM      4  C   LIG    1       26.744 -20.873   6.410  0.00  0.00    -0.047 A 
ATOM      5  C   LIG    1       26.497 -20.064   5.285  0.00  0.00    +0.049 A 
ATOM      6  C   LIG    1       25.206 -19.902   4.753  0.00  0.00    +0.124 A 
ATOM      7  C   LIG    1       24.128 -20.498   5.447  0.00  0.00    -0.009 A 
ATOM      8  C   LIG    1       22.692 -20.395   5.015  0.00  0.00    +0.048 C 
ATOM      9  C   LIG    1       24.384 -21.292   6.587  0.00  0.00    +0.007 A 
ATOM     10  C   LIG    1       25.677 -21.485   7.060  0.00  0.00    +0.004 A 
ENDBRANCH   2   6
ENDBRANCH   1   2
BRANCH   1  11
ATOM     11  C   LIG    1       26.084 -17.045   3.005  0.00  0.00    +0.042 C 
BRANCH  11  12
ATOM     12  C   LIG    1       26.857 -16.025   3.876  0.00  0.00    +0.021 C 
BRANCH  12  13
ATOM     13  C   LIG    1       26.395 -14.527   3.754  0.00  0.00    +0.062 C 
ATOM     14  C   LIG    1       24.932 -14.350   4.207  0.00  0.00    +0.022 C 
ATOM     15  C   LIG    1       26.525 -14.028   2.303  0.00  0.00    +0.022 C 
BRANCH  13  16
ATOM     16  C   LIG    1       27.313 -13.626   4.607  0.00  0.00    +0.310 C 
ATOM     17  O   LIG    1       28.337 -13.095   4.239  0.00  0.00    -0.250 OA
BRANCH  16  18
ATOM     18  O   LIG    1       26.853 -13.390   5.859  0.00  0.00    -0.480 OA
ATOM     19  H   LIG    1       25.906 -13.639   5.836  0.00  0.00    +0.295 HD
ENDBRANCH  16  18
ENDBRANCH  13  16
ENDBRANCH  12  13
ENDBRANCH  11  12
ENDBRANCH   1  11
TORSDOF 7
ENDMDL
MODEL 4
REMARK VINA RESULT:      -6.1      0.847      2.571
REMARK  Name = *****
REMARK                            x       y       z     vdW  Elec       q    Type
REMARK                         _______ _______ _______ _____ _____    ______ ____
ROOT
ATOM      1  C   LIG    1       24.812 -18.048   3.322  0.00  0.00    +0.229 C 
ENDROOT
BRANCH   1   2
ATOM      2  O   LIG    1       25.433 -19.349   3.338  0.00  0.00    -0.492 OA
BRANCH   2   6
ATOM      3  C   LIG    1       28.563 -20.604   6.997  0.00  0.00    +0.044 C 
ATOM      4  C   LIG    1       27.181 -20.575   6.415  0.00  0.00    -0.047 A 
ATOM      5  C   LIG    1       26.940 -19.899   5.205  0.00  0.00    +0.049 A 
ATOM      6  C   LIG    1       25.676 -19.902   4.588  0.00  0.00    +0.124 A 
ATOM      7  C   LIG    1       24.610 -20.524   5.277  0.00  0.00    -0.009 A 
ATOM      8  C   LIG    1       23.200 -20.588   4.758  0.00  0.00    +0.048 C 
ATOM      9  C   LIG    1       24.857 -21.183   6.501  0.00  0.00    +0.007 A 
ATOM     10  C   LIG    1       26.129 -21.217   7.062  0.00  0.00    +0.004 A 
ENDBRANCH   2   6
ENDBRANCH   1   2
BRANCH   1  11
ATOM     11  C   LIG    1       25.805 -16.865   3.440  0.00  0.00    +0.042 C 
BRANCH  11  12
ATOM     12  C   LIG    1       25.195 -15.465   3.697  0.00  0.00    +0.021 C 
BRANCH  12  13
ATOM     13  C   LIG    1       26.201 -14.258   3.656  0.00  0.00    +0.062 C 
ATOM     14  C   LIG    1       26.136 -13.516   2.306  0.00  0.00    +0.022 C 
ATOM     15  C   LIG    1       27.646 -14.738   3.885  0.00  0.00    +0.022 C 
BRANCH  13  16
ATOM     16  C   LIG    1       25.883 -13.274   4.802  0.00  0.00    +0.310 C 
ATOM     17  O   LIG    1       24.868 -12.625   4.928  0.00  0.00    -0.250 OA
BRANCH  16  18
ATOM     18  O   LIG    1       26.837 -13.211   5.761  0.00  0.00    -0.480 OA
ATOM     19  H   LIG    1       26.477 -13.722   6.515  0.00  0.00    +0.295 HD
ENDBRANCH  16  18
ENDBRANCH  13  16
ENDBRANCH  12  13
ENDBRANCH  11  12
ENDBRANCH   1  11
TORSDOF 7
ENDMDL
MODEL 5
REMARK VINA RESULT:      -6.0      1.576      2.028
REMARK  Name = *****
REMARK                            x       y       z     vdW  Elec       q    Type
REMARK                         _______ _______ _______ _____ _____    ______ ____
ROOT
ATOM      1  C   LIG    1       26.743 -18.196   4.040  0.00  0.00    +0.229 C 
ENDROOT
BRANCH   1   2
ATOM      2  O   LIG    1       26.096 -19.441   3.704  0.00  0.00    -0.492 OA
BRANCH   2   6
ATOM      3  C   LIG    1       21.204 -18.549   3.895  0.00  0.00    +0.044 C 
ATOM      4  C   LIG    1       22.428 -19.231   4.431  0.00  0.00    -0.047 A 
ATOM      5  C   LIG    1       23.660 -19.092   3.765  0.00  0.00    +0.049 A 
ATOM      6  C   LIG    1       24.845 -19.658   4.268  0.00  0.00    +0.124 A 
ATOM      7  C   LIG    1       24.750 -20.469   5.421  0.00  0.00    -0.009 A 
ATOM      8  C   LIG    1       25.923 -21.158   6.061  0.00  0.00    +0.048 C 
ATOM      9  C   LIG    1       23.505 -20.618   6.071  0.00  0.00    +0.007 A 
ATOM     10  C   LIG    1       22.357 -20.000   5.588  0.00  0.00    +0.004 A 
ENDBRANCH   2   6
ENDBRANCH   1   2
BRANCH   1  11
ATOM     11  C   LIG    1       26.154 -16.956   3.321  0.00  0.00    +0.042 C 
BRANCH  11  12
ATOM     12  C   LIG    1       26.827 -15.594   3.617  0.00  0.00    +0.021 C 
BRANCH  12  13
ATOM     13  C   LIG    1       25.853 -14.392   3.899  0.00  0.00    +0.062 C 
ATOM     14  C   LIG    1       26.265 -13.618   5.167  0.00  0.00    +0.022 C 
ATOM     15  C   LIG    1       24.405 -14.887   4.072  0.00  0.00    +0.022 C 
BRANCH  13  16
ATOM     16  C   LIG    1       25.843 -13.433   2.690  0.00  0.00    +0.310 C 
ATOM     17  O   LIG    1       25.066 -12.523   2.504  0.00  0.00    -0.250 OA
BRANCH  16  18
ATOM     18  O   LIG    1       26.854 -13.634   1.812  0.00  0.00    -0.480 OA
ATOM     19  H   LIG    1       26.667 -13.031   1.063  0.00  0.00    +0.295 HD
ENDBRANCH  16  18
ENDBRANCH  13  16
ENDBRANCH  12  13
ENDBRANCH  11  12
ENDBRANCH   1  11
TORSDOF 7
ENDMDL
MODEL 6
REMARK VINA RESULT:      -5.6      2.117      7.245
REMARK  Name = *****
REMARK                            x       y       z     vdW  Elec       q    Type
REMARK                         _______ _______ _______ _____ _____    ______ ____
ROOT
ATOM      1  C   LIG    1       22.803 -16.282   4.524  0.00  0.00    +0.229 C 
ENDROOT
BRANCH   1   2
ATOM      2  O   LIG    1       24.190 -16.356   4.138  0.00  0.00    -0.492 OA
BRANCH   2   6
ATOM      3  C   LIG    1       23.848 -11.571   2.816  0.00  0.00    +0.044 C 
ATOM      4  C   LIG    1       24.664 -12.813   3.019  0.00  0.00    -0.047 A 
ATOM      5  C   LIG    1       24.069 -13.965   3.568  0.00  0.00    +0.049 A 
ATOM      6  C   LIG    1       24.777 -15.171   3.715  0.00  0.00    +0.124 A 
ATOM      7  C   LIG    1       26.152 -15.170   3.388  0.00  0.00    -0.009 A 
ATOM      8  C   LIG    1       27.045 -16.374   3.514  0.00  0.00    +0.048 C 
ATOM      9  C   LIG    1       26.745 -14.004   2.857  0.00  0.00    +0.007 A 
ATOM     10  C   LIG    1       26.009 -12.840   2.666  0.00  0.00    +0.004 A 
ENDBRANCH   2   6
ENDBRANCH   1   2
BRANCH   1  11
ATOM     11  C   LIG    1       22.142 -17.656   4.798  0.00  0.00    +0.042 C 
BRANCH  11  12
ATOM     12  C   LIG    1       22.674 -18.861   3.984  0.00  0.00    +0.021 C 
BRANCH  12  13
ATOM     13  C   LIG    1       22.826 -20.212   4.774  0.00  0.00    +0.062 C 
ATOM     14  C   LIG    1       21.560 -21.083   4.647  0.00  0.00    +0.022 C 
ATOM     15  C   LIG    1       23.096 -19.949   6.267  0.00  0.00    +0.022 C 
BRANCH  13  16
ATOM     16  C   LIG    1       24.046 -20.993   4.242  0.00  0.00    +0.310 C 
ATOM     17  O   LIG    1       25.092 -21.173   4.827  0.00  0.00    -0.250 OA
BRANCH  16  18
ATOM     18  O   LIG    1       23.857 -21.561   3.028  0.00  0.00    -0.480 OA
ATOM     19  H   LIG    1       23.018 -22.060   3.105  0.00  0.00    +0.295 HD
ENDBRANCH  16  18
ENDBRANCH  13  16
ENDBRANCH  12  13
ENDBRANCH  11  12
ENDBRANCH   1  11
TORSDOF 7
ENDMDL
MODEL 7
REMARK VINA RESULT:      -5.6      1.097      1.265
REMARK  Name = *****
REMARK                            x       y       z     vdW  Elec       q    Type
REMARK                         _______ _______ _______ _____ _____    ______ ____
ROOT
ATOM      1  C   LIG    1       25.951 -17.529   3.329  0.00  0.00    +0.229 C 
ENDROOT
BRANCH   1   2
ATOM      2  O   LIG    1       26.622 -18.695   3.849  0.00  0.00    -0.492 OA
BRANCH   2   6
ATOM      3  C   LIG    1       22.214 -20.730   4.941  0.00  0.00    +0.044 C 
ATOM      4  C   LIG    1       23.686 -20.592   5.194  0.00  0.00    -0.047 A 
ATOM      5  C   LIG    1       24.474 -19.787   4.350  0.00  0.00    +0.049 A 
ATOM      6  C   LIG    1       25.844 -19.577   4.588  0.00  0.00    +0.124 A 
ATOM      7  C   LIG    1       26.444 -20.286   5.653  0.00  0.00    -0.009 A 
ATOM      8  C   LIG    1       27.900 -20.183   6.015  0.00  0.00    +0.048 C 
ATOM      9  C   LIG    1       25.649 -21.108   6.482  0.00  0.00    +0.007 A 
ATOM     10  C   LIG    1       24.284 -21.254   6.262  0.00  0.00    +0.004 A 
ENDBRANCH   2   6
ENDBRANCH   1   2
BRANCH   1  11
ATOM     11  C   LIG    1       26.798 -16.232   3.374  0.00  0.00    +0.042 C 
BRANCH  11  12
ATOM     12  C   LIG    1       26.284 -15.035   2.537  0.00  0.00    +0.021 C 
BRANCH  12  13
ATOM     13  C   LIG    1       26.091 -13.683   3.317  0.00  0.00    +0.062 C 
ATOM     14  C   LIG    1       26.062 -12.478   2.356  0.00  0.00    +0.022 C 
ATOM     15  C   LIG    1       27.223 -13.471   4.339  0.00  0.00    +0.022 C 
BRANCH  13  16
ATOM     16  C   LIG    1       24.778 -13.730   4.127  0.00  0.00    +0.310 C 
ATOM     17  O   LIG    1       23.993 -14.652   4.165  0.00  0.00    -0.250 OA
BRANCH  16  18
ATOM     18  O   LIG    1       24.559 -12.637   4.895  0.00  0.00    -0.480 OA
ATOM     19  H   LIG    1       23.859 -12.133   4.431  0.00  0.00    +0.295 HD
ENDBRANCH  16  18
ENDBRANCH  13  16
ENDBRANCH  12  13
ENDBRANCH  11  12
ENDBRANCH   1  11
TORSDOF 7
ENDMDL
MODEL 8
REMARK VINA RESULT:      -5.0      2.011      2.998
REMARK  Name = *****
REMARK                            x       y       z     vdW  Elec       q    Type
REMARK                         _______ _______ _______ _____ _____    ______ ____
ROOT
ATOM      1  C   LIG    1       22.464 -16.476   4.760  0.00  0.00    +0.229 C 
ENDROOT
BRANCH   1   2
ATOM      2  O   LIG    1       22.964 -17.380   3.754  0.00  0.00    -0.492 OA
BRANCH   2   6
ATOM      3  C   LIG    1       22.527 -21.572   6.400  0.00  0.00    +0.044 C 
ATOM      4  C   LIG    1       23.336 -20.657   5.529  0.00  0.00    -0.047 A 
ATOM      5  C   LIG    1       22.746 -19.505   4.978  0.00  0.00    +0.049 A 
ATOM      6  C   LIG    1       23.483 -18.585   4.211  0.00  0.00    +0.124 A 
ATOM      7  C   LIG    1       24.828 -18.902   3.916  0.00  0.00    -0.009 A 
ATOM      8  C   LIG    1       25.734 -18.031   3.090  0.00  0.00    +0.048 C 
ATOM      9  C   LIG    1       25.406 -20.071   4.458  0.00  0.00    +0.007 A 
ATOM     10  C   LIG    1       24.673 -20.936   5.262  0.00  0.00    +0.004 A 
ENDBRANCH   2   6
ENDBRANCH   1   2
BRANCH   1  11
ATOM     11  C   LIG    1       23.149 -15.086   4.767  0.00  0.00    +0.042 C 
BRANCH  11  12
ATOM     12  C   LIG    1       23.530 -14.490   3.389  0.00  0.00    +0.021 C 
BRANCH  12  13
ATOM     13  C   LIG    1       24.669 -13.406   3.400  0.00  0.00    +0.062 C 
ATOM     14  C   LIG    1       24.620 -12.551   4.681  0.00  0.00    +0.022 C 
ATOM     15  C   LIG    1       24.551 -12.474   2.180  0.00  0.00    +0.022 C 
BRANCH  13  16
ATOM     16  C   LIG    1       26.046 -14.094   3.290  0.00  0.00    +0.310 C 
ATOM     17  O   LIG    1       26.647 -14.642   4.188  0.00  0.00    -0.250 OA
BRANCH  16  18
ATOM     18  O   LIG    1       26.561 -14.111   2.037  0.00  0.00    -0.480 OA
ATOM     19  H   LIG    1       25.810 -13.891   1.448  0.00  0.00    +0.295 HD
ENDBRANCH  16  18
ENDBRANCH  13  16
ENDBRANCH  12  13
ENDBRANCH  11  12
ENDBRANCH   1  11
TORSDOF 7
ENDMDL
MODEL 9
REMARK VINA RESULT:      -5.0      1.759      3.084
REMARK  Name = *****
REMARK                            x       y       z     vdW  Elec       q    Type
REMARK                         _______ _______ _______ _____ _____    ______ ____
ROOT
ATOM      1  C   LIG    1       23.160 -16.137   4.541  0.00  0.00    +0.229 C 
ENDROOT
BRANCH   1   2
ATOM      2  O   LIG    1       23.483 -17.258   3.693  0.00  0.00    -0.492 OA
BRANCH   2   6
ATOM      3  C   LIG    1       25.511 -21.300   5.769  0.00  0.00    +0.044 C 
ATOM      4  C   LIG    1       24.311 -20.556   5.264  0.00  0.00    -0.047 A 
ATOM      5  C   LIG    1       24.444 -19.232   4.807  0.00  0.00    +0.049 A 
ATOM      6  C   LIG    1       23.361 -18.518   4.263  0.00  0.00    +0.124 A 
ATOM      7  C   LIG    1       22.090 -19.136   4.283  0.00  0.00    -0.009 A 
ATOM      8  C   LIG    1       20.836 -18.492   3.761  0.00  0.00    +0.048 C 
ATOM      9  C   LIG    1       21.962 -20.459   4.763  0.00  0.00    +0.007 A 
ATOM     10  C   LIG    1       23.060 -21.165   5.241  0.00  0.00    +0.004 A 
ENDBRANCH   2   6
ENDBRANCH   1   2
BRANCH   1  11
ATOM     11  C   LIG    1       23.607 -14.763   3.981  0.00  0.00    +0.042 C 
BRANCH  11  12
ATOM     12  C   LIG    1       24.885 -14.142   4.596  0.00  0.00    +0.021 C 
BRANCH  12  13
ATOM     13  C   LIG    1       26.174 -14.191   3.697  0.00  0.00    +0.062 C 
ATOM     14  C   LIG    1       25.945 -13.486   2.345  0.00  0.00    +0.022 C 
ATOM     15  C   LIG    1       26.602 -15.645   3.429  0.00  0.00    +0.022 C 
BRANCH  13  16
ATOM     16  C   LIG    1       27.351 -13.520   4.436  0.00  0.00    +0.310 C 
ATOM     17  O   LIG    1       28.414 -13.200   3.949  0.00  0.00    -0.250 OA
BRANCH  16  18
ATOM     18  O   LIG    1       27.100 -13.230   5.735  0.00  0.00    -0.480 OA
ATOM     19  H   LIG    1       27.181 -12.256   5.800  0.00  0.00    +0.295 HD
ENDBRANCH  16  18
ENDBRANCH  13  16
ENDBRANCH  12  13
ENDBRANCH  11  12
ENDBRANCH   1  11
TORSDOF 7
ENDMDL
