MODEL 1
REMARK VINA RESULT:      -3.7      0.000      0.000
REMARK  Name = *****
REMARK                            x       y       z     vdW  Elec       q    Type
REMARK                         _______ _______ _______ _____ _____    ______ ____
ROOT
ATOM      1  C   LIG    1       24.170 -14.341   4.070  0.00  0.00    +0.218 C 
ATOM      2  C   LIG    1       23.085 -15.344   4.472  0.00  0.00    +0.058 C 
ENDROOT
BRANCH   1   3
ATOM      3  O   LIG    1       23.557 -13.379   3.177  0.00  0.00    -0.456 OA
BRANCH   3   5
ATOM      4  C   LIG    1       24.271 -11.447   2.054  0.00  0.00    +0.136 C 
ATOM      5  C   LIG    1       23.822 -12.059   3.335  0.00  0.00    +0.304 C 
ATOM      6  O   LIG    1       23.711 -11.447   4.394  0.00  0.00    -0.251 OA
ENDBRANCH   3   5
ENDBRANCH   1   3
BRANCH   1   7
ATOM      7  C   LIG    1       25.473 -15.034   3.578  0.00  0.00    +0.177 C 
BRANCH   7   8
ATOM      8  N   LIG    1       26.804 -14.311   3.967  0.00  0.00    +0.239 N 
ATOM      9  C   LIG    1       27.871 -15.389   4.192  0.00  0.00    +0.192 C 
ATOM     10  C   LIG    1       26.638 -13.512   5.249  0.00  0.00    +0.192 C 
ATOM     11  C   LIG    1       27.330 -13.395   2.870  0.00  0.00    +0.192 C 
ENDBRANCH   7   8
ENDBRANCH   1   7
TORSDOF 4
ENDMDL
MODEL 2
REMARK VINA RESULT:      -3.5      6.283      7.911
REMARK  Name = *****
REMARK                            x       y       z     vdW  Elec       q    Type
REMARK                         _______ _______ _______ _____ _____    ______ ____
ROOT
ATOM      1  C   LIG    1       25.304 -19.758   4.513  0.00  0.00    +0.218 C 
ATOM      2  C   LIG    1       25.521 -18.690   3.437  0.00  0.00    +0.058 C 
ENDROOT
BRANCH   1   3
ATOM      3  O   LIG    1       26.575 -20.422   4.722  0.00  0.00    -0.456 OA
BRANCH   3   5
ATOM      4  C   LIG    1       26.833 -20.450   7.054  0.00  0.00    +0.136 C 
ATOM      5  C   LIG    1       27.379 -20.018   5.737  0.00  0.00    +0.304 C 
ATOM      6  O   LIG    1       28.417 -19.378   5.593  0.00  0.00    -0.251 OA
ENDBRANCH   3   5
ENDBRANCH   1   3
BRANCH   1   7
ATOM      7  C   LIG    1       24.072 -20.662   4.219  0.00  0.00    +0.177 C 
BRANCH   7   8
ATOM      8  N   LIG    1       22.851 -20.462   5.176  0.00  0.00    +0.239 N 
ATOM      9  C   LIG    1       22.331 -19.033   4.972  0.00  0.00    +0.192 C 
ATOM     10  C   LIG    1       23.262 -20.630   6.629  0.00  0.00    +0.192 C 
ATOM     11  C   LIG    1       21.691 -21.400   4.870  0.00  0.00    +0.192 C 
ENDBRANCH   7   8
ENDBRANCH   1   7
TORSDOF 4
ENDMDL
MODEL 3
REMARK VINA RESULT:      -3.4      6.265      7.884
REMARK  Name = *****
REMARK                            x       y       z     vdW  Elec       q    Type
REMARK                         _______ _______ _______ _____ _____    ______ ____
ROOT
ATOM      1  C   LIG    1       25.360 -19.725   4.524  0.00  0.00    +0.218 C 
ATOM      2  C   LIG    1       25.608 -18.675   3.438  0.00  0.00    +0.058 C 
ENDROOT
BRANCH   1   3
ATOM      3  O   LIG    1       26.611 -20.424   4.740  0.00  0.00    -0.456 OA
BRANCH   3   5
ATOM      4  C   LIG    1       26.950 -20.451   7.061  0.00  0.00    +0.136 C 
ATOM      5  C   LIG    1       27.445 -20.011   5.727  0.00  0.00    +0.304 C 
ATOM      6  O   LIG    1       28.469 -19.358   5.548  0.00  0.00    -0.251 OA
ENDBRANCH   3   5
ENDBRANCH   1   3
BRANCH   1   7
ATOM      7  C   LIG    1       24.102 -20.596   4.241  0.00  0.00    +0.177 C 
BRANCH   7   8
ATOM      8  N   LIG    1       22.896 -20.365   5.209  0.00  0.00    +0.239 N 
ATOM      9  C   LIG    1       21.829 -21.417   4.881  0.00  0.00    +0.192 C 
ATOM     10  C   LIG    1       22.295 -18.983   5.014  0.00  0.00    +0.192 C 
ATOM     11  C   LIG    1       23.261 -20.552   6.675  0.00  0.00    +0.192 C 
ENDBRANCH   7   8
ENDBRANCH   1   7
TORSDOF 4
ENDMDL
MODEL 4
REMARK VINA RESULT:      -3.0      2.567      4.562
REMARK  Name = *****
REMARK                            x       y       z     vdW  Elec       q    Type
REMARK                         _______ _______ _______ _____ _____    ______ ____
ROOT
ATOM      1  C   LIG    1       27.176 -14.382   4.270  0.00  0.00    +0.218 C 
ATOM      2  C   LIG    1       28.292 -13.567   3.609  0.00  0.00    +0.058 C 
ENDROOT
BRANCH   1   3
ATOM      3  O   LIG    1       26.793 -15.422   3.337  0.00  0.00    -0.456 OA
BRANCH   3   5
ATOM      4  C   LIG    1       25.828 -17.559   3.240  0.00  0.00    +0.136 C 
ATOM      5  C   LIG    1       26.981 -16.723   3.675  0.00  0.00    +0.304 C 
ATOM      6  O   LIG    1       27.969 -17.155   4.263  0.00  0.00    -0.251 OA
ENDBRANCH   3   5
ENDBRANCH   1   3
BRANCH   1   7
ATOM      7  C   LIG    1       26.038 -13.487   4.840  0.00  0.00    +0.177 C 
BRANCH   7   8
ATOM      8  N   LIG    1       24.779 -13.340   3.924  0.00  0.00    +0.239 N 
ATOM      9  C   LIG    1       24.010 -12.096   4.386  0.00  0.00    +0.192 C 
ATOM     10  C   LIG    1       23.869 -14.550   4.048  0.00  0.00    +0.192 C 
ATOM     11  C   LIG    1       25.127 -13.122   2.458  0.00  0.00    +0.192 C 
ENDBRANCH   7   8
ENDBRANCH   1   7
TORSDOF 4
ENDMDL
MODEL 5
REMARK VINA RESULT:      -2.7      6.296      8.033
REMARK  Name = *****
REMARK                            x       y       z     vdW  Elec       q    Type
REMARK                         _______ _______ _______ _____ _____    ______ ____
ROOT
ATOM      1  C   LIG    1       26.262 -20.747   5.803  0.00  0.00    +0.218 C 
ATOM      2  C   LIG    1       26.817 -21.420   7.062  0.00  0.00    +0.058 C 
ENDROOT
BRANCH   1   3
ATOM      3  O   LIG    1       27.211 -19.725   5.409  0.00  0.00    -0.456 OA
BRANCH   3   5
ATOM      4  C   LIG    1       29.196 -18.508   5.699  0.00  0.00    +0.136 C 
ATOM      5  C   LIG    1       28.501 -19.820   5.818  0.00  0.00    +0.304 C 
ATOM      6  O   LIG    1       29.029 -20.850   6.228  0.00  0.00    -0.251 OA
ENDBRANCH   3   5
ENDBRANCH   1   3
BRANCH   1   7
ATOM      7  C   LIG    1       24.777 -20.311   5.962  0.00  0.00    +0.177 C 
BRANCH   7   8
ATOM      8  N   LIG    1       23.932 -20.322   4.646  0.00  0.00    +0.239 N 
ATOM      9  C   LIG    1       22.451 -20.315   5.045  0.00  0.00    +0.192 C 
ATOM     10  C   LIG    1       24.212 -21.571   3.827  0.00  0.00    +0.192 C 
ATOM     11  C   LIG    1       24.159 -19.091   3.778  0.00  0.00    +0.192 C 
ENDBRANCH   7   8
ENDBRANCH   1   7
TORSDOF 4
ENDMDL
MODEL 6
REMARK VINA RESULT:      -2.6      1.473      3.113
REMARK  Name = *****
REMARK                            x       y       z     vdW  Elec       q    Type
REMARK                         _______ _______ _______ _____ _____    ______ ____
ROOT
ATOM      1  C   LIG    1       24.598 -13.327   4.184  0.00  0.00    +0.218 C 
ATOM      2  C   LIG    1       24.018 -11.910   4.160  0.00  0.00    +0.058 C 
ENDROOT
BRANCH   1   3
ATOM      3  O   LIG    1       23.602 -14.189   4.786  0.00  0.00    -0.456 OA
BRANCH   3   5
ATOM      4  C   LIG    1       22.269 -16.117   4.895  0.00  0.00    +0.136 C 
ATOM      5  C   LIG    1       23.527 -15.489   4.405  0.00  0.00    +0.304 C 
ATOM      6  O   LIG    1       24.382 -16.073   3.745  0.00  0.00    -0.251 OA
ENDBRANCH   3   5
ENDBRANCH   1   3
BRANCH   1   7
ATOM      7  C   LIG    1       26.034 -13.376   4.782  0.00  0.00    +0.177 C 
BRANCH   7   8
ATOM      8  N   LIG    1       27.151 -13.866   3.804  0.00  0.00    +0.239 N 
ATOM      9  C   LIG    1       26.602 -13.749   2.376  0.00  0.00    +0.192 C 
ATOM     10  C   LIG    1       27.514 -15.317   4.070  0.00  0.00    +0.192 C 
ATOM     11  C   LIG    1       28.412 -13.014   3.861  0.00  0.00    +0.192 C 
ENDBRANCH   7   8
ENDBRANCH   1   7
TORSDOF 4
ENDMDL
MODEL 7
REMARK VINA RESULT:      -2.6      3.082      4.874
REMARK  Name = *****
REMARK                            x       y       z     vdW  Elec       q    Type
REMARK                         _______ _______ _______ _____ _____    ______ ____
ROOT
ATOM      1  C   LIG    1       26.296 -16.495   3.650  0.00  0.00    +0.218 C 
ATOM      2  C   LIG    1       27.727 -16.792   4.110  0.00  0.00    +0.058 C 
ENDROOT
BRANCH   1   3
ATOM      3  O   LIG    1       25.821 -17.667   2.943  0.00  0.00    -0.456 OA
BRANCH   3   5
ATOM      4  C   LIG    1       23.767 -18.527   3.686  0.00  0.00    +0.136 C 
ATOM      5  C   LIG    1       25.248 -18.680   3.642  0.00  0.00    +0.304 C 
ATOM      6  O   LIG    1       25.867 -19.600   4.170  0.00  0.00    -0.251 OA
ENDBRANCH   3   5
ENDBRANCH   1   3
BRANCH   1   7
ATOM      7  C   LIG    1       26.174 -15.128   2.917  0.00  0.00    +0.177 C 
BRANCH   7   8
ATOM      8  N   LIG    1       25.324 -14.045   3.658  0.00  0.00    +0.239 N 
ATOM      9  C   LIG    1       25.057 -12.905   2.667  0.00  0.00    +0.192 C 
ATOM     10  C   LIG    1       26.075 -13.485   4.855  0.00  0.00    +0.192 C 
ATOM     11  C   LIG    1       23.965 -14.558   4.114  0.00  0.00    +0.192 C 
ENDBRANCH   7   8
ENDBRANCH   1   7
TORSDOF 4
ENDMDL
MODEL 8
REMARK VINA RESULT:      -2.6      1.259      2.732
REMARK  Name = *****
REMARK                            x       y       z     vdW  Elec       q    Type
REMARK                         _______ _______ _______ _____ _____    ______ ____
ROOT
ATOM      1  C   LIG    1       25.544 -13.474   2.410  0.00  0.00    +0.218 C 
ATOM      2  C   LIG    1       24.461 -12.565   1.822  0.00  0.00    +0.058 C 
ENDROOT
BRANCH   1   3
ATOM      3  O   LIG    1       24.875 -14.462   3.233  0.00  0.00    -0.456 OA
BRANCH   3   5
ATOM      4  C   LIG    1       23.109 -15.191   4.594  0.00  0.00    +0.136 C 
ATOM      5  C   LIG    1       23.970 -14.057   4.159  0.00  0.00    +0.304 C 
ATOM      6  O   LIG    1       23.871 -12.908   4.581  0.00  0.00    -0.251 OA
ENDBRANCH   3   5
ENDBRANCH   1   3
BRANCH   1   7
ATOM      7  C   LIG    1       26.706 -12.675   3.067  0.00  0.00    +0.177 C 
BRANCH   7   8
ATOM      8  N   LIG    1       27.609 -13.490   4.049  0.00  0.00    +0.239 N 
ATOM      9  C   LIG    1       29.042 -12.961   3.911  0.00  0.00    +0.192 C 
ATOM     10  C   LIG    1       27.600 -14.969   3.700  0.00  0.00    +0.192 C 
ATOM     11  C   LIG    1       27.215 -13.317   5.510  0.00  0.00    +0.192 C 
ENDBRANCH   7   8
ENDBRANCH   1   7
TORSDOF 4
ENDMDL
MODEL 9
REMARK VINA RESULT:      -2.5      2.880      4.698
REMARK  Name = *****
REMARK                            x       y       z     vdW  Elec       q    Type
REMARK                         _______ _______ _______ _____ _____    ______ ____
ROOT
ATOM      1  C   LIG    1       26.337 -16.459   3.664  0.00  0.00    +0.218 C 
ATOM      2  C   LIG    1       27.753 -16.788   4.143  0.00  0.00    +0.058 C 
ENDROOT
BRANCH   1   3
ATOM      3  O   LIG    1       25.844 -17.620   2.951  0.00  0.00    -0.456 OA
BRANCH   3   5
ATOM      4  C   LIG    1       25.539 -19.719   3.953  0.00  0.00    +0.136 C 
ATOM      5  C   LIG    1       24.926 -18.426   3.542  0.00  0.00    +0.304 C 
ATOM      6  O   LIG    1       23.747 -18.131   3.713  0.00  0.00    -0.251 OA
ENDBRANCH   3   5
ENDBRANCH   1   3
BRANCH   1   7
ATOM      7  C   LIG    1       26.255 -15.089   2.930  0.00  0.00    +0.177 C 
BRANCH   7   8
ATOM      8  N   LIG    1       25.344 -14.017   3.612  0.00  0.00    +0.239 N 
ATOM      9  C   LIG    1       26.108 -13.457   4.818  0.00  0.00    +0.192 C 
ATOM     10  C   LIG    1       24.045 -14.635   4.101  0.00  0.00    +0.192 C 
ATOM     11  C   LIG    1       25.028 -12.836   2.705  0.00  0.00    +0.192 C 
ENDBRANCH   7   8
ENDBRANCH   1   7
TORSDOF 4
ENDMDL
