MODEL 1
REMARK VINA RESULT:       4.7      0.000      0.000
REMARK  Name = *****
REMARK                            x       y       z     vdW  Elec       q    Type
REMARK                         _______ _______ _______ _____ _____    ______ ____
ROOT
ATOM      1  N   LIG    1       27.346 -18.993   4.842  0.00  0.00    +0.251 N 
ATOM      2  C   LIG    1       28.618 -19.817   4.450  0.00  0.00    +0.162 C 
ATOM      3  C   LIG    1       29.380 -20.394   5.652  0.00  0.00    +0.210 C 
ATOM      4  O   LIG    1       28.514 -21.153   6.494  0.00  0.00    -0.369 OA
ATOM      5  C   LIG    1       27.508 -20.317   7.061  0.00  0.00    +0.210 C 
ATOM      6  C   LIG    1       26.601 -19.731   5.977  0.00  0.00    +0.162 C 
ENDROOT
BRANCH   1   7
ATOM      7  C   LIG    1       26.385 -18.864   3.605  0.00  0.00    +0.171 C 
BRANCH   7  11
ATOM      8  C   LIG    1       22.151 -18.215   4.122  0.00  0.00    +0.163 A 
ATOM      9  C   LIG    1       23.047 -17.132   4.036  0.00  0.00    +0.162 A 
ATOM     10  C   LIG    1       24.404 -17.406   3.888  0.00  0.00    +0.059 A 
ATOM     11  C   LIG    1       24.917 -18.698   3.853  0.00  0.00    +0.015 A 
ATOM     12  C   LIG    1       24.030 -19.759   4.080  0.00  0.00    +0.030 A 
ATOM     13 BR   LIG    1       24.604 -21.570   4.280  0.00  0.00    -0.050 Br
ATOM     14  C   LIG    1       22.665 -19.514   4.183  0.00  0.00    +0.065 A 
BRANCH   8  16
ATOM     15  C   LIG    1       20.024 -18.482   3.098  0.00  0.00    +0.277 C 
ATOM     16  O   LIG    1       20.802 -18.147   4.244  0.00  0.00    -0.491 OA
ENDBRANCH   8  16
BRANCH   9  17
ATOM     17  O   LIG    1       22.594 -15.849   4.039  0.00  0.00    -0.491 OA
ATOM     18  C   LIG    1       22.263 -15.278   5.311  0.00  0.00    +0.277 C 
ENDBRANCH   9  17
ENDBRANCH   7  11
ENDBRANCH   1   7
BRANCH   1  19
ATOM     19  C   LIG    1       27.770 -17.535   5.233  0.00  0.00    +0.162 C 
BRANCH  19  20
ATOM     20  C   LIG    1       27.854 -16.528   4.056  0.00  0.00    +0.210 C 
BRANCH  20  21
ATOM     21  O   LIG    1       27.948 -15.174   4.512  0.00  0.00    -0.374 OA
BRANCH  21  22
ATOM     22  C   LIG    1       28.465 -14.312   3.495  0.00  0.00    +0.160 C 
BRANCH  22  23
ATOM     23  C   LIG    1       27.946 -12.881   3.670  0.00  0.00    +0.032 C 
BRANCH  23  24
ATOM     24  C   LIG    1       26.754 -12.619   2.731  0.00  0.00    -0.005 C 
ATOM     25  C   LIG    1       25.669 -11.760   3.405  0.00  0.00    -0.002 C 
ATOM     26  C   LIG    1       24.509 -12.475   4.223  0.00  0.00    -0.029 C 
ATOM     27  C   LIG    1       23.954 -12.809   2.777  0.00  0.00    -0.005 C 
ATOM     28  C   LIG    1       24.632 -13.941   1.997  0.00  0.00    +0.004 C 
ATOM     29  C   LIG    1       23.653 -11.493   5.051  0.00  0.00    +0.011 C 
ATOM     30  C   LIG    1       24.835 -13.662   5.128  0.00  0.00    +0.011 C 
ATOM     31  C   LIG    1       24.575 -11.460   2.327  0.00  0.00    +0.008 C 
ATOM     32  C   LIG    1       26.154 -13.936   2.188  0.00  0.00    +0.004 C 
ENDBRANCH  23  24
ENDBRANCH  22  23
ENDBRANCH  21  22
ENDBRANCH  20  21
ENDBRANCH  19  20
ENDBRANCH   1  19
TORSDOF 10
ENDMDL
MODEL 2
REMARK VINA RESULT:       6.3      1.654      5.421
REMARK  Name = *****
REMARK                            x       y       z     vdW  Elec       q    Type
REMARK                         _______ _______ _______ _____ _____    ______ ____
ROOT
ATOM      1  N   LIG    1       23.342 -18.141   3.517  0.00  0.00    +0.251 N 
ATOM      2  C   LIG    1       22.946 -18.754   4.901  0.00  0.00    +0.162 C 
ATOM      3  C   LIG    1       21.451 -18.630   5.232  0.00  0.00    +0.210 C 
ATOM      4  O   LIG    1       20.647 -19.164   4.183  0.00  0.00    -0.369 OA
ATOM      5  C   LIG    1       20.823 -18.413   2.984  0.00  0.00    +0.210 C 
ATOM      6  C   LIG    1       22.263 -18.515   2.476  0.00  0.00    +0.162 C 
ENDROOT
BRANCH   1   7
ATOM      7  C   LIG    1       24.724 -18.724   3.045  0.00  0.00    +0.171 C 
BRANCH   7  11
ATOM      8  C   LIG    1       27.287 -20.449   6.056  0.00  0.00    +0.163 A 
ATOM      9  C   LIG    1       27.714 -19.357   5.278  0.00  0.00    +0.162 A 
ATOM     10  C   LIG    1       26.849 -18.855   4.309  0.00  0.00    +0.059 A 
ATOM     11  C   LIG    1       25.596 -19.404   4.054  0.00  0.00    +0.015 A 
ATOM     12  C   LIG    1       25.245 -20.575   4.739  0.00  0.00    +0.030 A 
ATOM     13 BR   LIG    1       23.663 -21.572   4.351  0.00  0.00    -0.050 Br
ATOM     14  C   LIG    1       26.071 -21.066   5.745  0.00  0.00    +0.065 A 
BRANCH   8  16
ATOM     15  C   LIG    1       29.289 -21.517   6.759  0.00  0.00    +0.277 C 
ATOM     16  O   LIG    1       27.975 -21.055   7.056  0.00  0.00    -0.491 OA
ENDBRANCH   8  16
BRANCH   9  17
ATOM     17  O   LIG    1       28.919 -18.767   5.504  0.00  0.00    -0.491 OA
ATOM     18  C   LIG    1       29.392 -18.750   6.857  0.00  0.00    +0.277 C 
ENDBRANCH   9  17
ENDBRANCH   7  11
ENDBRANCH   1   7
BRANCH   1  19
ATOM     19  C   LIG    1       23.537 -16.593   3.669  0.00  0.00    +0.162 C 
BRANCH  19  20
ATOM     20  C   LIG    1       22.577 -15.895   4.667  0.00  0.00    +0.210 C 
BRANCH  20  21
ATOM     21  O   LIG    1       22.647 -14.468   4.573  0.00  0.00    -0.374 OA
BRANCH  21  22
ATOM     22  C   LIG    1       23.449 -14.053   3.464  0.00  0.00    +0.160 C 
BRANCH  22  23
ATOM     23  C   LIG    1       24.620 -13.181   3.927  0.00  0.00    +0.032 C 
BRANCH  23  24
ATOM     24  C   LIG    1       25.655 -14.026   4.693  0.00  0.00    -0.005 C 
ATOM     25  C   LIG    1       26.860 -13.185   5.150  0.00  0.00    -0.002 C 
ATOM     26  C   LIG    1       28.113 -13.035   4.183  0.00  0.00    -0.029 C 
ATOM     27  C   LIG    1       28.419 -14.515   4.660  0.00  0.00    -0.005 C 
ATOM     28  C   LIG    1       27.588 -15.647   4.045  0.00  0.00    +0.004 C 
ATOM     29  C   LIG    1       29.122 -11.966   4.655  0.00  0.00    +0.011 C 
ATOM     30  C   LIG    1       27.899 -12.823   2.686  0.00  0.00    +0.011 C 
ATOM     31  C   LIG    1       27.776 -14.113   6.014  0.00  0.00    +0.008 C 
ATOM     32  C   LIG    1       26.118 -15.249   3.869  0.00  0.00    +0.004 C 
ENDBRANCH  23  24
ENDBRANCH  22  23
ENDBRANCH  21  22
ENDBRANCH  20  21
ENDBRANCH  19  20
ENDBRANCH   1  19
TORSDOF 10
ENDMDL
