MODEL 1
REMARK VINA RESULT:      -8.5      0.000      0.000
REMARK  Name = *****
REMARK                            x       y       z     vdW  Elec       q    Type
REMARK                         _______ _______ _______ _____ _____    ______ ____
ROOT
ATOM      1  C   LIG    1       23.842 -22.795   6.829  0.00  0.00    +0.090 A 
ATOM      2  C   LIG    1       25.174 -22.779   7.279  0.00  0.00    +0.157 A 
ATOM      3  C   LIG    1       25.951 -23.936   7.150  0.00  0.00    +0.132 A 
ATOM      4  C   LIG    1       25.372 -25.115   6.662  0.00  0.00    +0.277 A 
ATOM      5  C   LIG    1       24.033 -25.143   6.259  0.00  0.00    +0.086 A 
ATOM      6  C   LIG    1       23.271 -23.976   6.341  0.00  0.00    +0.035 A 
ENDROOT
BRANCH   4   7
ATOM      7  N   LIG    1       26.189 -26.332   6.572  0.00  0.00    +0.080 N 
ATOM      8  O   LIG    1       26.995 -26.417   5.636  0.00  0.00    -0.576 OA
ATOM      9  O   LIG    1       26.021 -27.201   7.439  0.00  0.00    +0.041 OA
ENDBRANCH   4   7
BRANCH   1  10
ATOM     10  N   LIG    1       23.017 -21.627   6.928  0.00  0.00    -0.217 N 
ATOM     11  H   LIG    1       22.142 -21.797   7.437  0.00  0.00    +0.173 HD
BRANCH  10  13
ATOM     12  C   LIG    1       24.042 -21.231   4.470  0.00  0.00    +0.218 C 
ATOM     13  S   LIG    1       22.611 -20.870   5.465  0.00  0.00    +0.040 S 
ATOM     14  O   LIG    1       21.467 -21.538   4.877  0.00  0.00    -0.155 OA
ATOM     15  O   LIG    1       22.601 -19.454   5.740  0.00  0.00    -0.155 OA
ENDBRANCH  10  13
ENDBRANCH   1  10
BRANCH   2  16
ATOM     16  O   LIG    1       25.666 -21.581   7.764  0.00  0.00    -0.454 OA
BRANCH  16  17
ATOM     17  C   LIG    1       26.861 -21.087   7.282  0.00  0.00    +0.129 A 
ATOM     18  C   LIG    1       26.972 -20.327   6.112  0.00  0.00    +0.046 A 
ATOM     19  C   LIG    1       28.210 -19.815   5.724  0.00  0.00    +0.004 A 
ATOM     20  C   LIG    1       29.354 -20.122   6.458  0.00  0.00    +0.000 A 
ATOM     21  C   LIG    1       29.260 -20.942   7.581  0.00  0.00    +0.004 A 
ATOM     22  C   LIG    1       28.014 -21.421   7.997  0.00  0.00    +0.046 A 
ENDBRANCH  16  17
ENDBRANCH   2  16
TORSDOF 5
ENDMDL
MODEL 2
REMARK VINA RESULT:      -8.5      0.070      1.055
REMARK  Name = *****
REMARK                            x       y       z     vdW  Elec       q    Type
REMARK                         _______ _______ _______ _____ _____    ______ ____
ROOT
ATOM      1  C   LIG    1       23.816 -22.813   6.820  0.00  0.00    +0.090 A 
ATOM      2  C   LIG    1       25.149 -22.783   7.264  0.00  0.00    +0.157 A 
ATOM      3  C   LIG    1       25.938 -23.932   7.133  0.00  0.00    +0.132 A 
ATOM      4  C   LIG    1       25.369 -25.117   6.649  0.00  0.00    +0.277 A 
ATOM      5  C   LIG    1       24.029 -25.159   6.251  0.00  0.00    +0.086 A 
ATOM      6  C   LIG    1       23.255 -24.001   6.335  0.00  0.00    +0.035 A 
ENDROOT
BRANCH   4   7
ATOM      7  N   LIG    1       26.198 -26.326   6.556  0.00  0.00    +0.080 N 
ATOM      8  O   LIG    1       26.899 -26.468   5.546  0.00  0.00    -0.576 OA
ATOM      9  O   LIG    1       26.145 -27.131   7.496  0.00  0.00    +0.041 OA
ENDBRANCH   4   7
BRANCH   1  10
ATOM     10  N   LIG    1       22.979 -21.654   6.921  0.00  0.00    -0.217 N 
ATOM     11  H   LIG    1       22.088 -21.843   7.393  0.00  0.00    +0.173 HD
BRANCH  10  13
ATOM     12  C   LIG    1       24.056 -21.245   4.487  0.00  0.00    +0.218 C 
ATOM     13  S   LIG    1       22.619 -20.859   5.466  0.00  0.00    +0.040 S 
ATOM     14  O   LIG    1       21.466 -21.481   4.848  0.00  0.00    -0.155 OA
ATOM     15  O   LIG    1       22.648 -19.448   5.766  0.00  0.00    -0.155 OA
ENDBRANCH  10  13
ENDBRANCH   1  10
BRANCH   2  16
ATOM     16  O   LIG    1       25.632 -21.579   7.746  0.00  0.00    -0.454 OA
BRANCH  16  17
ATOM     17  C   LIG    1       26.873 -21.131   7.346  0.00  0.00    +0.129 A 
ATOM     18  C   LIG    1       28.059 -21.411   8.033  0.00  0.00    +0.046 A 
ATOM     19  C   LIG    1       29.283 -20.968   7.529  0.00  0.00    +0.004 A 
ATOM     20  C   LIG    1       29.321 -20.179   6.380  0.00  0.00    +0.000 A 
ATOM     21  C   LIG    1       28.134 -19.834   5.735  0.00  0.00    +0.004 A 
ATOM     22  C   LIG    1       26.911 -20.312   6.214  0.00  0.00    +0.046 A 
ENDBRANCH  16  17
ENDBRANCH   2  16
TORSDOF 5
ENDMDL
MODEL 3
REMARK VINA RESULT:      -8.2      2.238      4.935
REMARK  Name = *****
REMARK                            x       y       z     vdW  Elec       q    Type
REMARK                         _______ _______ _______ _____ _____    ______ ____
ROOT
ATOM      1  C   LIG    1       25.471 -21.249   5.787  0.00  0.00    +0.090 A 
ATOM      2  C   LIG    1       25.750 -22.057   6.904  0.00  0.00    +0.157 A 
ATOM      3  C   LIG    1       26.878 -21.776   7.684  0.00  0.00    +0.132 A 
ATOM      4  C   LIG    1       27.759 -20.759   7.296  0.00  0.00    +0.277 A 
ATOM      5  C   LIG    1       27.506 -19.986   6.158  0.00  0.00    +0.086 A 
ATOM      6  C   LIG    1       26.356 -20.233   5.407  0.00  0.00    +0.035 A 
ENDROOT
BRANCH   4   7
ATOM      7  N   LIG    1       28.960 -20.504   8.101  0.00  0.00    +0.080 N 
ATOM      8  O   LIG    1       29.647 -21.478   8.437  0.00  0.00    -0.576 OA
ATOM      9  O   LIG    1       29.214 -19.328   8.397  0.00  0.00    +0.041 OA
ENDBRANCH   4   7
BRANCH   1  10
ATOM     10  N   LIG    1       24.318 -21.492   4.971  0.00  0.00    -0.217 N 
ATOM     11  H   LIG    1       24.499 -21.354   3.971  0.00  0.00    +0.173 HD
BRANCH  10  13
ATOM     12  C   LIG    1       23.097 -19.191   4.291  0.00  0.00    +0.218 C 
ATOM     13  S   LIG    1       22.925 -20.605   5.359  0.00  0.00    +0.040 S 
ATOM     14  O   LIG    1       21.750 -21.347   4.947  0.00  0.00    -0.155 OA
ATOM     15  O   LIG    1       23.100 -20.163   6.720  0.00  0.00    -0.155 OA
ENDBRANCH  10  13
ENDBRANCH   1  10
BRANCH   2  16
ATOM     16  O   LIG    1       24.840 -23.052   7.211  0.00  0.00    -0.454 OA
BRANCH  16  17
ATOM     17  C   LIG    1       25.017 -24.321   6.700  0.00  0.00    +0.129 A 
ATOM     18  C   LIG    1       26.262 -24.954   6.606  0.00  0.00    +0.046 A 
ATOM     19  C   LIG    1       26.348 -26.264   6.131  0.00  0.00    +0.004 A 
ATOM     20  C   LIG    1       25.205 -26.918   5.676  0.00  0.00    +0.000 A 
ATOM     21  C   LIG    1       23.975 -26.264   5.696  0.00  0.00    +0.004 A 
ATOM     22  C   LIG    1       23.879 -24.968   6.212  0.00  0.00    +0.046 A 
ENDBRANCH  16  17
ENDBRANCH   2  16
TORSDOF 5
ENDMDL
MODEL 4
REMARK VINA RESULT:      -8.0      2.838      5.464
REMARK  Name = *****
REMARK                            x       y       z     vdW  Elec       q    Type
REMARK                         _______ _______ _______ _____ _____    ______ ____
ROOT
ATOM      1  C   LIG    1       25.810 -22.533   6.876  0.00  0.00    +0.090 A 
ATOM      2  C   LIG    1       25.960 -21.475   5.963  0.00  0.00    +0.157 A 
ATOM      3  C   LIG    1       26.966 -20.526   6.178  0.00  0.00    +0.132 A 
ATOM      4  C   LIG    1       27.748 -20.588   7.339  0.00  0.00    +0.277 A 
ATOM      5  C   LIG    1       27.567 -21.615   8.271  0.00  0.00    +0.086 A 
ATOM      6  C   LIG    1       26.597 -22.590   8.033  0.00  0.00    +0.035 A 
ENDROOT
BRANCH   4   7
ATOM      7  N   LIG    1       28.771 -19.561   7.571  0.00  0.00    +0.080 N 
ATOM      8  O   LIG    1       29.063 -19.293   8.744  0.00  0.00    -0.576 OA
ATOM      9  O   LIG    1       29.280 -19.022   6.578  0.00  0.00    +0.041 OA
ENDBRANCH   4   7
BRANCH   1  10
ATOM     10  N   LIG    1       24.804 -23.534   6.685  0.00  0.00    -0.217 N 
ATOM     11  H   LIG    1       24.439 -23.910   7.567  0.00  0.00    +0.173 HD
BRANCH  10  13
ATOM     12  C   LIG    1       24.114 -26.109   6.303  0.00  0.00    +0.218 C 
ATOM     13  S   LIG    1       25.237 -24.858   5.716  0.00  0.00    +0.040 S 
ATOM     14  O   LIG    1       24.916 -24.571   4.333  0.00  0.00    -0.155 OA
ATOM     15  O   LIG    1       26.571 -25.228   6.121  0.00  0.00    -0.155 OA
ENDBRANCH  10  13
ENDBRANCH   1  10
BRANCH   2  16
ATOM     16  O   LIG    1       25.137 -21.474   4.851  0.00  0.00    -0.454 OA
BRANCH  16  17
ATOM     17  C   LIG    1       24.255 -20.433   4.654  0.00  0.00    +0.129 A 
ATOM     18  C   LIG    1       24.444 -19.422   3.705  0.00  0.00    +0.046 A 
ATOM     19  C   LIG    1       23.473 -18.435   3.528  0.00  0.00    +0.004 A 
ATOM     20  C   LIG    1       22.348 -18.408   4.350  0.00  0.00    +0.000 A 
ATOM     21  C   LIG    1       22.192 -19.368   5.348  0.00  0.00    +0.004 A 
ATOM     22  C   LIG    1       23.142 -20.383   5.498  0.00  0.00    +0.046 A 
ENDBRANCH  16  17
ENDBRANCH   2  16
TORSDOF 5
ENDMDL
MODEL 5
REMARK VINA RESULT:      -7.9      2.846      5.451
REMARK  Name = *****
REMARK                            x       y       z     vdW  Elec       q    Type
REMARK                         _______ _______ _______ _____ _____    ______ ____
ROOT
ATOM      1  C   LIG    1       25.487 -22.364   6.971  0.00  0.00    +0.090 A 
ATOM      2  C   LIG    1       25.795 -21.408   5.987  0.00  0.00    +0.157 A 
ATOM      3  C   LIG    1       26.897 -20.566   6.176  0.00  0.00    +0.132 A 
ATOM      4  C   LIG    1       27.621 -20.622   7.374  0.00  0.00    +0.277 A 
ATOM      5  C   LIG    1       27.285 -21.542   8.373  0.00  0.00    +0.086 A 
ATOM      6  C   LIG    1       26.216 -22.416   8.165  0.00  0.00    +0.035 A 
ENDROOT
BRANCH   4   7
ATOM      7  N   LIG    1       28.748 -19.703   7.576  0.00  0.00    +0.080 N 
ATOM      8  O   LIG    1       29.062 -19.422   8.741  0.00  0.00    -0.576 OA
ATOM      9  O   LIG    1       29.318 -19.263   6.568  0.00  0.00    +0.041 OA
ENDBRANCH   4   7
BRANCH   1  10
ATOM     10  N   LIG    1       24.378 -23.256   6.809  0.00  0.00    -0.217 N 
ATOM     11  H   LIG    1       23.774 -23.299   7.637  0.00  0.00    +0.173 HD
BRANCH  10  13
ATOM     12  C   LIG    1       25.002 -24.698   4.622  0.00  0.00    +0.218 C 
ATOM     13  S   LIG    1       24.756 -24.853   6.379  0.00  0.00    +0.040 S 
ATOM     14  O   LIG    1       26.017 -25.231   6.984  0.00  0.00    -0.155 OA
ATOM     15  O   LIG    1       23.553 -25.619   6.597  0.00  0.00    -0.155 OA
ENDBRANCH  10  13
ENDBRANCH   1  10
BRANCH   2  16
ATOM     16  O   LIG    1       25.022 -21.404   4.840  0.00  0.00    -0.454 OA
BRANCH  16  17
ATOM     17  C   LIG    1       24.097 -20.400   4.643  0.00  0.00    +0.129 A 
ATOM     18  C   LIG    1       22.810 -20.410   5.192  0.00  0.00    +0.046 A 
ATOM     19  C   LIG    1       21.954 -19.326   4.993  0.00  0.00    +0.004 A 
ATOM     20  C   LIG    1       22.349 -18.264   4.182  0.00  0.00    +0.000 A 
ATOM     21  C   LIG    1       23.601 -18.285   3.570  0.00  0.00    +0.004 A 
ATOM     22  C   LIG    1       24.477 -19.350   3.803  0.00  0.00    +0.046 A 
ENDBRANCH  16  17
ENDBRANCH   2  16
TORSDOF 5
ENDMDL
MODEL 6
REMARK VINA RESULT:      -7.8      2.635      5.397
REMARK  Name = *****
REMARK                            x       y       z     vdW  Elec       q    Type
REMARK                         _______ _______ _______ _____ _____    ______ ____
ROOT
ATOM      1  C   LIG    1       25.206 -23.610   5.954  0.00  0.00    +0.090 A 
ATOM      2  C   LIG    1       25.029 -22.246   5.660  0.00  0.00    +0.157 A 
ATOM      3  C   LIG    1       25.546 -21.287   6.539  0.00  0.00    +0.132 A 
ATOM      4  C   LIG    1       26.150 -21.691   7.737  0.00  0.00    +0.277 A 
ATOM      5  C   LIG    1       26.284 -23.048   8.051  0.00  0.00    +0.086 A 
ATOM      6  C   LIG    1       25.812 -24.006   7.152  0.00  0.00    +0.035 A 
ENDROOT
BRANCH   4   7
ATOM      7  N   LIG    1       26.650 -20.672   8.668  0.00  0.00    +0.080 N 
ATOM      8  O   LIG    1       27.767 -20.186   8.445  0.00  0.00    -0.576 OA
ATOM      9  O   LIG    1       25.924 -20.361   9.623  0.00  0.00    +0.041 OA
ENDBRANCH   4   7
BRANCH   1  10
ATOM     10  N   LIG    1       24.706 -24.624   5.074  0.00  0.00    -0.217 N 
ATOM     11  H   LIG    1       23.704 -24.806   5.199  0.00  0.00    +0.173 HD
BRANCH  10  13
ATOM     12  C   LIG    1       24.359 -27.094   6.089  0.00  0.00    +0.218 C 
ATOM     13  S   LIG    1       25.500 -26.122   5.127  0.00  0.00    +0.040 S 
ATOM     14  O   LIG    1       25.564 -26.683   3.793  0.00  0.00    -0.155 OA
ATOM     15  O   LIG    1       26.689 -25.915   5.919  0.00  0.00    -0.155 OA
ENDBRANCH  10  13
ENDBRANCH   1  10
BRANCH   2  16
ATOM     16  O   LIG    1       24.407 -21.929   4.467  0.00  0.00    -0.454 OA
BRANCH  16  17
ATOM     17  C   LIG    1       23.741 -20.727   4.341  0.00  0.00    +0.129 A 
ATOM     18  C   LIG    1       22.431 -20.515   4.785  0.00  0.00    +0.046 A 
ATOM     19  C   LIG    1       21.850 -19.251   4.674  0.00  0.00    +0.004 A 
ATOM     20  C   LIG    1       22.543 -18.216   4.050  0.00  0.00    +0.000 A 
ATOM     21  C   LIG    1       23.819 -18.443   3.538  0.00  0.00    +0.004 A 
ATOM     22  C   LIG    1       24.421 -19.697   3.687  0.00  0.00    +0.046 A 
ENDBRANCH  16  17
ENDBRANCH   2  16
TORSDOF 5
ENDMDL
MODEL 7
REMARK VINA RESULT:      -7.7      2.441      5.887
REMARK  Name = *****
REMARK                            x       y       z     vdW  Elec       q    Type
REMARK                         _______ _______ _______ _____ _____    ______ ____
ROOT
ATOM      1  C   LIG    1       26.040 -21.383   6.111  0.00  0.00    +0.090 A 
ATOM      2  C   LIG    1       24.907 -22.115   6.508  0.00  0.00    +0.157 A 
ATOM      3  C   LIG    1       23.648 -21.736   6.029  0.00  0.00    +0.132 A 
ATOM      4  C   LIG    1       23.519 -20.586   5.239  0.00  0.00    +0.277 A 
ATOM      5  C   LIG    1       24.641 -19.830   4.883  0.00  0.00    +0.086 A 
ATOM      6  C   LIG    1       25.903 -20.236   5.320  0.00  0.00    +0.035 A 
ENDROOT
BRANCH   4   7
ATOM      7  N   LIG    1       22.186 -20.177   4.779  0.00  0.00    +0.080 N 
ATOM      8  O   LIG    1       21.319 -21.054   4.671  0.00  0.00    -0.576 OA
ATOM      9  O   LIG    1       22.009 -18.977   4.526  0.00  0.00    +0.041 OA
ENDBRANCH   4   7
BRANCH   1  10
ATOM     10  N   LIG    1       27.349 -21.747   6.565  0.00  0.00    -0.217 N 
ATOM     11  H   LIG    1       27.411 -22.726   6.865  0.00  0.00    +0.173 HD
BRANCH  10  13
ATOM     12  C   LIG    1       28.888 -19.560   6.883  0.00  0.00    +0.218 C 
ATOM     13  S   LIG    1       28.003 -20.797   7.810  0.00  0.00    +0.040 S 
ATOM     14  O   LIG    1       26.931 -20.143   8.533  0.00  0.00    -0.155 OA
ATOM     15  O   LIG    1       28.969 -21.631   8.481  0.00  0.00    -0.155 OA
ENDBRANCH  10  13
ENDBRANCH   1  10
BRANCH   2  16
ATOM     16  O   LIG    1       25.116 -23.227   7.303  0.00  0.00    -0.454 OA
BRANCH  16  17
ATOM     17  C   LIG    1       25.111 -24.485   6.736  0.00  0.00    +0.129 A 
ATOM     18  C   LIG    1       23.950 -25.139   6.310  0.00  0.00    +0.046 A 
ATOM     19  C   LIG    1       24.036 -26.387   5.691  0.00  0.00    +0.004 A 
ATOM     20  C   LIG    1       25.271 -27.020   5.564  0.00  0.00    +0.000 A 
ATOM     21  C   LIG    1       26.421 -26.405   6.056  0.00  0.00    +0.004 A 
ATOM     22  C   LIG    1       26.343 -25.136   6.637  0.00  0.00    +0.046 A 
ENDBRANCH  16  17
ENDBRANCH   2  16
TORSDOF 5
ENDMDL
MODEL 8
REMARK VINA RESULT:      -7.6      2.747      5.388
REMARK  Name = *****
REMARK                            x       y       z     vdW  Elec       q    Type
REMARK                         _______ _______ _______ _____ _____    ______ ____
ROOT
ATOM      1  C   LIG    1       26.425 -20.553   5.661  0.00  0.00    +0.090 A 
ATOM      2  C   LIG    1       26.398 -20.723   7.057  0.00  0.00    +0.157 A 
ATOM      3  C   LIG    1       27.454 -20.219   7.825  0.00  0.00    +0.132 A 
ATOM      4  C   LIG    1       28.561 -19.636   7.195  0.00  0.00    +0.277 A 
ATOM      5  C   LIG    1       28.608 -19.508   5.803  0.00  0.00    +0.086 A 
ATOM      6  C   LIG    1       27.533 -19.966   5.038  0.00  0.00    +0.035 A 
ENDROOT
BRANCH   4   7
ATOM      7  N   LIG    1       29.679 -19.150   8.012  0.00  0.00    +0.080 N 
ATOM      8  O   LIG    1       29.974 -19.794   9.028  0.00  0.00    -0.576 OA
ATOM      9  O   LIG    1       30.261 -18.122   7.637  0.00  0.00    +0.041 OA
ENDBRANCH   4   7
BRANCH   1  10
ATOM     10  N   LIG    1       25.357 -21.039   4.839  0.00  0.00    -0.217 N 
ATOM     11  H   LIG    1       25.660 -21.760   4.175  0.00  0.00    +0.173 HD
BRANCH  10  13
ATOM     12  C   LIG    1       23.079 -19.613   5.002  0.00  0.00    +0.218 C 
ATOM     13  S   LIG    1       24.497 -19.872   3.958  0.00  0.00    +0.040 S 
ATOM     14  O   LIG    1       25.261 -18.641   3.913  0.00  0.00    -0.155 OA
ATOM     15  O   LIG    1       24.053 -20.530   2.753  0.00  0.00    -0.155 OA
ENDBRANCH  10  13
ENDBRANCH   1  10
BRANCH   2  16
ATOM     16  O   LIG    1       25.279 -21.326   7.602  0.00  0.00    -0.454 OA
BRANCH  16  17
ATOM     17  C   LIG    1       24.951 -22.615   7.238  0.00  0.00    +0.129 A 
ATOM     18  C   LIG    1       23.644 -23.040   6.974  0.00  0.00    +0.046 A 
ATOM     19  C   LIG    1       23.404 -24.349   6.553  0.00  0.00    +0.004 A 
ATOM     20  C   LIG    1       24.455 -25.260   6.470  0.00  0.00    +0.000 A 
ATOM     21  C   LIG    1       25.749 -24.862   6.806  0.00  0.00    +0.004 A 
ATOM     22  C   LIG    1       25.998 -23.539   7.185  0.00  0.00    +0.046 A 
ENDBRANCH  16  17
ENDBRANCH   2  16
TORSDOF 5
ENDMDL
MODEL 9
REMARK VINA RESULT:      -7.5      2.186      4.797
REMARK  Name = *****
REMARK                            x       y       z     vdW  Elec       q    Type
REMARK                         _______ _______ _______ _____ _____    ______ ____
ROOT
ATOM      1  C   LIG    1       24.430 -22.232   6.404  0.00  0.00    +0.090 A 
ATOM      2  C   LIG    1       25.408 -21.362   5.891  0.00  0.00    +0.157 A 
ATOM      3  C   LIG    1       25.004 -20.192   5.237  0.00  0.00    +0.132 A 
ATOM      4  C   LIG    1       23.642 -19.946   5.023  0.00  0.00    +0.277 A 
ATOM      5  C   LIG    1       22.671 -20.836   5.493  0.00  0.00    +0.086 A 
ATOM      6  C   LIG    1       23.070 -21.979   6.188  0.00  0.00    +0.035 A 
ENDROOT
BRANCH   4   7
ATOM      7  N   LIG    1       23.236 -18.736   4.299  0.00  0.00    +0.080 N 
ATOM      8  O   LIG    1       24.075 -18.193   3.567  0.00  0.00    -0.576 OA
ATOM      9  O   LIG    1       22.077 -18.329   4.464  0.00  0.00    +0.041 OA
ENDBRANCH   4   7
BRANCH   1  10
ATOM     10  N   LIG    1       24.800 -23.432   7.094  0.00  0.00    -0.217 N 
ATOM     11  H   LIG    1       25.749 -23.394   7.483  0.00  0.00    +0.173 HD
BRANCH  10  13
ATOM     12  C   LIG    1       25.933 -25.873   6.981  0.00  0.00    +0.218 C 
ATOM     13  S   LIG    1       24.677 -24.875   6.209  0.00  0.00    +0.040 S 
ATOM     14  O   LIG    1       23.389 -25.487   6.461  0.00  0.00    -0.155 OA
ATOM     15  O   LIG    1       25.115 -24.559   4.871  0.00  0.00    -0.155 OA
ENDBRANCH  10  13
ENDBRANCH   1  10
BRANCH   2  16
ATOM     16  O   LIG    1       26.733 -21.684   6.128  0.00  0.00    -0.454 OA
BRANCH  16  17
ATOM     17  C   LIG    1       27.612 -20.703   6.536  0.00  0.00    +0.129 A 
ATOM     18  C   LIG    1       27.871 -20.401   7.878  0.00  0.00    +0.046 A 
ATOM     19  C   LIG    1       28.820 -19.432   8.208  0.00  0.00    +0.004 A 
ATOM     20  C   LIG    1       29.457 -18.708   7.202  0.00  0.00    +0.000 A 
ATOM     21  C   LIG    1       29.146 -18.953   5.865  0.00  0.00    +0.004 A 
ATOM     22  C   LIG    1       28.228 -19.953   5.531  0.00  0.00    +0.046 A 
ENDBRANCH  16  17
ENDBRANCH   2  16
TORSDOF 5
ENDMDL
