MODEL 1
REMARK VINA RESULT:      -9.7      0.000      0.000
REMARK  Name = *****
REMARK                            x       y       z     vdW  Elec       q    Type
REMARK                         _______ _______ _______ _____ _____    ______ ____
ROOT
ATOM      1  O   LIG    1       25.304 -20.625   8.807  0.00  0.00    -0.247 OA
ATOM      2  C   LIG    1       26.115 -21.150   8.052  0.00  0.00    +0.349 C 
ENDROOT
BRANCH   2   3
ATOM      3  C   LIG    1       25.862 -21.630   6.577  0.00  0.00    +0.213 C 
BRANCH   3   4
ATOM      4  C   LIG    1       24.930 -20.693   5.792  0.00  0.00    -0.001 A 
ATOM      5  C   LIG    1       25.313 -20.053   4.599  0.00  0.00    +0.007 A 
ATOM      6  C   LIG    1       24.419 -19.240   3.893  0.00  0.00    +0.000 A 
ATOM      7  C   LIG    1       23.123 -19.054   4.361  0.00  0.00    +0.000 A 
ATOM      8  C   LIG    1       22.715 -19.684   5.530  0.00  0.00    +0.000 A 
ATOM      9  C   LIG    1       23.607 -20.498   6.235  0.00  0.00    +0.007 A 
ENDBRANCH   3   4
BRANCH   3  10
ATOM     10  C   LIG    1       25.386 -23.098   6.593  0.00  0.00    -0.001 A 
ATOM     11  C   LIG    1       26.301 -24.169   6.635  0.00  0.00    +0.007 A 
ATOM     12  C   LIG    1       25.864 -25.495   6.639  0.00  0.00    +0.000 A 
ATOM     13  C   LIG    1       24.504 -25.781   6.592  0.00  0.00    +0.000 A 
ATOM     14  C   LIG    1       23.581 -24.741   6.538  0.00  0.00    +0.000 A 
ATOM     15  C   LIG    1       24.015 -23.411   6.537  0.00  0.00    +0.007 A 
ENDBRANCH   3  10
BRANCH   3  16
ATOM     16  O   LIG    1       27.119 -21.554   5.867  0.00  0.00    -0.370 OA
ATOM     17  H   LIG    1       27.779 -21.948   6.460  0.00  0.00    +0.212 HD
ENDBRANCH   3  16
ENDBRANCH   2   3
BRANCH   2  18
ATOM     18  O   LIG    1       27.417 -21.404   8.424  0.00  0.00    -0.459 OA
BRANCH  18  19
ATOM     19  C   LIG    1       28.430 -20.646   7.741  0.00  0.00    +0.187 C 
ATOM     20  C   LIG    1       29.790 -21.150   8.244  0.00  0.00    +0.099 C 
ATOM     21  C   LIG    1       30.932 -20.152   8.019  0.00  0.00    +0.070 C 
ATOM     22  N   LIG    1       30.580 -18.835   8.724  0.00  0.00    +0.248 N 
ATOM     23  C   LIG    1       29.470 -18.313   7.785  0.00  0.00    +0.070 C 
ATOM     24  C   LIG    1       30.065 -18.556   6.387  0.00  0.00    +0.060 C 
ATOM     25  C   LIG    1       31.775 -17.849   8.786  0.00  0.00    +0.134 C 
ATOM     26  C   LIG    1       31.572 -17.021  10.051  0.00  0.00    +0.056 C 
ATOM     27  C   LIG    1       30.334 -17.567  10.731  0.00  0.00    +0.056 C 
ATOM     28  C   LIG    1       30.226 -18.977  10.206  0.00  0.00    +0.134 C 
ATOM     29  C   LIG    1       31.038 -19.727   6.550  0.00  0.00    +0.060 C 
ATOM     30  C   LIG    1       28.200 -19.147   7.979  0.00  0.00    +0.099 C 
ENDBRANCH  18  19
ENDBRANCH   2  18
TORSDOF 6
ENDMDL
MODEL 2
REMARK VINA RESULT:      -9.4      0.865      3.706
REMARK  Name = *****
REMARK                            x       y       z     vdW  Elec       q    Type
REMARK                         _______ _______ _______ _____ _____    ______ ____
ROOT
ATOM      1  O   LIG    1       27.305 -20.580   5.321  0.00  0.00    -0.247 OA
ATOM      2  C   LIG    1       26.748 -20.645   6.412  0.00  0.00    +0.349 C 
ENDROOT
BRANCH   2   3
ATOM      3  C   LIG    1       25.251 -21.036   6.687  0.00  0.00    +0.213 C 
BRANCH   3   4
ATOM      4  C   LIG    1       25.018 -22.555   6.694  0.00  0.00    -0.001 A 
ATOM      5  C   LIG    1       23.742 -23.136   6.574  0.00  0.00    +0.007 A 
ATOM      6  C   LIG    1       23.578 -24.526   6.543  0.00  0.00    +0.000 A 
ATOM      7  C   LIG    1       24.684 -25.363   6.625  0.00  0.00    +0.000 A 
ATOM      8  C   LIG    1       25.957 -24.816   6.730  0.00  0.00    +0.000 A 
ATOM      9  C   LIG    1       26.122 -23.428   6.760  0.00  0.00    +0.007 A 
ENDBRANCH   3   4
BRANCH   3  10
ATOM     10  C   LIG    1       24.336 -20.278   5.702  0.00  0.00    -0.001 A 
ATOM     11  C   LIG    1       24.781 -19.910   4.417  0.00  0.00    +0.007 A 
ATOM     12  C   LIG    1       23.951 -19.217   3.534  0.00  0.00    +0.000 A 
ATOM     13  C   LIG    1       22.662 -18.867   3.918  0.00  0.00    +0.000 A 
ATOM     14  C   LIG    1       22.202 -19.209   5.187  0.00  0.00    +0.000 A 
ATOM     15  C   LIG    1       23.030 -19.907   6.073  0.00  0.00    +0.007 A 
ENDBRANCH   3  10
BRANCH   3  16
ATOM     16  O   LIG    1       24.929 -20.624   8.036  0.00  0.00    -0.370 OA
ATOM     17  H   LIG    1       24.592 -19.717   7.958  0.00  0.00    +0.212 HD
ENDBRANCH   3  16
ENDBRANCH   2   3
BRANCH   2  18
ATOM     18  O   LIG    1       27.397 -20.364   7.593  0.00  0.00    -0.459 OA
BRANCH  18  19
ATOM     19  C   LIG    1       28.825 -20.214   7.512  0.00  0.00    +0.187 C 
ATOM     20  C   LIG    1       29.413 -20.748   8.825  0.00  0.00    +0.099 C 
ATOM     21  C   LIG    1       30.823 -20.222   9.121  0.00  0.00    +0.070 C 
ATOM     22  N   LIG    1       30.776 -18.689   9.165  0.00  0.00    +0.248 N 
ATOM     23  C   LIG    1       30.596 -18.379   7.663  0.00  0.00    +0.070 C 
ATOM     24  C   LIG    1       31.618 -19.316   6.998  0.00  0.00    +0.060 C 
ATOM     25  C   LIG    1       32.084 -18.063   9.716  0.00  0.00    +0.134 C 
ATOM     26  C   LIG    1       31.675 -16.756  10.387  0.00  0.00    +0.056 C 
ATOM     27  C   LIG    1       30.166 -16.671  10.286  0.00  0.00    +0.056 C 
ATOM     28  C   LIG    1       29.734 -18.107  10.124  0.00  0.00    +0.134 C 
ATOM     29  C   LIG    1       31.788 -20.493   7.962  0.00  0.00    +0.060 C 
ATOM     30  C   LIG    1       29.173 -18.745   7.230  0.00  0.00    +0.099 C 
ENDBRANCH  18  19
ENDBRANCH   2  18
TORSDOF 6
ENDMDL
MODEL 3
REMARK VINA RESULT:      -9.1      1.020      3.740
REMARK  Name = *****
REMARK                            x       y       z     vdW  Elec       q    Type
REMARK                         _______ _______ _______ _____ _____    ______ ____
ROOT
ATOM      1  O   LIG    1       25.916 -20.950   9.232  0.00  0.00    -0.247 OA
ATOM      2  C   LIG    1       25.663 -20.800   8.042  0.00  0.00    +0.349 C 
ENDROOT
BRANCH   2   3
ATOM      3  C   LIG    1       24.488 -21.459   7.234  0.00  0.00    +0.213 C 
BRANCH   3   4
ATOM      4  C   LIG    1       24.732 -22.944   6.920  0.00  0.00    -0.001 A 
ATOM      5  C   LIG    1       26.003 -23.544   6.988  0.00  0.00    +0.007 A 
ATOM      6  C   LIG    1       26.174 -24.910   6.734  0.00  0.00    +0.000 A 
ATOM      7  C   LIG    1       25.080 -25.705   6.414  0.00  0.00    +0.000 A 
ATOM      8  C   LIG    1       23.811 -25.140   6.353  0.00  0.00    +0.000 A 
ATOM      9  C   LIG    1       23.639 -23.777   6.607  0.00  0.00    +0.007 A 
ENDBRANCH   3   4
BRANCH   3  10
ATOM     10  C   LIG    1       24.189 -20.608   5.981  0.00  0.00    -0.001 A 
ATOM     11  C   LIG    1       22.991 -19.878   5.854  0.00  0.00    +0.007 A 
ATOM     12  C   LIG    1       22.723 -19.118   4.714  0.00  0.00    +0.000 A 
ATOM     13  C   LIG    1       23.642 -19.077   3.672  0.00  0.00    +0.000 A 
ATOM     14  C   LIG    1       24.829 -19.798   3.768  0.00  0.00    +0.000 A 
ATOM     15  C   LIG    1       25.102 -20.558   4.910  0.00  0.00    +0.007 A 
ENDBRANCH   3  10
BRANCH   3  16
ATOM     16  O   LIG    1       23.318 -21.465   8.084  0.00  0.00    -0.370 OA
ATOM     17  H   LIG    1       23.222 -20.554   8.404  0.00  0.00    +0.212 HD
ENDBRANCH   3  16
ENDBRANCH   2   3
BRANCH   2  18
ATOM     18  O   LIG    1       26.421 -19.996   7.219  0.00  0.00    -0.459 OA
BRANCH  18  19
ATOM     19  C   LIG    1       27.826 -20.296   7.159  0.00  0.00    +0.187 C 
ATOM     20  C   LIG    1       28.252 -20.754   8.561  0.00  0.00    +0.099 C 
ATOM     21  C   LIG    1       29.761 -20.633   8.810  0.00  0.00    +0.070 C 
ATOM     22  N   LIG    1       30.177 -19.171   8.599  0.00  0.00    +0.248 N 
ATOM     23  C   LIG    1       30.069 -19.078   7.060  0.00  0.00    +0.070 C 
ATOM     24  C   LIG    1       30.749 -20.376   6.592  0.00  0.00    +0.060 C 
ATOM     25  C   LIG    1       31.623 -18.883   9.079  0.00  0.00    +0.134 C 
ATOM     26  C   LIG    1       31.640 -17.420   9.512  0.00  0.00    +0.056 C 
ATOM     27  C   LIG    1       30.224 -16.906   9.350  0.00  0.00    +0.056 C 
ATOM     28  C   LIG    1       29.378 -18.153   9.414  0.00  0.00    +0.134 C 
ATOM     29  C   LIG    1       30.577 -21.371   7.743  0.00  0.00    +0.060 C 
ATOM     30  C   LIG    1       28.593 -19.068   6.650  0.00  0.00    +0.099 C 
ENDBRANCH  18  19
ENDBRANCH   2  18
TORSDOF 6
ENDMDL
MODEL 4
REMARK VINA RESULT:      -9.0      1.274      4.001
REMARK  Name = *****
REMARK                            x       y       z     vdW  Elec       q    Type
REMARK                         _______ _______ _______ _____ _____    ______ ____
ROOT
ATOM      1  O   LIG    1       25.696 -20.483   8.816  0.00  0.00    -0.247 OA
ATOM      2  C   LIG    1       25.523 -20.842   7.656  0.00  0.00    +0.349 C 
ENDROOT
BRANCH   2   3
ATOM      3  C   LIG    1       24.241 -21.527   7.059  0.00  0.00    +0.213 C 
BRANCH   3   4
ATOM      4  C   LIG    1       24.413 -23.039   6.843  0.00  0.00    -0.001 A 
ATOM      5  C   LIG    1       23.340 -23.899   6.546  0.00  0.00    +0.007 A 
ATOM      6  C   LIG    1       23.546 -25.264   6.316  0.00  0.00    +0.000 A 
ATOM      7  C   LIG    1       24.829 -25.797   6.372  0.00  0.00    +0.000 A 
ATOM      8  C   LIG    1       25.908 -24.968   6.651  0.00  0.00    +0.000 A 
ATOM      9  C   LIG    1       25.703 -23.604   6.880  0.00  0.00    +0.007 A 
ENDBRANCH   3   4
BRANCH   3  10
ATOM     10  C   LIG    1       23.804 -20.771   5.787  0.00  0.00    -0.001 A 
ATOM     11  C   LIG    1       24.465 -20.955   4.556  0.00  0.00    +0.007 A 
ATOM     12  C   LIG    1       24.070 -20.261   3.411  0.00  0.00    +0.000 A 
ATOM     13  C   LIG    1       23.013 -19.362   3.471  0.00  0.00    +0.000 A 
ATOM     14  C   LIG    1       22.350 -19.153   4.677  0.00  0.00    +0.000 A 
ATOM     15  C   LIG    1       22.741 -19.849   5.826  0.00  0.00    +0.007 A 
ENDBRANCH   3  10
BRANCH   3  16
ATOM     16  O   LIG    1       23.189 -21.429   8.046  0.00  0.00    -0.370 OA
ATOM     17  H   LIG    1       22.384 -21.209   7.549  0.00  0.00    +0.212 HD
ENDBRANCH   3  16
ENDBRANCH   2   3
BRANCH   2  18
ATOM     18  O   LIG    1       26.483 -20.686   6.681  0.00  0.00    -0.459 OA
BRANCH  18  19
ATOM     19  C   LIG    1       27.579 -19.812   7.004  0.00  0.00    +0.187 C 
ATOM     20  C   LIG    1       28.755 -20.206   6.100  0.00  0.00    +0.099 C 
ATOM     21  C   LIG    1       30.116 -19.743   6.633  0.00  0.00    +0.070 C 
ATOM     22  N   LIG    1       30.323 -20.337   8.032  0.00  0.00    +0.248 N 
ATOM     23  C   LIG    1       29.323 -19.482   8.841  0.00  0.00    +0.070 C 
ATOM     24  C   LIG    1       29.594 -18.060   8.323  0.00  0.00    +0.060 C 
ATOM     25  C   LIG    1       31.772 -20.153   8.555  0.00  0.00    +0.134 C 
ATOM     26  C   LIG    1       32.039 -21.336   9.480  0.00  0.00    +0.056 C 
ATOM     27  C   LIG    1       30.804 -22.210   9.432  0.00  0.00    +0.056 C 
ATOM     28  C   LIG    1       30.163 -21.857   8.113  0.00  0.00    +0.134 C 
ATOM     29  C   LIG    1       30.140 -18.234   6.904  0.00  0.00    +0.060 C 
ATOM     30  C   LIG    1       27.892 -19.912   8.504  0.00  0.00    +0.099 C 
ENDBRANCH  18  19
ENDBRANCH   2  18
TORSDOF 6
ENDMDL
MODEL 5
REMARK VINA RESULT:      -8.7      2.977      7.275
REMARK  Name = *****
REMARK                            x       y       z     vdW  Elec       q    Type
REMARK                         _______ _______ _______ _____ _____    ______ ____
ROOT
ATOM      1  O   LIG    1       24.743 -23.286   4.296  0.00  0.00    -0.247 OA
ATOM      2  C   LIG    1       25.080 -23.092   5.459  0.00  0.00    +0.349 C 
ENDROOT
BRANCH   2   3
ATOM      3  C   LIG    1       25.060 -21.725   6.234  0.00  0.00    +0.213 C 
BRANCH   3   4
ATOM      4  C   LIG    1       24.271 -20.629   5.500  0.00  0.00    -0.001 A 
ATOM      5  C   LIG    1       24.701 -20.051   4.292  0.00  0.00    +0.007 A 
ATOM      6  C   LIG    1       23.930 -19.085   3.636  0.00  0.00    +0.000 A 
ATOM      7  C   LIG    1       22.712 -18.680   4.168  0.00  0.00    +0.000 A 
ATOM      8  C   LIG    1       22.257 -19.244   5.354  0.00  0.00    +0.000 A 
ATOM      9  C   LIG    1       23.025 -20.211   6.010  0.00  0.00    +0.007 A 
ENDBRANCH   3   4
BRANCH   3  10
ATOM     10  C   LIG    1       26.507 -21.312   6.578  0.00  0.00    -0.001 A 
ATOM     11  C   LIG    1       27.182 -21.850   7.692  0.00  0.00    +0.007 A 
ATOM     12  C   LIG    1       28.488 -21.466   8.003  0.00  0.00    +0.000 A 
ATOM     13  C   LIG    1       29.145 -20.530   7.214  0.00  0.00    +0.000 A 
ATOM     14  C   LIG    1       28.497 -19.975   6.114  0.00  0.00    +0.000 A 
ATOM     15  C   LIG    1       27.190 -20.361   5.798  0.00  0.00    +0.007 A 
ENDBRANCH   3  10
BRANCH   3  16
ATOM     16  O   LIG    1       24.327 -21.925   7.464  0.00  0.00    -0.370 OA
ATOM     17  H   LIG    1       24.788 -21.394   8.133  0.00  0.00    +0.212 HD
ENDBRANCH   3  16
ENDBRANCH   2   3
BRANCH   2  18
ATOM     18  O   LIG    1       25.547 -24.099   6.274  0.00  0.00    -0.459 OA
BRANCH  18  19
ATOM     19  C   LIG    1       25.419 -25.438   5.763  0.00  0.00    +0.187 C 
ATOM     20  C   LIG    1       24.169 -26.052   6.410  0.00  0.00    +0.099 C 
ATOM     21  C   LIG    1       24.159 -27.585   6.381  0.00  0.00    +0.070 C 
ATOM     22  N   LIG    1       25.414 -28.099   7.100  0.00  0.00    +0.248 N 
ATOM     23  C   LIG    1       26.492 -27.737   6.054  0.00  0.00    +0.070 C 
ATOM     24  C   LIG    1       25.853 -28.198   4.733  0.00  0.00    +0.060 C 
ATOM     25  C   LIG    1       25.374 -29.627   7.362  0.00  0.00    +0.134 C 
ATOM     26  C   LIG    1       26.190 -29.858   8.630  0.00  0.00    +0.056 C 
ATOM     27  C   LIG    1       26.625 -28.492   9.120  0.00  0.00    +0.056 C 
ATOM     28  C   LIG    1       25.610 -27.553   8.516  0.00  0.00    +0.134 C 
ATOM     29  C   LIG    1       24.341 -28.131   4.961  0.00  0.00    +0.060 C 
ATOM     30  C   LIG    1       26.709 -26.221   6.044  0.00  0.00    +0.099 C 
ENDBRANCH  18  19
ENDBRANCH   2  18
TORSDOF 6
ENDMDL
MODEL 6
REMARK VINA RESULT:      -8.5      3.330      7.702
REMARK  Name = *****
REMARK                            x       y       z     vdW  Elec       q    Type
REMARK                         _______ _______ _______ _____ _____    ______ ____
ROOT
ATOM      1  O   LIG    1       22.367 -22.947   6.524  0.00  0.00    -0.247 OA
ATOM      2  C   LIG    1       23.586 -23.074   6.538  0.00  0.00    +0.349 C 
ENDROOT
BRANCH   2   3
ATOM      3  C   LIG    1       24.645 -22.115   5.884  0.00  0.00    +0.213 C 
BRANCH   3   4
ATOM      4  C   LIG    1       25.749 -21.682   6.862  0.00  0.00    -0.001 A 
ATOM      5  C   LIG    1       27.099 -22.046   6.705  0.00  0.00    +0.007 A 
ATOM      6  C   LIG    1       28.080 -21.596   7.596  0.00  0.00    +0.000 A 
ATOM      7  C   LIG    1       27.734 -20.769   8.659  0.00  0.00    +0.000 A 
ATOM      8  C   LIG    1       26.410 -20.384   8.830  0.00  0.00    +0.000 A 
ATOM      9  C   LIG    1       25.430 -20.832   7.940  0.00  0.00    +0.007 A 
ENDBRANCH   3   4
BRANCH   3  10
ATOM     10  C   LIG    1       23.916 -20.928   5.218  0.00  0.00    -0.001 A 
ATOM     11  C   LIG    1       24.330 -20.414   3.974  0.00  0.00    +0.007 A 
ATOM     12  C   LIG    1       23.672 -19.334   3.381  0.00  0.00    +0.000 A 
ATOM     13  C   LIG    1       22.591 -18.739   4.022  0.00  0.00    +0.000 A 
ATOM     14  C   LIG    1       22.169 -19.222   5.258  0.00  0.00    +0.000 A 
ATOM     15  C   LIG    1       22.825 -20.306   5.853  0.00  0.00    +0.007 A 
ENDBRANCH   3  10
BRANCH   3  16
ATOM     16  O   LIG    1       25.348 -22.862   4.866  0.00  0.00    -0.370 OA
ATOM     17  H   LIG    1       25.948 -22.227   4.443  0.00  0.00    +0.212 HD
ENDBRANCH   3  16
ENDBRANCH   2   3
BRANCH   2  18
ATOM     18  O   LIG    1       24.214 -24.133   7.155  0.00  0.00    -0.459 OA
BRANCH  18  19
ATOM     19  C   LIG    1       24.951 -25.021   6.297  0.00  0.00    +0.187 C 
ATOM     20  C   LIG    1       23.924 -25.853   5.516  0.00  0.00    +0.099 C 
ATOM     21  C   LIG    1       24.500 -27.157   4.949  0.00  0.00    +0.070 C 
ATOM     22  N   LIG    1       25.062 -27.991   6.108  0.00  0.00    +0.248 N 
ATOM     23  C   LIG    1       26.326 -27.169   6.447  0.00  0.00    +0.070 C 
ATOM     24  C   LIG    1       26.923 -26.878   5.059  0.00  0.00    +0.060 C 
ATOM     25  C   LIG    1       25.428 -29.437   5.686  0.00  0.00    +0.134 C 
ATOM     26  C   LIG    1       25.237 -30.300   6.930  0.00  0.00    +0.056 C 
ATOM     27  C   LIG    1       24.708 -29.385   8.014  0.00  0.00    +0.056 C 
ATOM     28  C   LIG    1       24.075 -28.248   7.250  0.00  0.00    +0.134 C 
ATOM     29  C   LIG    1       25.742 -26.905   4.086  0.00  0.00    +0.060 C 
ATOM     30  C   LIG    1       25.919 -25.865   7.139  0.00  0.00    +0.099 C 
ENDBRANCH  18  19
ENDBRANCH   2  18
TORSDOF 6
ENDMDL
MODEL 7
REMARK VINA RESULT:      -8.0      7.338     10.188
REMARK  Name = *****
REMARK                            x       y       z     vdW  Elec       q    Type
REMARK                         _______ _______ _______ _____ _____    ______ ____
ROOT
ATOM      1  O   LIG    1       26.816 -30.799   8.758  0.00  0.00    -0.247 OA
ATOM      2  C   LIG    1       25.720 -30.248   8.775  0.00  0.00    +0.349 C 
ENDROOT
BRANCH   2   3
ATOM      3  C   LIG    1       24.764 -30.006   7.552  0.00  0.00    +0.213 C 
BRANCH   3   4
ATOM      4  C   LIG    1       24.873 -31.099   6.478  0.00  0.00    -0.001 A 
ATOM      5  C   LIG    1       25.909 -31.141   5.527  0.00  0.00    +0.007 A 
ATOM      6  C   LIG    1       25.994 -32.179   4.592  0.00  0.00    +0.000 A 
ATOM      7  C   LIG    1       25.048 -33.198   4.589  0.00  0.00    +0.000 A 
ATOM      8  C   LIG    1       24.021 -33.188   5.525  0.00  0.00    +0.000 A 
ATOM      9  C   LIG    1       23.937 -32.153   6.461  0.00  0.00    +0.007 A 
ENDBRANCH   3   4
BRANCH   3  10
ATOM     10  C   LIG    1       24.988 -28.581   7.003  0.00  0.00    -0.001 A 
ATOM     11  C   LIG    1       25.974 -27.730   7.541  0.00  0.00    +0.007 A 
ATOM     12  C   LIG    1       26.166 -26.439   7.046  0.00  0.00    +0.000 A 
ATOM     13  C   LIG    1       25.371 -25.965   6.008  0.00  0.00    +0.000 A 
ATOM     14  C   LIG    1       24.382 -26.782   5.467  0.00  0.00    +0.000 A 
ATOM     15  C   LIG    1       24.190 -28.078   5.959  0.00  0.00    +0.007 A 
ENDBRANCH   3  10
BRANCH   3  16
ATOM     16  O   LIG    1       23.403 -30.114   8.029  0.00  0.00    -0.370 OA
ATOM     17  H   LIG    1       23.087 -30.980   7.725  0.00  0.00    +0.212 HD
ENDBRANCH   3  16
ENDBRANCH   2   3
BRANCH   2  18
ATOM     18  O   LIG    1       25.165 -29.740   9.928  0.00  0.00    -0.459 OA
BRANCH  18  19
ATOM     19  C   LIG    1       26.031 -29.675  11.074  0.00  0.00    +0.187 C 
ATOM     20  C   LIG    1       25.212 -30.133  12.289  0.00  0.00    +0.099 C 
ATOM     21  C   LIG    1       25.792 -29.663  13.628  0.00  0.00    +0.070 C 
ATOM     22  N   LIG    1       25.879 -28.131  13.616  0.00  0.00    +0.248 N 
ATOM     23  C   LIG    1       27.058 -27.934  12.636  0.00  0.00    +0.070 C 
ATOM     24  C   LIG    1       28.080 -28.977  13.120  0.00  0.00    +0.060 C 
ATOM     25  C   LIG    1       26.201 -27.536  15.011  0.00  0.00    +0.134 C 
ATOM     26  C   LIG    1       25.547 -26.158  15.042  0.00  0.00    +0.056 C 
ATOM     27  C   LIG    1       24.811 -25.999  13.728  0.00  0.00    +0.056 C 
ATOM     28  C   LIG    1       24.568 -27.418  13.277  0.00  0.00    +0.134 C 
ATOM     29  C   LIG    1       27.258 -30.079  13.793  0.00  0.00    +0.060 C 
ATOM     30  C   LIG    1       26.599 -28.255  11.211  0.00  0.00    +0.099 C 
ENDBRANCH  18  19
ENDBRANCH   2  18
TORSDOF 6
ENDMDL
MODEL 8
REMARK VINA RESULT:      -7.9      7.600     11.004
REMARK  Name = *****
REMARK                            x       y       z     vdW  Elec       q    Type
REMARK                         _______ _______ _______ _____ _____    ______ ____
ROOT
ATOM      1  O   LIG    1       22.907 -31.576   8.490  0.00  0.00    -0.247 OA
ATOM      2  C   LIG    1       23.753 -30.729   8.224  0.00  0.00    +0.349 C 
ENDROOT
BRANCH   2   3
ATOM      3  C   LIG    1       24.401 -30.448   6.820  0.00  0.00    +0.213 C 
BRANCH   3   4
ATOM      4  C   LIG    1       25.571 -31.392   6.498  0.00  0.00    -0.001 A 
ATOM      5  C   LIG    1       26.418 -31.929   7.485  0.00  0.00    +0.007 A 
ATOM      6  C   LIG    1       27.447 -32.817   7.151  0.00  0.00    +0.000 A 
ATOM      7  C   LIG    1       27.647 -33.192   5.828  0.00  0.00    +0.000 A 
ATOM      8  C   LIG    1       26.817 -32.686   4.835  0.00  0.00    +0.000 A 
ATOM      9  C   LIG    1       25.788 -31.800   5.167  0.00  0.00    +0.007 A 
ENDBRANCH   3   4
BRANCH   3  10
ATOM     10  C   LIG    1       24.772 -28.954   6.719  0.00  0.00    -0.001 A 
ATOM     11  C   LIG    1       24.125 -28.094   5.809  0.00  0.00    +0.007 A 
ATOM     12  C   LIG    1       24.472 -26.744   5.717  0.00  0.00    +0.000 A 
ATOM     13  C   LIG    1       25.478 -26.226   6.524  0.00  0.00    +0.000 A 
ATOM     14  C   LIG    1       26.140 -27.058   7.423  0.00  0.00    +0.000 A 
ATOM     15  C   LIG    1       25.792 -28.409   7.521  0.00  0.00    +0.007 A 
ENDBRANCH   3  10
BRANCH   3  16
ATOM     16  O   LIG    1       23.412 -30.753   5.809  0.00  0.00    -0.370 OA
ATOM     17  H   LIG    1       23.755 -31.527   5.334  0.00  0.00    +0.212 HD
ENDBRANCH   3  16
ENDBRANCH   2   3
BRANCH   2  18
ATOM     18  O   LIG    1       24.272 -29.877   9.173  0.00  0.00    -0.459 OA
BRANCH  18  19
ATOM     19  C   LIG    1       24.464 -30.431  10.486  0.00  0.00    +0.187 C 
ATOM     20  C   LIG    1       23.528 -29.675  11.438  0.00  0.00    +0.099 C 
ATOM     21  C   LIG    1       23.945 -29.773  12.911  0.00  0.00    +0.070 C 
ATOM     22  N   LIG    1       25.373 -29.229  13.054  0.00  0.00    +0.248 N 
ATOM     23  C   LIG    1       26.168 -30.374  12.387  0.00  0.00    +0.070 C 
ATOM     24  C   LIG    1       25.526 -31.632  12.995  0.00  0.00    +0.060 C 
ATOM     25  C   LIG    1       25.797 -29.036  14.533  0.00  0.00    +0.134 C 
ATOM     26  C   LIG    1       26.795 -27.882  14.538  0.00  0.00    +0.056 C 
ATOM     27  C   LIG    1       26.885 -27.382  13.111  0.00  0.00    +0.056 C 
ATOM     28  C   LIG    1       25.581 -27.821  12.492  0.00  0.00    +0.134 C 
ATOM     29  C   LIG    1       24.096 -31.230  13.365  0.00  0.00    +0.060 C 
ATOM     30  C   LIG    1       25.947 -30.338  10.872  0.00  0.00    +0.099 C 
ENDBRANCH  18  19
ENDBRANCH   2  18
TORSDOF 6
ENDMDL
MODEL 9
REMARK VINA RESULT:      -7.8      7.425     10.087
REMARK  Name = *****
REMARK                            x       y       z     vdW  Elec       q    Type
REMARK                         _______ _______ _______ _____ _____    ______ ____
ROOT
ATOM      1  O   LIG    1       23.159 -30.093   9.129  0.00  0.00    -0.247 OA
ATOM      2  C   LIG    1       24.365 -30.308   9.079  0.00  0.00    +0.349 C 
ENDROOT
BRANCH   2   3
ATOM      3  C   LIG    1       25.307 -30.130   7.833  0.00  0.00    +0.213 C 
BRANCH   3   4
ATOM      4  C   LIG    1       25.236 -28.721   7.223  0.00  0.00    -0.001 A 
ATOM      5  C   LIG    1       26.069 -27.663   7.632  0.00  0.00    +0.007 A 
ATOM      6  C   LIG    1       25.999 -26.407   7.020  0.00  0.00    +0.000 A 
ATOM      7  C   LIG    1       25.101 -26.181   5.984  0.00  0.00    +0.000 A 
ATOM      8  C   LIG    1       24.275 -27.212   5.551  0.00  0.00    +0.000 A 
ATOM      9  C   LIG    1       24.345 -28.468   6.161  0.00  0.00    +0.007 A 
ENDBRANCH   3   4
BRANCH   3  10
ATOM     10  C   LIG    1       25.026 -31.255   6.815  0.00  0.00    -0.001 A 
ATOM     11  C   LIG    1       23.760 -31.868   6.726  0.00  0.00    +0.007 A 
ATOM     12  C   LIG    1       23.515 -32.892   5.808  0.00  0.00    +0.000 A 
ATOM     13  C   LIG    1       24.530 -33.332   4.967  0.00  0.00    +0.000 A 
ATOM     14  C   LIG    1       25.793 -32.751   5.044  0.00  0.00    +0.000 A 
ATOM     15  C   LIG    1       26.041 -31.722   5.960  0.00  0.00    +0.007 A 
ENDBRANCH   3  10
BRANCH   3  16
ATOM     16  O   LIG    1       26.673 -30.246   8.293  0.00  0.00    -0.370 OA
ATOM     17  H   LIG    1       26.729 -31.112   8.729  0.00  0.00    +0.212 HD
ENDBRANCH   3  16
ENDBRANCH   2   3
BRANCH   2  18
ATOM     18  O   LIG    1       25.083 -30.762  10.163  0.00  0.00    -0.459 OA
BRANCH  18  19
ATOM     19  C   LIG    1       24.907 -30.032  11.390  0.00  0.00    +0.187 C 
ATOM     20  C   LIG    1       25.540 -28.648  11.188  0.00  0.00    +0.099 C 
ATOM     21  C   LIG    1       25.890 -27.940  12.503  0.00  0.00    +0.070 C 
ATOM     22  N   LIG    1       26.849 -28.832  13.301  0.00  0.00    +0.248 N 
ATOM     23  C   LIG    1       25.876 -29.944  13.751  0.00  0.00    +0.070 C 
ATOM     24  C   LIG    1       24.646 -29.149  14.222  0.00  0.00    +0.060 C 
ATOM     25  C   LIG    1       27.474 -28.104  14.519  0.00  0.00    +0.134 C 
ATOM     26  C   LIG    1       28.844 -28.740  14.734  0.00  0.00    +0.056 C 
ATOM     27  C   LIG    1       29.028 -29.755  13.625  0.00  0.00    +0.056 C 
ATOM     28  C   LIG    1       28.100 -29.272  12.537  0.00  0.00    +0.134 C 
ATOM     29  C   LIG    1       24.677 -27.836  13.435  0.00  0.00    +0.060 C 
ATOM     30  C   LIG    1       25.516 -30.827  12.553  0.00  0.00    +0.099 C 
ENDBRANCH  18  19
ENDBRANCH   2  18
TORSDOF 6
ENDMDL
