MODEL 1
REMARK VINA RESULT:       0.2      0.000      0.000
REMARK  Name = *****
REMARK                            x       y       z     vdW  Elec       q    Type
REMARK                         _______ _______ _______ _____ _____    ______ ____
ROOT
ATOM      1  C   LIG    1       26.873 -19.330   4.582  0.00  0.00    +0.122 C 
ENDROOT
BRANCH   1   2
ATOM      2  C   LIG    1       25.572 -20.192   4.733  0.00  0.00    +0.172 C 
ATOM      3  C   LIG    1       24.937 -20.628   3.388  0.00  0.00    +0.176 C 
ATOM      4  C   LIG    1       23.611 -21.369   3.622  0.00  0.00    +0.177 C 
ATOM      5  C   LIG    1       22.688 -20.535   4.517  0.00  0.00    +0.184 C 
ATOM      6  C   LIG    1       23.400 -20.186   5.835  0.00  0.00    +0.207 C 
ATOM      7  O   LIG    1       24.609 -19.463   5.517  0.00  0.00    -0.356 OA
BRANCH   3   8
ATOM      8  O   LIG    1       24.594 -19.510   2.544  0.00  0.00    -0.387 OA
ATOM      9  H   LIG    1       23.973 -18.958   3.057  0.00  0.00    +0.210 HD
ENDBRANCH   3   8
BRANCH   4  10
ATOM     10  O   LIG    1       22.936 -21.571   2.365  0.00  0.00    -0.387 OA
ATOM     11  H   LIG    1       22.945 -20.691   1.928  0.00  0.00    +0.210 HD
ENDBRANCH   4  10
BRANCH   5  12
ATOM     12  O   LIG    1       21.421 -21.175   4.678  0.00  0.00    -0.386 OA
ATOM     13  H   LIG    1       20.966 -20.665   5.379  0.00  0.00    +0.210 HD
ENDBRANCH   5  12
BRANCH   6  14
ATOM     14  S   LIG    1       23.744 -21.572   7.004  0.00  0.00    -0.131 S 
ATOM     15  C   LIG    1       25.556 -21.560   7.005  0.00  0.00    +0.087 C 
ENDBRANCH   6  14
ENDBRANCH   1   2
BRANCH   1  17
ATOM     16  C   LIG    1       26.392 -17.109   3.502  0.00  0.00    +0.231 C 
ATOM     17  N   LIG    1       26.594 -17.882   4.631  0.00  0.00    -0.307 N 
ATOM     18  H   LIG    1       26.712 -17.411   5.527  0.00  0.00    +0.149 HD
ATOM     19  O   LIG    1       26.499 -17.567   2.360  0.00  0.00    -0.274 OA
BRANCH  16  24
ATOM     20  C   LIG    1       26.044 -13.398   2.866  0.00  0.00    +0.005 C 
ATOM     21  C   LIG    1       26.665 -13.464   4.268  0.00  0.00    +0.088 C 
ATOM     22  N   LIG    1       27.090 -14.865   4.472  0.00  0.00    -0.294 NA
ATOM     23  C   LIG    1       28.416 -15.084   3.884  0.00  0.00    +0.105 C 
ATOM     24  C   LIG    1       26.011 -15.647   3.805  0.00  0.00    +0.143 C 
ATOM     25  C   LIG    1       25.589 -14.834   2.582  0.00  0.00    +0.033 C 
BRANCH  20  26
ATOM     26  C   LIG    1       24.937 -12.335   2.746  0.00  0.00    +0.004 C 
BRANCH  26  28
ATOM     27  C   LIG    1       23.953 -11.861   5.047  0.00  0.00    +0.004 C 
ATOM     28  C   LIG    1       23.769 -12.574   3.713  0.00  0.00    -0.003 C 
ENDBRANCH  26  28
ENDBRANCH  20  26
ENDBRANCH  16  24
ENDBRANCH   1  17
BRANCH   1  29
ATOM     29  C   LIG    1       28.004 -19.675   5.598  0.00  0.00    +0.100 C 
ATOM     30 CL   LIG    1       29.393 -18.534   5.505  0.00  0.00    -0.120 Cl
ATOM     31  C   LIG    1       27.539 -19.777   7.046  0.00  0.00    +0.026 C 
ENDBRANCH   1  29
TORSDOF 10
ENDMDL
MODEL 2
REMARK VINA RESULT:       1.5      3.393      7.581
REMARK  Name = *****
REMARK                            x       y       z     vdW  Elec       q    Type
REMARK                         _______ _______ _______ _____ _____    ______ ____
ROOT
ATOM      1  C   LIG    1       24.639 -16.013   3.462  0.00  0.00    +0.122 C 
ENDROOT
BRANCH   1   2
ATOM      2  C   LIG    1       25.526 -14.740   3.681  0.00  0.00    +0.172 C 
ATOM      3  C   LIG    1       27.014 -14.924   3.290  0.00  0.00    +0.176 C 
ATOM      4  C   LIG    1       27.833 -13.671   3.639  0.00  0.00    +0.177 C 
ATOM      5  C   LIG    1       27.608 -13.281   5.104  0.00  0.00    +0.184 C 
ATOM      6  C   LIG    1       26.106 -13.089   5.376  0.00  0.00    +0.207 C 
ATOM      7  O   LIG    1       25.428 -14.324   5.057  0.00  0.00    -0.356 OA
BRANCH   3   8
ATOM      8  O   LIG    1       27.652 -15.998   4.011  0.00  0.00    -0.387 OA
ATOM      9  H   LIG    1       27.065 -16.212   4.762  0.00  0.00    +0.210 HD
ENDBRANCH   3   8
BRANCH   4  10
ATOM     10  O   LIG    1       29.238 -13.943   3.470  0.00  0.00    -0.387 OA
ATOM     11  H   LIG    1       29.684 -13.083   3.630  0.00  0.00    +0.210 HD
ENDBRANCH   4  10
BRANCH   5  12
ATOM     12  O   LIG    1       28.424 -12.166   5.464  0.00  0.00    -0.386 OA
ATOM     13  H   LIG    1       28.210 -11.987   6.403  0.00  0.00    +0.210 HD
ENDBRANCH   5  12
BRANCH   6  14
ATOM     14  S   LIG    1       25.276 -11.650   4.574  0.00  0.00    -0.131 S 
ATOM     15  C   LIG    1       23.774 -11.532   5.580  0.00  0.00    +0.087 C 
ENDBRANCH   6  14
ENDBRANCH   1   2
BRANCH   1  17
ATOM     16  C   LIG    1       25.269 -18.373   4.069  0.00  0.00    +0.231 C 
ATOM     17  N   LIG    1       24.941 -17.080   4.437  0.00  0.00    -0.307 N 
ATOM     18  H   LIG    1       24.745 -16.889   5.418  0.00  0.00    +0.149 HD
ATOM     19  O   LIG    1       25.266 -18.746   2.892  0.00  0.00    -0.274 OA
BRANCH  16  24
ATOM     20  C   LIG    1       27.064 -21.165   5.879  0.00  0.00    +0.005 C 
ATOM     21  C   LIG    1       25.594 -21.375   6.267  0.00  0.00    +0.088 C 
ATOM     22  N   LIG    1       24.798 -20.498   5.381  0.00  0.00    -0.294 NA
ATOM     23  C   LIG    1       24.547 -21.169   4.100  0.00  0.00    +0.105 C 
ATOM     24  C   LIG    1       25.649 -19.282   5.254  0.00  0.00    +0.143 C 
ATOM     25  C   LIG    1       27.096 -19.773   5.240  0.00  0.00    +0.033 C 
BRANCH  20  26
ATOM     26  C   LIG    1       28.033 -21.355   7.061  0.00  0.00    +0.004 C 
BRANCH  26  28
ATOM     27  C   LIG    1       29.475 -19.256   7.057  0.00  0.00    +0.004 C 
ATOM     28  C   LIG    1       29.422 -20.758   6.800  0.00  0.00    -0.003 C 
ENDBRANCH  26  28
ENDBRANCH  20  26
ENDBRANCH  16  24
ENDBRANCH   1  17
BRANCH   1  29
ATOM     29  C   LIG    1       23.104 -15.744   3.449  0.00  0.00    +0.100 C 
ATOM     30 CL   LIG    1       22.260 -16.455   4.871  0.00  0.00    -0.120 Cl
ATOM     31  C   LIG    1       22.724 -14.272   3.330  0.00  0.00    +0.026 C 
ENDBRANCH   1  29
TORSDOF 10
ENDMDL
MODEL 3
REMARK VINA RESULT:       2.1      1.119      1.988
REMARK  Name = *****
REMARK                            x       y       z     vdW  Elec       q    Type
REMARK                         _______ _______ _______ _____ _____    ______ ____
ROOT
ATOM      1  C   LIG    1       27.255 -19.383   4.389  0.00  0.00    +0.122 C 
ENDROOT
BRANCH   1   2
ATOM      2  C   LIG    1       25.834 -20.002   4.626  0.00  0.00    +0.172 C 
ATOM      3  C   LIG    1       25.214 -20.672   3.374  0.00  0.00    +0.176 C 
ATOM      4  C   LIG    1       23.782 -21.152   3.661  0.00  0.00    +0.177 C 
ATOM      5  C   LIG    1       22.946 -20.008   4.245  0.00  0.00    +0.184 C 
ATOM      6  C   LIG    1       23.631 -19.437   5.499  0.00  0.00    +0.207 C 
ATOM      7  O   LIG    1       24.950 -18.981   5.125  0.00  0.00    -0.356 OA
BRANCH   3   8
ATOM      8  O   LIG    1       25.087 -19.766   2.260  0.00  0.00    -0.387 OA
ATOM      9  H   LIG    1       24.590 -20.246   1.570  0.00  0.00    +0.210 HD
ENDBRANCH   3   8
BRANCH   4  10
ATOM     10  O   LIG    1       23.153 -21.571   2.434  0.00  0.00    -0.387 OA
ATOM     11  H   LIG    1       22.198 -21.377   2.559  0.00  0.00    +0.210 HD
ENDBRANCH   4  10
BRANCH   5  12
ATOM     12  O   LIG    1       21.592 -20.416   4.442  0.00  0.00    -0.386 OA
ATOM     13  H   LIG    1       21.650 -21.333   4.782  0.00  0.00    +0.210 HD
ENDBRANCH   5  12
BRANCH   6  14
ATOM     14  S   LIG    1       23.703 -20.520   6.991  0.00  0.00    -0.131 S 
ATOM     15  C   LIG    1       25.479 -20.871   7.059  0.00  0.00    +0.087 C 
ENDBRANCH   6  14
ENDBRANCH   1   2
BRANCH   1  17
ATOM     16  C   LIG    1       26.497 -17.255   3.279  0.00  0.00    +0.231 C 
ATOM     17  N   LIG    1       27.211 -17.912   4.265  0.00  0.00    -0.307 N 
ATOM     18  H   LIG    1       27.861 -17.374   4.834  0.00  0.00    +0.149 HD
ATOM     19  O   LIG    1       25.895 -17.858   2.386  0.00  0.00    -0.274 OA
BRANCH  16  24
ATOM     20  C   LIG    1       26.448 -13.916   5.053  0.00  0.00    +0.005 C 
ATOM     21  C   LIG    1       25.401 -13.747   3.943  0.00  0.00    +0.088 C 
ATOM     22  N   LIG    1       25.161 -15.095   3.386  0.00  0.00    -0.294 NA
ATOM     23  C   LIG    1       24.171 -15.811   4.199  0.00  0.00    +0.105 C 
ATOM     24  C   LIG    1       26.513 -15.720   3.415  0.00  0.00    +0.143 C 
ATOM     25  C   LIG    1       27.195 -15.201   4.681  0.00  0.00    +0.033 C 
BRANCH  20  26
ATOM     26  C   LIG    1       27.345 -12.676   5.229  0.00  0.00    +0.004 C 
BRANCH  26  28
ATOM     27  C   LIG    1       28.597 -12.045   3.103  0.00  0.00    +0.004 C 
ATOM     28  C   LIG    1       28.659 -12.770   4.442  0.00  0.00    -0.003 C 
ENDBRANCH  26  28
ENDBRANCH  20  26
ENDBRANCH  16  24
ENDBRANCH   1  17
BRANCH   1  29
ATOM     29  C   LIG    1       28.325 -19.781   5.450  0.00  0.00    +0.100 C 
ATOM     30 CL   LIG    1       29.438 -18.427   5.858  0.00  0.00    -0.120 Cl
ATOM     31  C   LIG    1       27.749 -20.358   6.738  0.00  0.00    +0.026 C 
ENDBRANCH   1  29
TORSDOF 10
ENDMDL
