MODEL 1
REMARK VINA RESULT:       7.0      0.000      0.000
REMARK  Name = *****
REMARK                            x       y       z     vdW  Elec       q    Type
REMARK                         _______ _______ _______ _____ _____    ______ ____
ROOT
ATOM      1  S   UNK A  1       24.529 -18.625   3.574  0.00  0.00    -0.091 S 
ENDROOT
BRANCH   1   2
ATOM      2  S   UNK A  1       25.019 -20.545   2.949  0.00  0.00    -0.091 S 
BRANCH   2   3
ATOM      3  C   UNK A  1       25.380 -21.563   4.476  0.00  0.00    +0.112 C 
BRANCH   3   4
ATOM      4  C   UNK A  1       24.315 -21.550   5.604  0.00  0.00    +0.169 C 
BRANCH   4   5
ATOM      5  N   UNK A  1       22.895 -21.343   5.101  0.00  0.00    -0.303 N 
ATOM      6  H   UNK A  1       22.161 -21.633   5.740  0.00  0.00    +0.149 HD
ATOM      7  C   UNK A  1       22.565 -21.294   3.756  0.00  0.00    +0.214 C 
ATOM      8  O   UNK A  1       23.435 -21.415   2.893  0.00  0.00    -0.276 OA
BRANCH   7   9
ATOM      9  C   UNK A  1       21.062 -21.174   3.353  0.00  0.00    +0.098 C 
BRANCH   9  10
ATOM     10  C   UNK A  1       20.052 -20.345   4.221  0.00  0.00    +0.039 C 
BRANCH  10  11
ATOM     11  C   UNK A  1       19.830 -18.857   3.864  0.00  0.00    +0.161 C 
BRANCH  11  12
ATOM     12  N   UNK A  1       19.350 -18.701   2.467  0.00  0.00    -0.318 NA
ATOM     13  H   UNK A  1       18.532 -18.085   2.467  0.00  0.00    +0.119 HD
ATOM     14  H   UNK A  1       18.903 -19.593   2.198  0.00  0.00    +0.119 HD
ENDBRANCH  11  12
BRANCH  11  15
ATOM     15  C   UNK A  1       21.112 -17.982   3.993  0.00  0.00    +0.322 C 
ATOM     16  O   UNK A  1       21.805 -17.865   4.998  0.00  0.00    -0.249 OA
BRANCH  15  17
ATOM     17  O   UNK A  1       21.367 -17.285   2.850  0.00  0.00    -0.479 OA
ATOM     18  H   UNK A  1       20.980 -16.385   2.989  0.00  0.00    +0.295 HD
ENDBRANCH  15  17
ENDBRANCH  11  15
ENDBRANCH  10  11
ENDBRANCH   9  10
ENDBRANCH   7   9
ENDBRANCH   4   5
BRANCH   4  19
ATOM     19  C   UNK A  1       24.690 -20.401   6.578  0.00  0.00    +0.235 C 
ATOM     20  N   GLY A  2       25.972 -20.235   7.026  0.00  0.00    -0.303 N 
ATOM     21  H   GLY A  2       26.096 -19.394   7.577  0.00  0.00    +0.149 HD
ATOM     22  O   UNK A  1       23.831 -19.619   7.002  0.00  0.00    -0.274 OA
BRANCH  20  23
ATOM     23  CA  GLY A  2       27.189 -20.921   6.605  0.00  0.00    +0.224 C 
BRANCH  23  24
ATOM     24  C   GLY A  2       28.355 -20.011   6.296  0.00  0.00    +0.322 C 
ATOM     25  O   GLY A  2       29.306 -19.747   7.062  0.00  0.00    -0.249 OA
BRANCH  24  26
ATOM     26  OXT GLY A  2       28.407 -19.602   5.022  0.00  0.00    -0.479 OA
ATOM     27  HXT GLY A  2       27.597 -19.976   4.615  0.00  0.00    +0.295 HD
ENDBRANCH  24  26
ENDBRANCH  23  24
ENDBRANCH  20  23
ENDBRANCH   4  19
ENDBRANCH   3   4
ENDBRANCH   2   3
ENDBRANCH   1   2
BRANCH   1  28
ATOM     28  C   UNK A  1       26.202 -17.883   3.923  0.00  0.00    +0.112 C 
BRANCH  28  29
ATOM     29  C   UNK A  1       26.266 -16.422   4.482  0.00  0.00    +0.169 C 
BRANCH  29  31
ATOM     30  C   UNK A  1       24.777 -14.394   4.954  0.00  0.00    +0.214 C 
ATOM     31  N   UNK A  1       25.133 -15.488   4.191  0.00  0.00    -0.303 N 
ATOM     32  H   UNK A  1       24.715 -15.560   3.273  0.00  0.00    +0.149 HD
ATOM     33  O   UNK A  1       25.388 -14.049   5.957  0.00  0.00    -0.276 OA
BRANCH  30  34
ATOM     34  C   UNK A  1       23.621 -13.536   4.442  0.00  0.00    +0.098 C 
BRANCH  34  35
ATOM     35  C   UNK A  1       23.968 -12.030   4.243  0.00  0.00    +0.039 C 
BRANCH  35  36
ATOM     36  C   UNK A  1       24.484 -11.595   2.839  0.00  0.00    +0.161 C 
BRANCH  36  37
ATOM     37  N   UNK A  1       23.359 -11.447   1.874  0.00  0.00    -0.318 NA
ATOM     38  H   UNK A  1       22.469 -11.683   2.308  0.00  0.00    +0.119 HD
ATOM     39  H   UNK A  1       23.296 -10.473   1.567  0.00  0.00    +0.119 HD
ENDBRANCH  36  37
BRANCH  36  40
ATOM     40  C   UNK A  1       25.483 -12.610   2.255  0.00  0.00    +0.322 C 
ATOM     41  O   UNK A  1       26.695 -12.425   2.151  0.00  0.00    -0.249 OA
BRANCH  40  42
ATOM     42  O   UNK A  1       24.938 -13.808   1.937  0.00  0.00    -0.479 OA
ATOM     43  H   UNK A  1       25.304 -14.189   1.118  0.00  0.00    +0.295 HD
ENDBRANCH  40  42
ENDBRANCH  36  40
ENDBRANCH  35  36
ENDBRANCH  34  35
ENDBRANCH  30  34
ENDBRANCH  29  31
BRANCH  29  44
ATOM     44  C   UNK A  1       27.679 -15.801   4.206  0.00  0.00    +0.235 C 
ATOM     45  N   GLY A  2       27.773 -14.420   4.256  0.00  0.00    -0.303 N 
ATOM     46  H   GLY A  2       27.011 -13.862   4.606  0.00  0.00    +0.149 HD
ATOM     47  O   UNK A  1       28.692 -16.493   4.093  0.00  0.00    -0.274 OA
BRANCH  45  48
ATOM     48  CA  GLY A  2       29.035 -13.726   3.989  0.00  0.00    +0.224 C 
BRANCH  48  49
ATOM     49  C   GLY A  2       29.019 -12.227   4.243  0.00  0.00    +0.322 C 
ATOM     50  O   GLY A  2       28.929 -11.679   5.337  0.00  0.00    -0.249 OA
BRANCH  49  51
ATOM     51  OXT GLY A  2       29.357 -11.494   3.159  0.00  0.00    -0.479 OA
ATOM     52  HXT GLY A  2       29.084 -10.582   3.404  0.00  0.00    +0.295 HD
ENDBRANCH  49  51
ENDBRANCH  48  49
ENDBRANCH  45  48
ENDBRANCH  29  44
ENDBRANCH  28  29
ENDBRANCH   1  28
TORSDOF 27
ENDMDL
MODEL 2
REMARK VINA RESULT:       7.9      1.964      5.684
REMARK  Name = *****
REMARK                            x       y       z     vdW  Elec       q    Type
REMARK                         _______ _______ _______ _____ _____    ______ ____
ROOT
ATOM      1  S   UNK A  1       25.407 -17.746   3.818  0.00  0.00    -0.091 S 
ENDROOT
BRANCH   1   2
ATOM      2  S   UNK A  1       25.127 -19.397   2.587  0.00  0.00    -0.091 S 
BRANCH   2   3
ATOM      3  C   UNK A  1       23.638 -20.332   3.224  0.00  0.00    +0.112 C 
BRANCH   3   4
ATOM      4  C   UNK A  1       22.319 -19.534   3.390  0.00  0.00    +0.169 C 
BRANCH   4   5
ATOM      5  N   UNK A  1       22.457 -18.302   4.272  0.00  0.00    -0.303 N 
ATOM      6  H   UNK A  1       23.100 -18.396   5.052  0.00  0.00    +0.149 HD
ATOM      7  C   UNK A  1       21.466 -17.342   4.395  0.00  0.00    +0.214 C 
ATOM      8  O   UNK A  1       20.408 -17.450   3.774  0.00  0.00    -0.276 OA
BRANCH   7   9
ATOM      9  C   UNK A  1       21.676 -16.169   5.403  0.00  0.00    +0.098 C 
BRANCH   9  10
ATOM     10  C   UNK A  1       23.083 -15.502   5.594  0.00  0.00    +0.039 C 
BRANCH  10  11
ATOM     11  C   UNK A  1       23.423 -14.256   4.745  0.00  0.00    +0.161 C 
BRANCH  11  12
ATOM     12  N   UNK A  1       24.007 -14.636   3.434  0.00  0.00    -0.318 NA
ATOM     13  H   UNK A  1       24.337 -15.604   3.489  0.00  0.00    +0.119 HD
ATOM     14  H   UNK A  1       24.910 -14.142   3.349  0.00  0.00    +0.119 HD
ENDBRANCH  11  12
BRANCH  11  15
ATOM     15  C   UNK A  1       24.444 -13.294   5.423  0.00  0.00    +0.322 C 
ATOM     16  O   UNK A  1       25.652 -13.483   5.527  0.00  0.00    -0.249 OA
BRANCH  15  17
ATOM     17  O   UNK A  1       23.832 -12.202   5.962  0.00  0.00    -0.479 OA
ATOM     18  H   UNK A  1       23.592 -12.455   6.888  0.00  0.00    +0.295 HD
ENDBRANCH  15  17
ENDBRANCH  11  15
ENDBRANCH  10  11
ENDBRANCH   9  10
ENDBRANCH   7   9
ENDBRANCH   4   5
BRANCH   4  19
ATOM     19  C   UNK A  1       21.271 -20.498   4.009  0.00  0.00    +0.235 C 
ATOM     20  N   GLY A  2       21.621 -21.415   4.961  0.00  0.00    -0.303 N 
ATOM     21  H   GLY A  2       20.827 -21.913   5.347  0.00  0.00    +0.149 HD
ATOM     22  O   UNK A  1       20.092 -20.483   3.635  0.00  0.00    -0.274 OA
BRANCH  20  23
ATOM     23  CA  GLY A  2       22.889 -21.572   5.666  0.00  0.00    +0.224 C 
BRANCH  23  24
ATOM     24  C   GLY A  2       23.455 -20.296   6.243  0.00  0.00    +0.322 C 
ATOM     25  O   GLY A  2       22.819 -19.247   6.477  0.00  0.00    -0.249 OA
BRANCH  24  26
ATOM     26  OXT GLY A  2       24.720 -20.404   6.669  0.00  0.00    -0.479 OA
ATOM     27  HXT GLY A  2       25.258 -20.089   5.913  0.00  0.00    +0.295 HD
ENDBRANCH  24  26
ENDBRANCH  23  24
ENDBRANCH  20  23
ENDBRANCH   4  19
ENDBRANCH   3   4
ENDBRANCH   2   3
ENDBRANCH   1   2
BRANCH   1  28
ATOM     28  C   UNK A  1       26.291 -16.556   2.689  0.00  0.00    +0.112 C 
BRANCH  28  29
ATOM     29  C   UNK A  1       27.567 -15.828   3.229  0.00  0.00    +0.169 C 
BRANCH  29  31
ATOM     30  C   UNK A  1       28.201 -17.472   5.086  0.00  0.00    +0.214 C 
ATOM     31  N   UNK A  1       28.084 -16.190   4.585  0.00  0.00    -0.303 N 
ATOM     32  H   UNK A  1       28.549 -15.455   5.102  0.00  0.00    +0.149 HD
ATOM     33  O   UNK A  1       27.914 -18.472   4.439  0.00  0.00    -0.276 OA
BRANCH  30  34
ATOM     34  C   UNK A  1       28.811 -17.622   6.478  0.00  0.00    +0.098 C 
BRANCH  34  35
ATOM     35  C   UNK A  1       29.475 -19.005   6.750  0.00  0.00    +0.039 C 
BRANCH  35  36
ATOM     36  C   UNK A  1       28.529 -20.206   7.047  0.00  0.00    +0.161 C 
BRANCH  36  37
ATOM     37  N   UNK A  1       29.264 -21.500   6.979  0.00  0.00    -0.318 NA
ATOM     38  H   UNK A  1       28.619 -22.287   6.958  0.00  0.00    +0.119 HD
ATOM     39  H   UNK A  1       29.814 -21.537   6.117  0.00  0.00    +0.119 HD
ENDBRANCH  36  37
BRANCH  36  40
ATOM     40  C   UNK A  1       27.355 -20.270   6.053  0.00  0.00    +0.322 C 
ATOM     41  O   UNK A  1       26.827 -21.308   5.654  0.00  0.00    -0.249 OA
BRANCH  40  42
ATOM     42  O   UNK A  1       26.855 -19.061   5.703  0.00  0.00    -0.479 OA
ATOM     43  H   UNK A  1       26.669 -18.987   4.750  0.00  0.00    +0.295 HD
ENDBRANCH  40  42
ENDBRANCH  36  40
ENDBRANCH  35  36
ENDBRANCH  34  35
ENDBRANCH  30  34
ENDBRANCH  29  31
BRANCH  29  44
ATOM     44  C   UNK A  1       27.445 -14.282   2.994  0.00  0.00    +0.235 C 
ATOM     45  N   GLY A  2       26.374 -13.852   2.229  0.00  0.00    -0.303 N 
ATOM     46  H   GLY A  2       25.633 -14.484   1.974  0.00  0.00    +0.149 HD
ATOM     47  O   UNK A  1       28.167 -13.469   3.573  0.00  0.00    -0.274 OA
BRANCH  45  48
ATOM     48  CA  GLY A  2       26.172 -12.434   1.921  0.00  0.00    +0.224 C 
BRANCH  48  49
ATOM     49  C   GLY A  2       24.870 -11.837   2.434  0.00  0.00    +0.322 C 
ATOM     50  O   GLY A  2       23.789 -11.854   1.854  0.00  0.00    -0.249 OA
BRANCH  49  51
ATOM     51  OXT GLY A  2       24.923 -11.469   3.733  0.00  0.00    -0.479 OA
ATOM     52  HXT GLY A  2       25.803 -11.792   4.027  0.00  0.00    +0.295 HD
ENDBRANCH  49  51
ENDBRANCH  48  49
ENDBRANCH  45  48
ENDBRANCH  29  44
ENDBRANCH  28  29
ENDBRANCH   1  28
TORSDOF 27
ENDMDL
