MODEL 1
REMARK VINA RESULT:      -7.3      0.000      0.000
REMARK  Name = *****
REMARK                            x       y       z     vdW  Elec       q    Type
REMARK                         _______ _______ _______ _____ _____    ______ ____
ROOT
ATOM      1  C   LIG    1       25.213 -20.859   4.765  0.00  0.00    +0.328 C 
ATOM      2  N   LIG    1       24.380 -21.914   5.318  0.00  0.00    -0.208 N 
ATOM      3  C   LIG    1       23.052 -21.500   5.457  0.00  0.00    +0.275 C 
ATOM      4  O   LIG    1       22.080 -22.085   5.902  0.00  0.00    -0.268 OA
ATOM      5  C   LIG    1       22.975 -20.136   4.917  0.00  0.00    +0.152 A 
ATOM      6  N   LIG    1       21.869 -19.374   4.815  0.00  0.00    -0.247 NA
ATOM      7  C   LIG    1       22.102 -18.166   4.245  0.00  0.00    +0.131 A 
ATOM      8  C   LIG    1       23.367 -17.764   3.813  0.00  0.00    +0.131 A 
ATOM      9  N   LIG    1       24.470 -18.548   3.929  0.00  0.00    -0.251 NA
ATOM     10  C   LIG    1       24.226 -19.754   4.491  0.00  0.00    +0.131 A 
ENDROOT
BRANCH   2  11
ATOM     11  C   LIG    1       24.868 -23.179   5.706  0.00  0.00    +0.131 A 
ATOM     12  N   LIG    1       24.882 -24.165   4.787  0.00  0.00    -0.238 NA
ATOM     13  C   LIG    1       25.339 -25.390   5.140  0.00  0.00    +0.133 A 
ATOM     14  C   LIG    1       25.804 -25.696   6.402  0.00  0.00    +0.059 A 
ATOM     15 CL   LIG    1       26.369 -27.268   6.786  0.00  0.00    -0.082 Cl
ATOM     16  C   LIG    1       25.800 -24.688   7.353  0.00  0.00    +0.025 A 
ATOM     17  C   LIG    1       25.326 -23.417   7.004  0.00  0.00    +0.045 A 
ENDBRANCH   2  11
BRANCH   1  18
ATOM     18  O   LIG    1       26.116 -20.446   5.780  0.00  0.00    -0.422 OA
BRANCH  18  24
ATOM     19  C   LIG    1       30.818 -20.315   8.725  0.00  0.00    +0.105 C 
ATOM     20  N   LIG    1       29.639 -19.511   8.414  0.00  0.00    -0.302 NA
ATOM     21  C   LIG    1       29.796 -18.778   7.133  0.00  0.00    +0.103 C 
ATOM     22  C   LIG    1       29.620 -19.641   5.863  0.00  0.00    +0.126 C 
ATOM     23  N   LIG    1       28.367 -20.387   5.942  0.00  0.00    -0.265 N 
ATOM     24  C   LIG    1       27.244 -19.837   5.354  0.00  0.00    +0.405 C 
ATOM     25  O   LIG    1       27.257 -18.924   4.535  0.00  0.00    -0.226 OA
ATOM     26  C   LIG    1       28.247 -21.217   7.142  0.00  0.00    +0.126 C 
ATOM     27  C   LIG    1       28.410 -20.339   8.399  0.00  0.00    +0.103 C 
ENDBRANCH  18  24
ENDBRANCH   1  18
TORSDOF 3
ENDMDL
MODEL 2
REMARK VINA RESULT:      -6.7      6.618     10.232
REMARK  Name = *****
REMARK                            x       y       z     vdW  Elec       q    Type
REMARK                         _______ _______ _______ _____ _____    ______ ____
ROOT
ATOM      1  C   LIG    1       24.352 -29.926   8.030  0.00  0.00    +0.328 C 
ATOM      2  N   LIG    1       24.829 -29.312   6.802  0.00  0.00    -0.208 N 
ATOM      3  C   LIG    1       25.210 -30.274   5.861  0.00  0.00    +0.275 C 
ATOM      4  O   LIG    1       25.679 -30.150   4.744  0.00  0.00    -0.268 OA
ATOM      5  C   LIG    1       24.918 -31.585   6.455  0.00  0.00    +0.152 A 
ATOM      6  N   LIG    1       25.092 -32.787   5.871  0.00  0.00    -0.247 NA
ATOM      7  C   LIG    1       24.702 -33.823   6.655  0.00  0.00    +0.131 A 
ATOM      8  C   LIG    1       24.177 -33.648   7.937  0.00  0.00    +0.131 A 
ATOM      9  N   LIG    1       24.014 -32.426   8.507  0.00  0.00    -0.251 NA
ATOM     10  C   LIG    1       24.398 -31.399   7.715  0.00  0.00    +0.131 A 
ENDROOT
BRANCH   2  11
ATOM     11  C   LIG    1       24.935 -27.919   6.609  0.00  0.00    +0.131 A 
ATOM     12  N   LIG    1       23.995 -27.307   5.860  0.00  0.00    -0.238 NA
ATOM     13  C   LIG    1       24.081 -25.972   5.655  0.00  0.00    +0.133 A 
ATOM     14  C   LIG    1       25.085 -25.183   6.178  0.00  0.00    +0.059 A 
ATOM     15 CL   LIG    1       25.138 -23.495   5.880  0.00  0.00    -0.082 Cl
ATOM     16  C   LIG    1       26.053 -25.801   6.954  0.00  0.00    +0.025 A 
ATOM     17  C   LIG    1       25.980 -27.182   7.172  0.00  0.00    +0.045 A 
ENDBRANCH   2  11
BRANCH   1  18
ATOM     18  O   LIG    1       25.291 -29.631   9.053  0.00  0.00    -0.422 OA
BRANCH  18  24
ATOM     19  C   LIG    1       28.441 -28.995  13.577  0.00  0.00    +0.105 C 
ATOM     20  N   LIG    1       27.721 -30.013  12.817  0.00  0.00    -0.302 NA
ATOM     21  C   LIG    1       26.282 -30.051  13.176  0.00  0.00    +0.103 C 
ATOM     22  C   LIG    1       25.431 -28.910  12.573  0.00  0.00    +0.126 C 
ATOM     23  N   LIG    1       25.656 -28.832  11.132  0.00  0.00    -0.265 N 
ATOM     24  C   LIG    1       24.786 -29.509  10.300  0.00  0.00    +0.405 C 
ATOM     25  O   LIG    1       23.685 -29.935  10.633  0.00  0.00    -0.226 OA
ATOM     26  C   LIG    1       27.063 -28.668  10.761  0.00  0.00    +0.126 C 
ATOM     27  C   LIG    1       27.895 -29.822  11.358  0.00  0.00    +0.103 C 
ENDBRANCH  18  24
ENDBRANCH   1  18
TORSDOF 3
ENDMDL
MODEL 3
REMARK VINA RESULT:      -6.5      2.775      5.426
REMARK  Name = *****
REMARK                            x       y       z     vdW  Elec       q    Type
REMARK                         _______ _______ _______ _____ _____    ______ ____
ROOT
ATOM      1  C   LIG    1       25.309 -23.706   6.814  0.00  0.00    +0.328 C 
ATOM      2  N   LIG    1       24.745 -23.294   5.540  0.00  0.00    -0.208 N 
ATOM      3  C   LIG    1       24.786 -24.329   4.601  0.00  0.00    +0.275 C 
ATOM      4  O   LIG    1       24.438 -24.357   3.434  0.00  0.00    -0.268 OA
ATOM      5  C   LIG    1       25.339 -25.503   5.289  0.00  0.00    +0.152 A 
ATOM      6  N   LIG    1       25.513 -26.732   4.766  0.00  0.00    -0.247 NA
ATOM      7  C   LIG    1       26.017 -27.624   5.654  0.00  0.00    +0.131 A 
ATOM      8  C   LIG    1       26.323 -27.289   6.974  0.00  0.00    +0.131 A 
ATOM      9  N   LIG    1       26.143 -26.041   7.479  0.00  0.00    -0.251 NA
ATOM     10  C   LIG    1       25.633 -25.160   6.589  0.00  0.00    +0.131 A 
ENDROOT
BRANCH   2  11
ATOM     11  C   LIG    1       24.262 -21.995   5.278  0.00  0.00    +0.131 A 
ATOM     12  N   LIG    1       24.817 -21.303   4.262  0.00  0.00    -0.238 NA
ATOM     13  C   LIG    1       24.374 -20.051   3.997  0.00  0.00    +0.133 A 
ATOM     14  C   LIG    1       23.369 -19.430   4.710  0.00  0.00    +0.059 A 
ATOM     15 CL   LIG    1       22.854 -17.841   4.324  0.00  0.00    -0.082 Cl
ATOM     16  C   LIG    1       22.788 -20.135   5.752  0.00  0.00    +0.025 A 
ATOM     17  C   LIG    1       23.238 -21.430   6.042  0.00  0.00    +0.045 A 
ENDBRANCH   2  11
BRANCH   1  18
ATOM     18  O   LIG    1       26.512 -22.978   7.009  0.00  0.00    -0.422 OA
BRANCH  18  24
ATOM     19  C   LIG    1       29.772 -18.488   6.926  0.00  0.00    +0.105 C 
ATOM     20  N   LIG    1       29.663 -19.813   7.530  0.00  0.00    -0.302 NA
ATOM     21  C   LIG    1       28.778 -19.802   8.721  0.00  0.00    +0.103 C 
ATOM     22  C   LIG    1       27.266 -19.753   8.408  0.00  0.00    +0.126 C 
ATOM     23  N   LIG    1       26.923 -20.803   7.454  0.00  0.00    -0.265 N 
ATOM     24  C   LIG    1       26.470 -22.011   7.951  0.00  0.00    +0.405 C 
ATOM     25  O   LIG    1       26.062 -22.190   9.094  0.00  0.00    -0.226 OA
ATOM     26  C   LIG    1       27.701 -20.755   6.215  0.00  0.00    +0.126 C 
ATOM     27  C   LIG    1       29.206 -20.821   6.545  0.00  0.00    +0.103 C 
ENDBRANCH  18  24
ENDBRANCH   1  18
TORSDOF 3
ENDMDL
MODEL 4
REMARK VINA RESULT:      -6.2      9.519     11.831
REMARK  Name = *****
REMARK                            x       y       z     vdW  Elec       q    Type
REMARK                         _______ _______ _______ _____ _____    ______ ____
ROOT
ATOM      1  C   LIG    1       26.611 -28.537  11.938  0.00  0.00    +0.328 C 
ATOM      2  N   LIG    1       25.747 -28.468  13.104  0.00  0.00    -0.208 N 
ATOM      3  C   LIG    1       26.398 -28.924  14.254  0.00  0.00    +0.275 C 
ATOM      4  O   LIG    1       25.999 -29.041  15.399  0.00  0.00    -0.268 OA
ATOM      5  C   LIG    1       27.774 -29.251  13.860  0.00  0.00    +0.152 A 
ATOM      6  N   LIG    1       28.760 -29.685  14.669  0.00  0.00    -0.247 NA
ATOM      7  C   LIG    1       29.937 -29.875  14.023  0.00  0.00    +0.131 A 
ATOM      8  C   LIG    1       30.098 -29.642  12.656  0.00  0.00    +0.131 A 
ATOM      9  N   LIG    1       29.089 -29.207  11.858  0.00  0.00    -0.251 NA
ATOM     10  C   LIG    1       27.921 -29.013  12.512  0.00  0.00    +0.131 A 
ENDROOT
BRANCH   2  11
ATOM     11  C   LIG    1       24.405 -28.037  13.062  0.00  0.00    +0.131 A 
ATOM     12  N   LIG    1       24.132 -26.767  13.421  0.00  0.00    -0.238 NA
ATOM     13  C   LIG    1       22.849 -26.333  13.397  0.00  0.00    +0.133 A 
ATOM     14  C   LIG    1       21.785 -27.124  13.016  0.00  0.00    +0.059 A 
ATOM     15 CL   LIG    1       20.182 -26.516  13.008  0.00  0.00    -0.082 Cl
ATOM     16  C   LIG    1       22.054 -28.431  12.640  0.00  0.00    +0.025 A 
ATOM     17  C   LIG    1       23.376 -28.894  12.664  0.00  0.00    +0.045 A 
ENDBRANCH   2  11
BRANCH   1  18
ATOM     18  O   LIG    1       26.086 -29.531  11.070  0.00  0.00    -0.422 OA
BRANCH  18  24
ATOM     19  C   LIG    1       23.598 -32.653   7.216  0.00  0.00    +0.105 C 
ATOM     20  N   LIG    1       24.909 -32.385   7.801  0.00  0.00    -0.302 NA
ATOM     21  C   LIG    1       25.552 -31.197   7.185  0.00  0.00    +0.103 C 
ATOM     22  C   LIG    1       24.993 -29.836   7.658  0.00  0.00    +0.126 C 
ATOM     23  N   LIG    1       24.982 -29.785   9.117  0.00  0.00    -0.265 N 
ATOM     24  C   LIG    1       26.068 -29.216   9.757  0.00  0.00    +0.405 C 
ATOM     25  O   LIG    1       26.905 -28.501   9.215  0.00  0.00    -0.226 OA
ATOM     26  C   LIG    1       24.244 -30.884   9.743  0.00  0.00    +0.126 C 
ATOM     27  C   LIG    1       24.823 -32.233   9.272  0.00  0.00    +0.103 C 
ENDBRANCH  18  24
ENDBRANCH   1  18
TORSDOF 3
ENDMDL
MODEL 5
REMARK VINA RESULT:      -6.1      2.556      5.874
REMARK  Name = *****
REMARK                            x       y       z     vdW  Elec       q    Type
REMARK                         _______ _______ _______ _____ _____    ______ ____
ROOT
ATOM      1  C   LIG    1       24.954 -22.015   6.552  0.00  0.00    +0.328 C 
ATOM      2  N   LIG    1       25.653 -20.851   6.035  0.00  0.00    -0.208 N 
ATOM      3  C   LIG    1       24.845 -20.111   5.166  0.00  0.00    +0.275 C 
ATOM      4  O   LIG    1       25.084 -19.103   4.525  0.00  0.00    -0.268 OA
ATOM      5  C   LIG    1       23.531 -20.766   5.148  0.00  0.00    +0.152 A 
ATOM      6  N   LIG    1       22.439 -20.357   4.474  0.00  0.00    -0.247 NA
ATOM      7  C   LIG    1       21.358 -21.150   4.676  0.00  0.00    +0.131 A 
ATOM      8  C   LIG    1       21.387 -22.275   5.502  0.00  0.00    +0.131 A 
ATOM      9  N   LIG    1       22.501 -22.672   6.170  0.00  0.00    -0.251 NA
ATOM     10  C   LIG    1       23.572 -21.870   5.968  0.00  0.00    +0.131 A 
ENDROOT
BRANCH   2  11
ATOM     11  C   LIG    1       26.994 -20.540   6.340  0.00  0.00    +0.131 A 
ATOM     12  N   LIG    1       27.717 -19.870   5.419  0.00  0.00    -0.238 NA
ATOM     13  C   LIG    1       29.010 -19.568   5.687  0.00  0.00    +0.133 A 
ATOM     14  C   LIG    1       29.643 -19.903   6.866  0.00  0.00    +0.059 A 
ATOM     15 CL   LIG    1       31.284 -19.491   7.144  0.00  0.00    -0.082 Cl
ATOM     16  C   LIG    1       28.907 -20.587   7.821  0.00  0.00    +0.025 A 
ATOM     17  C   LIG    1       27.570 -20.911   7.557  0.00  0.00    +0.045 A 
ENDBRANCH   2  11
BRANCH   1  18
ATOM     18  O   LIG    1       25.578 -23.169   6.010  0.00  0.00    -0.422 OA
BRANCH  18  24
ATOM     19  C   LIG    1       24.755 -28.583   5.111  0.00  0.00    +0.105 C 
ATOM     20  N   LIG    1       24.162 -27.431   5.784  0.00  0.00    -0.302 NA
ATOM     21  C   LIG    1       24.768 -27.203   7.119  0.00  0.00    +0.103 C 
ATOM     22  C   LIG    1       26.167 -26.547   7.095  0.00  0.00    +0.126 C 
ATOM     23  N   LIG    1       26.135 -25.342   6.271  0.00  0.00    -0.265 N 
ATOM     24  C   LIG    1       25.913 -24.130   6.899  0.00  0.00    +0.405 C 
ATOM     25  O   LIG    1       26.022 -23.935   8.105  0.00  0.00    -0.226 OA
ATOM     26  C   LIG    1       25.656 -25.570   4.907  0.00  0.00    +0.126 C 
ATOM     27  C   LIG    1       24.254 -26.211   4.949  0.00  0.00    +0.103 C 
ENDBRANCH  18  24
ENDBRANCH   1  18
TORSDOF 3
ENDMDL
MODEL 6
REMARK VINA RESULT:      -6.0      9.660     11.345
REMARK  Name = *****
REMARK                            x       y       z     vdW  Elec       q    Type
REMARK                         _______ _______ _______ _____ _____    ______ ____
ROOT
ATOM      1  C   LIG    1       24.441 -29.379  12.514  0.00  0.00    +0.328 C 
ATOM      2  N   LIG    1       25.498 -28.494  12.973  0.00  0.00    -0.208 N 
ATOM      3  C   LIG    1       24.996 -27.242  13.341  0.00  0.00    +0.275 C 
ATOM      4  O   LIG    1       25.568 -26.244  13.743  0.00  0.00    -0.268 OA
ATOM      5  C   LIG    1       23.537 -27.309  13.186  0.00  0.00    +0.152 A 
ATOM      6  N   LIG    1       22.654 -26.333  13.473  0.00  0.00    -0.247 NA
ATOM      7  C   LIG    1       21.366 -26.697  13.256  0.00  0.00    +0.131 A 
ATOM      8  C   LIG    1       21.005 -27.959  12.780  0.00  0.00    +0.131 A 
ATOM      9  N   LIG    1       21.914 -28.927  12.493  0.00  0.00    -0.251 NA
ATOM     10  C   LIG    1       23.195 -28.557  12.720  0.00  0.00    +0.131 A 
ENDROOT
BRANCH   2  11
ATOM     11  C   LIG    1       26.863 -28.847  12.996  0.00  0.00    +0.131 A 
ATOM     12  N   LIG    1       27.445 -29.063  14.193  0.00  0.00    -0.238 NA
ATOM     13  C   LIG    1       28.757 -29.394  14.240  0.00  0.00    +0.133 A 
ATOM     14  C   LIG    1       29.549 -29.533  13.119  0.00  0.00    +0.059 A 
ATOM     15 CL   LIG    1       31.206 -29.954  13.246  0.00  0.00    -0.082 Cl
ATOM     16  C   LIG    1       28.960 -29.318  11.883  0.00  0.00    +0.025 A 
ATOM     17  C   LIG    1       27.605 -28.970  11.818  0.00  0.00    +0.045 A 
ENDBRANCH   2  11
BRANCH   1  18
ATOM     18  O   LIG    1       24.636 -29.601  11.125  0.00  0.00    -0.422 OA
BRANCH  18  24
ATOM     19  C   LIG    1       24.874 -31.134   5.797  0.00  0.00    +0.105 C 
ATOM     20  N   LIG    1       23.920 -30.873   6.872  0.00  0.00    -0.302 NA
ATOM     21  C   LIG    1       23.751 -32.053   7.755  0.00  0.00    +0.103 C 
ATOM     22  C   LIG    1       24.907 -32.290   8.754  0.00  0.00    +0.126 C 
ATOM     23  N   LIG    1       25.182 -31.061   9.492  0.00  0.00    -0.265 N 
ATOM     24  C   LIG    1       24.567 -30.886  10.717  0.00  0.00    +0.405 C 
ATOM     25  O   LIG    1       24.037 -31.780  11.369  0.00  0.00    -0.226 OA
ATOM     26  C   LIG    1       25.476 -29.909   8.637  0.00  0.00    +0.126 C 
ATOM     27  C   LIG    1       24.307 -29.678   7.658  0.00  0.00    +0.103 C 
ENDBRANCH  18  24
ENDBRANCH   1  18
TORSDOF 3
ENDMDL
MODEL 7
REMARK VINA RESULT:      -5.8      9.468     11.316
REMARK  Name = *****
REMARK                            x       y       z     vdW  Elec       q    Type
REMARK                         _______ _______ _______ _____ _____    ______ ____
ROOT
ATOM      1  C   LIG    1       24.652 -29.565  12.340  0.00  0.00    +0.328 C 
ATOM      2  N   LIG    1       24.474 -28.284  13.001  0.00  0.00    -0.208 N 
ATOM      3  C   LIG    1       23.132 -27.888  13.002  0.00  0.00    +0.275 C 
ATOM      4  O   LIG    1       22.602 -26.878  13.430  0.00  0.00    -0.268 OA
ATOM      5  C   LIG    1       22.370 -28.976  12.375  0.00  0.00    +0.152 A 
ATOM      6  N   LIG    1       21.034 -29.028  12.210  0.00  0.00    -0.247 NA
ATOM      7  C   LIG    1       20.613 -30.176  11.624  0.00  0.00    +0.131 A 
ATOM      8  C   LIG    1       21.486 -31.193  11.234  0.00  0.00    +0.131 A 
ATOM      9  N   LIG    1       22.831 -31.117  11.407  0.00  0.00    -0.251 NA
ATOM     10  C   LIG    1       23.241 -29.972  11.999  0.00  0.00    +0.131 A 
ENDROOT
BRANCH   2  11
ATOM     11  C   LIG    1       25.533 -27.519  13.532  0.00  0.00    +0.131 A 
ATOM     12  N   LIG    1       26.100 -27.930  14.684  0.00  0.00    -0.238 NA
ATOM     13  C   LIG    1       27.114 -27.206  15.216  0.00  0.00    +0.133 A 
ATOM     14  C   LIG    1       27.615 -26.057  14.640  0.00  0.00    +0.059 A 
ATOM     15 CL   LIG    1       28.901 -25.186  15.364  0.00  0.00    -0.082 Cl
ATOM     16  C   LIG    1       27.043 -25.629  13.452  0.00  0.00    +0.025 A 
ATOM     17  C   LIG    1       25.991 -26.364  12.891  0.00  0.00    +0.045 A 
ENDBRANCH   2  11
BRANCH   1  18
ATOM     18  O   LIG    1       25.380 -29.336  11.143  0.00  0.00    -0.422 OA
BRANCH  18  24
ATOM     19  C   LIG    1       25.201 -30.757   5.782  0.00  0.00    +0.105 C 
ATOM     20  N   LIG    1       24.595 -31.076   7.072  0.00  0.00    -0.302 NA
ATOM     21  C   LIG    1       25.424 -32.034   7.846  0.00  0.00    +0.103 C 
ATOM     22  C   LIG    1       26.675 -31.419   8.514  0.00  0.00    +0.126 C 
ATOM     23  N   LIG    1       26.295 -30.241   9.289  0.00  0.00    -0.265 N 
ATOM     24  C   LIG    1       26.031 -30.405  10.635  0.00  0.00    +0.405 C 
ATOM     25  O   LIG    1       26.356 -31.384  11.299  0.00  0.00    -0.226 OA
ATOM     26  C   LIG    1       25.583 -29.226   8.510  0.00  0.00    +0.126 C 
ATOM     27  C   LIG    1       24.331 -29.851   7.863  0.00  0.00    +0.103 C 
ENDBRANCH  18  24
ENDBRANCH   1  18
TORSDOF 3
ENDMDL
MODEL 8
REMARK VINA RESULT:      -5.7      9.385     12.097
REMARK  Name = *****
REMARK                            x       y       z     vdW  Elec       q    Type
REMARK                         _______ _______ _______ _____ _____    ______ ____
ROOT
ATOM      1  C   LIG    1       24.617 -30.634  10.454  0.00  0.00    +0.328 C 
ATOM      2  N   LIG    1       25.486 -30.074   9.433  0.00  0.00    -0.208 N 
ATOM      3  C   LIG    1       26.198 -28.970   9.913  0.00  0.00    +0.275 C 
ATOM      4  O   LIG    1       26.990 -28.232   9.355  0.00  0.00    -0.268 OA
ATOM      5  C   LIG    1       25.842 -28.822  11.330  0.00  0.00    +0.152 A 
ATOM      6  N   LIG    1       26.334 -27.908  12.189  0.00  0.00    -0.247 NA
ATOM      7  C   LIG    1       25.839 -28.036  13.446  0.00  0.00    +0.131 A 
ATOM      8  C   LIG    1       24.914 -29.019  13.800  0.00  0.00    +0.131 A 
ATOM      9  N   LIG    1       24.429 -29.929  12.915  0.00  0.00    -0.251 NA
ATOM     10  C   LIG    1       24.933 -29.798  11.667  0.00  0.00    +0.131 A 
ENDROOT
BRANCH   2  11
ATOM     11  C   LIG    1       25.562 -30.560   8.111  0.00  0.00    +0.131 A 
ATOM     12  N   LIG    1       26.280 -31.678   7.885  0.00  0.00    -0.238 NA
ATOM     13  C   LIG    1       26.373 -32.159   6.622  0.00  0.00    +0.133 A 
ATOM     14  C   LIG    1       25.763 -31.569   5.534  0.00  0.00    +0.059 A 
ATOM     15 CL   LIG    1       25.920 -32.228   3.960  0.00  0.00    -0.082 Cl
ATOM     16  C   LIG    1       25.017 -30.422   5.757  0.00  0.00    +0.025 A 
ATOM     17  C   LIG    1       24.915 -29.910   7.057  0.00  0.00    +0.045 A 
ENDBRANCH   2  11
BRANCH   1  18
ATOM     18  O   LIG    1       23.275 -30.399  10.054  0.00  0.00    -0.422 OA
BRANCH  18  24
ATOM     19  C   LIG    1       18.767 -31.675  13.028  0.00  0.00    +0.105 C 
ATOM     20  N   LIG    1       20.191 -31.981  12.919  0.00  0.00    -0.302 NA
ATOM     21  C   LIG    1       20.453 -33.014  11.886  0.00  0.00    +0.103 C 
ATOM     22  C   LIG    1       20.386 -32.508  10.427  0.00  0.00    +0.126 C 
ATOM     23  N   LIG    1       21.227 -31.324  10.275  0.00  0.00    -0.265 N 
ATOM     24  C   LIG    1       22.525 -31.500   9.832  0.00  0.00    +0.405 C 
ATOM     25  O   LIG    1       22.948 -32.515   9.289  0.00  0.00    -0.226 OA
ATOM     26  C   LIG    1       20.901 -30.241  11.205  0.00  0.00    +0.126 C 
ATOM     27  C   LIG    1       20.987 -30.759  12.655  0.00  0.00    +0.103 C 
ENDBRANCH  18  24
ENDBRANCH   1  18
TORSDOF 3
ENDMDL
MODEL 9
REMARK VINA RESULT:      -5.7      9.616     11.837
REMARK  Name = *****
REMARK                            x       y       z     vdW  Elec       q    Type
REMARK                         _______ _______ _______ _____ _____    ______ ____
ROOT
ATOM      1  C   LIG    1       25.174 -29.677  10.570  0.00  0.00    +0.328 C 
ATOM      2  N   LIG    1       24.282 -30.358  11.494  0.00  0.00    -0.208 N 
ATOM      3  C   LIG    1       24.956 -30.768  12.649  0.00  0.00    +0.275 C 
ATOM      4  O   LIG    1       24.559 -31.382  13.623  0.00  0.00    -0.268 OA
ATOM      5  C   LIG    1       26.338 -30.288  12.526  0.00  0.00    +0.152 A 
ATOM      6  N   LIG    1       27.320 -30.427  13.437  0.00  0.00    -0.247 NA
ATOM      7  C   LIG    1       28.488 -29.852  13.056  0.00  0.00    +0.131 A 
ATOM      8  C   LIG    1       28.644 -29.187  11.839  0.00  0.00    +0.131 A 
ATOM      9  N   LIG    1       27.640 -29.062  10.932  0.00  0.00    -0.251 NA
ATOM     10  C   LIG    1       26.477 -29.632  11.324  0.00  0.00    +0.131 A 
ENDROOT
BRANCH   2  11
ATOM     11  C   LIG    1       22.920 -30.610  11.230  0.00  0.00    +0.131 A 
ATOM     12  N   LIG    1       22.607 -31.668  10.455  0.00  0.00    -0.238 NA
ATOM     13  C   LIG    1       21.306 -31.925  10.182  0.00  0.00    +0.133 A 
ATOM     14  C   LIG    1       20.261 -31.161  10.660  0.00  0.00    +0.059 A 
ATOM     15 CL   LIG    1       18.634 -31.539  10.277  0.00  0.00    -0.082 Cl
ATOM     16  C   LIG    1       20.572 -30.074  11.463  0.00  0.00    +0.025 A 
ATOM     17  C   LIG    1       21.913 -29.793  11.750  0.00  0.00    +0.045 A 
ENDBRANCH   2  11
BRANCH   1  18
ATOM     18  O   LIG    1       25.319 -30.503   9.423  0.00  0.00    -0.422 OA
BRANCH  18  24
ATOM     19  C   LIG    1       24.778 -33.230   4.621  0.00  0.00    +0.105 C 
ATOM     20  N   LIG    1       25.773 -32.548   5.445  0.00  0.00    -0.302 NA
ATOM     21  C   LIG    1       25.754 -31.080   5.224  0.00  0.00    +0.103 C 
ATOM     22  C   LIG    1       24.585 -30.334   5.907  0.00  0.00    +0.126 C 
ATOM     23  N   LIG    1       24.523 -30.699   7.320  0.00  0.00    -0.265 N 
ATOM     24  C   LIG    1       25.171 -29.886   8.231  0.00  0.00    +0.405 C 
ATOM     25  O   LIG    1       25.554 -28.743   8.003  0.00  0.00    -0.226 OA
ATOM     26  C   LIG    1       24.415 -32.140   7.555  0.00  0.00    +0.126 C 
ATOM     27  C   LIG    1       25.596 -32.867   6.880  0.00  0.00    +0.103 C 
ENDBRANCH  18  24
ENDBRANCH   1  18
TORSDOF 3
ENDMDL
