MODEL 1
REMARK VINA RESULT:      -7.9      0.000      0.000
REMARK  Name = *****
REMARK                            x       y       z     vdW  Elec       q    Type
REMARK                         _______ _______ _______ _____ _____    ______ ____
ROOT
ATOM      1  C   LIG    1       25.421 -21.813   6.149  0.00  0.00    +0.183 C 
ATOM      2  C   LIG    1       26.267 -21.035   7.182  0.00  0.00    +0.008 C 
ATOM      3  C   LIG    1       25.357 -20.304   8.209  0.00  0.00    +0.015 C 
ATOM      4  C   LIG    1       26.994 -19.988   6.287  0.00  0.00    +0.002 C 
ATOM      5  C   LIG    1       28.420 -20.368   5.822  0.00  0.00    -0.003 C 
ATOM      6  C   LIG    1       29.284 -21.057   6.897  0.00  0.00    +0.002 C 
ATOM      7  C   LIG    1       28.521 -22.297   7.388  0.00  0.00    +0.005 C 
ATOM      8  C   LIG    1       29.948 -20.120   7.983  0.00  0.00    -0.007 C 
ATOM      9  C   LIG    1       31.030 -20.964   8.717  0.00  0.00    +0.016 C 
ATOM     10  C   LIG    1       30.550 -18.883   7.297  0.00  0.00    -0.060 C 
ATOM     11  C   LIG    1       31.397 -18.091   7.988  0.00  0.00    +0.046 C 
ATOM     12  C   LIG    1       30.637 -17.501   9.155  0.00  0.00    +0.156 C 
ATOM     13  O   LIG    1       30.913 -16.369   9.543  0.00  0.00    -0.293 OA
ATOM     14  C   LIG    1       29.670 -18.407   9.911  0.00  0.00    +0.080 C 
ATOM     15  C   LIG    1       29.681 -18.203   6.256  0.00  0.00    +0.032 C 
ATOM     16  C   LIG    1       29.015 -19.513   9.061  0.00  0.00    +0.019 C 
ATOM     17  C   LIG    1       29.179 -19.182   5.207  0.00  0.00    +0.008 C 
ATOM     18  C   LIG    1       26.071 -19.786   5.050  0.00  0.00    +0.008 C 
ATOM     19  C   LIG    1       27.162 -21.995   7.993  0.00  0.00    +0.011 C 
ATOM     20  C   LIG    1       24.896 -20.731   5.217  0.00  0.00    +0.045 C 
ENDROOT
BRANCH   1  21
ATOM     21  O   LIG    1       24.304 -22.440   6.777  0.00  0.00    -0.461 OA
BRANCH  21  22
ATOM     22  C   LIG    1       24.064 -23.749   6.520  0.00  0.00    +0.307 C 
ATOM     23  O   LIG    1       23.033 -24.339   6.786  0.00  0.00    -0.251 OA
BRANCH  22  24
ATOM     24  C   LIG    1       25.254 -24.406   5.864  0.00  0.00    +0.120 C 
BRANCH  24  25
ATOM     25  C   LIG    1       25.881 -25.517   6.711  0.00  0.00    +0.011 C 
BRANCH  25  26
ATOM     26  C   LIG    1       25.800 -26.907   6.083  0.00  0.00    +0.000 C 
BRANCH  26  27
ATOM     27  C   LIG    1       24.386 -27.478   5.950  0.00  0.00    -0.000 C 
BRANCH  27  29
ATOM     28  C   LIG    1       24.393 -29.445   7.537  0.00  0.00    +0.004 C 
ATOM     29  C   LIG    1       24.334 -29.002   6.085  0.00  0.00    -0.003 C 
ENDBRANCH  27  29
ENDBRANCH  26  27
ENDBRANCH  25  26
ENDBRANCH  24  25
ENDBRANCH  22  24
ENDBRANCH  21  22
ENDBRANCH   1  21
TORSDOF 7
ENDMDL
MODEL 2
REMARK VINA RESULT:      -7.5      2.096      8.634
REMARK  Name = *****
REMARK                            x       y       z     vdW  Elec       q    Type
REMARK                         _______ _______ _______ _____ _____    ______ ____
ROOT
ATOM      1  C   LIG    1       29.103 -18.998   7.789  0.00  0.00    +0.183 C 
ATOM      2  C   LIG    1       28.497 -20.404   7.577  0.00  0.00    +0.008 C 
ATOM      3  C   LIG    1       29.611 -21.488   7.533  0.00  0.00    +0.015 C 
ATOM      4  C   LIG    1       27.840 -20.269   6.172  0.00  0.00    +0.002 C 
ATOM      5  C   LIG    1       26.332 -19.924   6.160  0.00  0.00    -0.003 C 
ATOM      6  C   LIG    1       25.497 -20.654   7.231  0.00  0.00    +0.002 C 
ATOM      7  C   LIG    1       26.117 -20.344   8.601  0.00  0.00    +0.005 C 
ATOM      8  C   LIG    1       25.100 -22.153   6.923  0.00  0.00    -0.007 C 
ATOM      9  C   LIG    1       23.992 -22.552   7.939  0.00  0.00    +0.016 C 
ATOM     10  C   LIG    1       24.616 -22.269   5.468  0.00  0.00    -0.060 C 
ATOM     11  C   LIG    1       23.976 -23.388   5.072  0.00  0.00    +0.046 C 
ATOM     12  C   LIG    1       24.936 -24.549   5.208  0.00  0.00    +0.156 C 
ATOM     13  O   LIG    1       24.873 -25.479   4.408  0.00  0.00    -0.293 OA
ATOM     14  C   LIG    1       25.834 -24.593   6.439  0.00  0.00    +0.080 C 
ATOM     15  C   LIG    1       25.458 -21.562   4.422  0.00  0.00    +0.032 C 
ATOM     16  C   LIG    1       26.223 -23.217   7.012  0.00  0.00    +0.019 C 
ATOM     17  C   LIG    1       25.694 -20.101   4.773  0.00  0.00    +0.008 C 
ATOM     18  C   LIG    1       28.643 -19.153   5.443  0.00  0.00    +0.008 C 
ATOM     19  C   LIG    1       27.564 -20.782   8.747  0.00  0.00    +0.011 C 
ATOM     20  C   LIG    1       29.677 -18.638   6.427  0.00  0.00    +0.045 C 
ENDROOT
BRANCH   1  21
ATOM     21  O   LIG    1       30.176 -19.043   8.727  0.00  0.00    -0.461 OA
BRANCH  21  22
ATOM     22  C   LIG    1       31.168 -18.126   8.626  0.00  0.00    +0.307 C 
ATOM     23  O   LIG    1       32.225 -18.296   8.046  0.00  0.00    -0.251 OA
BRANCH  22  24
ATOM     24  C   LIG    1       30.806 -16.847   9.339  0.00  0.00    +0.120 C 
BRANCH  24  25
ATOM     25  C   LIG    1       30.367 -17.062  10.791  0.00  0.00    +0.011 C 
BRANCH  25  26
ATOM     26  C   LIG    1       31.520 -17.229  11.778  0.00  0.00    +0.000 C 
BRANCH  26  27
ATOM     27  C   LIG    1       32.645 -16.199  11.643  0.00  0.00    -0.000 C 
BRANCH  27  29
ATOM     28  C   LIG    1       32.418 -16.270  14.159  0.00  0.00    +0.004 C 
ATOM     29  C   LIG    1       33.025 -15.541  12.972  0.00  0.00    -0.003 C 
ENDBRANCH  27  29
ENDBRANCH  26  27
ENDBRANCH  25  26
ENDBRANCH  24  25
ENDBRANCH  22  24
ENDBRANCH  21  22
ENDBRANCH   1  21
TORSDOF 7
ENDMDL
MODEL 3
REMARK VINA RESULT:      -7.2      1.972      3.670
REMARK  Name = *****
REMARK                            x       y       z     vdW  Elec       q    Type
REMARK                         _______ _______ _______ _____ _____    ______ ____
ROOT
ATOM      1  C   LIG    1       26.233 -21.928   6.526  0.00  0.00    +0.183 C 
ATOM      2  C   LIG    1       26.956 -21.034   7.558  0.00  0.00    +0.008 C 
ATOM      3  C   LIG    1       25.938 -20.360   8.521  0.00  0.00    +0.015 C 
ATOM      4  C   LIG    1       27.615 -19.953   6.651  0.00  0.00    +0.002 C 
ATOM      5  C   LIG    1       29.089 -20.208   6.256  0.00  0.00    -0.003 C 
ATOM      6  C   LIG    1       29.970 -20.770   7.390  0.00  0.00    +0.002 C 
ATOM      7  C   LIG    1       29.311 -22.060   7.900  0.00  0.00    +0.005 C 
ATOM      8  C   LIG    1       30.494 -19.734   8.462  0.00  0.00    -0.007 C 
ATOM      9  C   LIG    1       31.621 -20.441   9.270  0.00  0.00    +0.016 C 
ATOM     10  C   LIG    1       31.003 -18.469   7.751  0.00  0.00    -0.060 C 
ATOM     11  C   LIG    1       31.739 -17.573   8.442  0.00  0.00    +0.046 C 
ATOM     12  C   LIG    1       30.878 -17.020   9.555  0.00  0.00    +0.156 C 
ATOM     13  O   LIG    1       31.026 -15.853   9.908  0.00  0.00    -0.293 OA
ATOM     14  C   LIG    1       29.973 -17.989  10.308  0.00  0.00    +0.080 C 
ATOM     15  C   LIG    1       30.116 -17.915   6.651  0.00  0.00    +0.032 C 
ATOM     16  C   LIG    1       29.464 -19.184   9.479  0.00  0.00    +0.019 C 
ATOM     17  C   LIG    1       29.755 -18.976   5.623  0.00  0.00    +0.008 C 
ATOM     18  C   LIG    1       26.730 -19.887   5.373  0.00  0.00    +0.008 C 
ATOM     19  C   LIG    1       27.905 -21.872   8.441  0.00  0.00    +0.011 C 
ATOM     20  C   LIG    1       25.645 -20.937   5.532  0.00  0.00    +0.045 C 
ENDROOT
BRANCH   1  21
ATOM     21  O   LIG    1       25.157 -22.639   7.135  0.00  0.00    -0.461 OA
BRANCH  21  22
ATOM     22  C   LIG    1       24.673 -23.743   6.515  0.00  0.00    +0.307 C 
ATOM     23  O   LIG    1       25.349 -24.591   5.962  0.00  0.00    -0.251 OA
BRANCH  22  24
ATOM     24  C   LIG    1       23.167 -23.792   6.582  0.00  0.00    +0.120 C 
BRANCH  24  25
ATOM     25  C   LIG    1       22.523 -22.426   6.841  0.00  0.00    +0.011 C 
BRANCH  25  26
ATOM     26  C   LIG    1       22.295 -21.591   5.582  0.00  0.00    +0.000 C 
BRANCH  26  27
ATOM     27  C   LIG    1       22.614 -20.100   5.726  0.00  0.00    -0.000 C 
BRANCH  27  29
ATOM     28  C   LIG    1       22.180 -17.890   4.581  0.00  0.00    +0.004 C 
ATOM     29  C   LIG    1       22.578 -19.344   4.395  0.00  0.00    -0.003 C 
ENDBRANCH  27  29
ENDBRANCH  26  27
ENDBRANCH  25  26
ENDBRANCH  24  25
ENDBRANCH  22  24
ENDBRANCH  21  22
ENDBRANCH   1  21
TORSDOF 7
ENDMDL
MODEL 4
REMARK VINA RESULT:      -6.5      3.682      8.677
REMARK  Name = *****
REMARK                            x       y       z     vdW  Elec       q    Type
REMARK                         _______ _______ _______ _____ _____    ______ ____
ROOT
ATOM      1  C   LIG    1       24.173 -18.611   4.387  0.00  0.00    +0.183 C 
ATOM      2  C   LIG    1       24.476 -20.120   4.248  0.00  0.00    +0.008 C 
ATOM      3  C   LIG    1       24.410 -20.566   2.760  0.00  0.00    +0.015 C 
ATOM      4  C   LIG    1       23.302 -20.765   5.042  0.00  0.00    +0.002 C 
ATOM      5  C   LIG    1       23.600 -21.126   6.516  0.00  0.00    -0.003 C 
ATOM      6  C   LIG    1       24.997 -21.733   6.760  0.00  0.00    +0.002 C 
ATOM      7  C   LIG    1       26.039 -20.742   6.220  0.00  0.00    +0.005 C 
ATOM      8  C   LIG    1       25.178 -23.262   6.406  0.00  0.00    -0.007 C 
ATOM      9  C   LIG    1       26.515 -23.727   7.054  0.00  0.00    +0.016 C 
ATOM     10  C   LIG    1       23.974 -24.060   6.933  0.00  0.00    -0.060 C 
ATOM     11  C   LIG    1       24.045 -25.407   6.985  0.00  0.00    +0.046 C 
ATOM     12  C   LIG    1       24.206 -25.921   5.572  0.00  0.00    +0.156 C 
ATOM     13  O   LIG    1       23.703 -26.998   5.262  0.00  0.00    -0.293 OA
ATOM     14  C   LIG    1       25.133 -25.155   4.633  0.00  0.00    +0.080 C 
ATOM     15  C   LIG    1       22.605 -23.462   6.669  0.00  0.00    +0.032 C 
ATOM     16  C   LIG    1       25.229 -23.642   4.905  0.00  0.00    +0.019 C 
ATOM     17  C   LIG    1       22.514 -22.019   7.139  0.00  0.00    +0.008 C 
ATOM     18  C   LIG    1       22.139 -19.733   4.976  0.00  0.00    +0.008 C 
ATOM     19  C   LIG    1       25.904 -20.440   4.738  0.00  0.00    +0.011 C 
ATOM     20  C   LIG    1       22.663 -18.525   4.220  0.00  0.00    +0.045 C 
ENDROOT
BRANCH   1  21
ATOM     21  O   LIG    1       24.780 -17.871   3.330  0.00  0.00    -0.461 OA
BRANCH  21  22
ATOM     22  C   LIG    1       26.053 -17.435   3.490  0.00  0.00    +0.307 C 
ATOM     23  O   LIG    1       26.941 -18.050   4.051  0.00  0.00    -0.251 OA
BRANCH  22  24
ATOM     24  C   LIG    1       26.242 -16.065   2.887  0.00  0.00    +0.120 C 
BRANCH  24  25
ATOM     25  C   LIG    1       27.040 -15.110   3.782  0.00  0.00    +0.011 C 
BRANCH  25  26
ATOM     26  C   LIG    1       26.435 -13.714   3.908  0.00  0.00    +0.000 C 
BRANCH  26  27
ATOM     27  C   LIG    1       25.006 -13.575   3.375  0.00  0.00    -0.000 C 
BRANCH  27  29
ATOM     28  C   LIG    1       23.223 -14.946   4.528  0.00  0.00    +0.004 C 
ATOM     29  C   LIG    1       23.944 -13.609   4.476  0.00  0.00    -0.003 C 
ENDBRANCH  27  29
ENDBRANCH  26  27
ENDBRANCH  25  26
ENDBRANCH  24  25
ENDBRANCH  22  24
ENDBRANCH  21  22
ENDBRANCH   1  21
TORSDOF 7
ENDMDL
MODEL 5
REMARK VINA RESULT:      -6.3      5.894     10.672
REMARK  Name = *****
REMARK                            x       y       z     vdW  Elec       q    Type
REMARK                         _______ _______ _______ _____ _____    ______ ____
ROOT
ATOM      1  C   LIG    1       25.396 -31.246   7.574  0.00  0.00    +0.183 C 
ATOM      2  C   LIG    1       25.408 -30.300   8.797  0.00  0.00    +0.008 C 
ATOM      3  C   LIG    1       26.460 -29.169   8.615  0.00  0.00    +0.015 C 
ATOM      4  C   LIG    1       25.856 -31.253   9.944  0.00  0.00    +0.002 C 
ATOM      5  C   LIG    1       24.720 -31.875  10.789  0.00  0.00    -0.003 C 
ATOM      6  C   LIG    1       23.564 -30.910  11.121  0.00  0.00    +0.002 C 
ATOM      7  C   LIG    1       23.018 -30.357   9.796  0.00  0.00    +0.005 C 
ATOM      8  C   LIG    1       23.808 -29.890  12.303  0.00  0.00    -0.007 C 
ATOM      9  C   LIG    1       22.424 -29.289  12.684  0.00  0.00    +0.016 C 
ATOM     10  C   LIG    1       24.465 -30.619  13.487  0.00  0.00    -0.060 C 
ATOM     11  C   LIG    1       24.515 -30.013  14.691  0.00  0.00    +0.046 C 
ATOM     12  C   LIG    1       25.353 -28.762  14.551  0.00  0.00    +0.156 C 
ATOM     13  O   LIG    1       26.044 -28.390  15.495  0.00  0.00    -0.293 OA
ATOM     14  C   LIG    1       25.174 -27.919  13.292  0.00  0.00    +0.080 C 
ATOM     15  C   LIG    1       25.615 -31.550  13.147  0.00  0.00    +0.032 C 
ATOM     16  C   LIG    1       24.773 -28.708  12.031  0.00  0.00    +0.019 C 
ATOM     17  C   LIG    1       25.235 -32.552  12.068  0.00  0.00    +0.008 C 
ATOM     18  C   LIG    1       26.677 -32.379   9.251  0.00  0.00    +0.008 C 
ATOM     19  C   LIG    1       24.041 -29.604   8.965  0.00  0.00    +0.011 C 
ATOM     20  C   LIG    1       26.641 -32.099   7.760  0.00  0.00    +0.045 C 
ENDROOT
BRANCH   1  21
ATOM     21  O   LIG    1       25.538 -30.509   6.361  0.00  0.00    -0.461 OA
BRANCH  21  22
ATOM     22  C   LIG    1       24.434 -29.958   5.801  0.00  0.00    +0.307 C 
ATOM     23  O   LIG    1       23.324 -30.458   5.799  0.00  0.00    -0.251 OA
BRANCH  22  24
ATOM     24  C   LIG    1       24.751 -28.630   5.159  0.00  0.00    +0.120 C 
BRANCH  24  25
ATOM     25  C   LIG    1       24.354 -27.427   6.019  0.00  0.00    +0.011 C 
BRANCH  25  26
ATOM     26  C   LIG    1       25.509 -26.484   6.353  0.00  0.00    +0.000 C 
BRANCH  26  27
ATOM     27  C   LIG    1       25.398 -25.082   5.747  0.00  0.00    -0.000 C 
BRANCH  27  29
ATOM     28  C   LIG    1       23.379 -23.899   6.702  0.00  0.00    +0.004 C 
ATOM     29  C   LIG    1       24.893 -24.033   6.740  0.00  0.00    -0.003 C 
ENDBRANCH  27  29
ENDBRANCH  26  27
ENDBRANCH  25  26
ENDBRANCH  24  25
ENDBRANCH  22  24
ENDBRANCH  21  22
ENDBRANCH   1  21
TORSDOF 7
ENDMDL
MODEL 6
REMARK VINA RESULT:      -6.0      2.584      7.695
REMARK  Name = *****
REMARK                            x       y       z     vdW  Elec       q    Type
REMARK                         _______ _______ _______ _____ _____    ______ ____
ROOT
ATOM      1  C   LIG    1       24.178 -18.511   4.280  0.00  0.00    +0.183 C 
ATOM      2  C   LIG    1       24.477 -20.024   4.172  0.00  0.00    +0.008 C 
ATOM      3  C   LIG    1       24.393 -20.503   2.695  0.00  0.00    +0.015 C 
ATOM      4  C   LIG    1       23.311 -20.648   4.994  0.00  0.00    +0.002 C 
ATOM      5  C   LIG    1       23.625 -20.977   6.472  0.00  0.00    -0.003 C 
ATOM      6  C   LIG    1       25.024 -21.580   6.713  0.00  0.00    +0.002 C 
ATOM      7  C   LIG    1       26.061 -20.605   6.139  0.00  0.00    +0.005 C 
ATOM      8  C   LIG    1       25.198 -23.118   6.392  0.00  0.00    -0.007 C 
ATOM      9  C   LIG    1       26.541 -23.571   7.036  0.00  0.00    +0.016 C 
ATOM     10  C   LIG    1       23.999 -23.901   6.952  0.00  0.00    -0.060 C 
ATOM     11  C   LIG    1       24.068 -25.246   7.033  0.00  0.00    +0.046 C 
ATOM     12  C   LIG    1       24.211 -25.793   5.630  0.00  0.00    +0.156 C 
ATOM     13  O   LIG    1       23.703 -26.875   5.351  0.00  0.00    -0.293 OA
ATOM     14  C   LIG    1       25.129 -25.050   4.664  0.00  0.00    +0.080 C 
ATOM     15  C   LIG    1       22.628 -23.306   6.690  0.00  0.00    +0.032 C 
ATOM     16  C   LIG    1       25.231 -23.532   4.900  0.00  0.00    +0.019 C 
ATOM     17  C   LIG    1       22.546 -21.852   7.128  0.00  0.00    +0.008 C 
ATOM     18  C   LIG    1       22.149 -19.616   4.917  0.00  0.00    +0.008 C 
ATOM     19  C   LIG    1       25.910 -20.336   4.653  0.00  0.00    +0.011 C 
ATOM     20  C   LIG    1       22.667 -18.426   4.129  0.00  0.00    +0.045 C 
ENDROOT
BRANCH   1  21
ATOM     21  O   LIG    1       24.775 -17.797   3.200  0.00  0.00    -0.461 OA
BRANCH  21  22
ATOM     22  C   LIG    1       25.766 -16.915   3.472  0.00  0.00    +0.307 C 
ATOM     23  O   LIG    1       25.612 -15.724   3.671  0.00  0.00    -0.251 OA
BRANCH  22  24
ATOM     24  C   LIG    1       27.114 -17.593   3.490  0.00  0.00    +0.120 C 
BRANCH  24  25
ATOM     25  C   LIG    1       27.991 -17.175   4.674  0.00  0.00    +0.011 C 
BRANCH  25  26
ATOM     26  C   LIG    1       29.103 -18.165   5.013  0.00  0.00    +0.000 C 
BRANCH  26  27
ATOM     27  C   LIG    1       29.269 -18.471   6.504  0.00  0.00    -0.000 C 
BRANCH  27  29
ATOM     28  C   LIG    1       29.489 -20.791   7.482  0.00  0.00    +0.004 C 
ATOM     29  C   LIG    1       30.205 -19.650   6.779  0.00  0.00    -0.003 C 
ENDBRANCH  27  29
ENDBRANCH  26  27
ENDBRANCH  25  26
ENDBRANCH  24  25
ENDBRANCH  22  24
ENDBRANCH  21  22
ENDBRANCH   1  21
TORSDOF 7
ENDMDL
MODEL 7
REMARK VINA RESULT:      -5.9      5.911     10.485
REMARK  Name = *****
REMARK                            x       y       z     vdW  Elec       q    Type
REMARK                         _______ _______ _______ _____ _____    ______ ____
ROOT
ATOM      1  C   LIG    1       24.666 -31.943   8.473  0.00  0.00    +0.183 C 
ATOM      2  C   LIG    1       25.900 -31.412   9.238  0.00  0.00    +0.008 C 
ATOM      3  C   LIG    1       27.196 -32.134   8.772  0.00  0.00    +0.015 C 
ATOM      4  C   LIG    1       25.573 -31.816  10.706  0.00  0.00    +0.002 C 
ATOM      5  C   LIG    1       24.912 -30.723  11.578  0.00  0.00    -0.003 C 
ATOM      6  C   LIG    1       25.485 -29.306  11.376  0.00  0.00    +0.002 C 
ATOM      7  C   LIG    1       25.367 -28.960   9.884  0.00  0.00    +0.005 C 
ATOM      8  C   LIG    1       26.850 -28.982  12.104  0.00  0.00    -0.007 C 
ATOM      9  C   LIG    1       27.040 -27.438  12.057  0.00  0.00    +0.016 C 
ATOM     10  C   LIG    1       26.804 -29.513  13.546  0.00  0.00    -0.060 C 
ATOM     11  C   LIG    1       27.744 -29.113  14.428  0.00  0.00    +0.046 C 
ATOM     12  C   LIG    1       29.088 -29.592  13.928  0.00  0.00    +0.156 C 
ATOM     13  O   LIG    1       29.952 -29.915  14.739  0.00  0.00    -0.293 OA
ATOM     14  C   LIG    1       29.371 -29.495  12.433  0.00  0.00    +0.080 C 
ATOM     15  C   LIG    1       26.256 -30.916  13.728  0.00  0.00    +0.032 C 
ATOM     16  C   LIG    1       28.133 -29.629  11.525  0.00  0.00    +0.019 C 
ATOM     17  C   LIG    1       24.895 -31.085  13.071  0.00  0.00    +0.008 C 
ATOM     18  C   LIG    1       24.629 -33.049  10.598  0.00  0.00    +0.008 C 
ATOM     19  C   LIG    1       26.111 -29.908   8.962  0.00  0.00    +0.011 C 
ATOM     20  C   LIG    1       24.387 -33.291   9.119  0.00  0.00    +0.045 C 
ENDROOT
BRANCH   1  21
ATOM     21  O   LIG    1       24.977 -32.164   7.099  0.00  0.00    -0.461 OA
BRANCH  21  22
ATOM     22  C   LIG    1       24.234 -31.536   6.155  0.00  0.00    +0.307 C 
ATOM     23  O   LIG    1       23.122 -31.877   5.796  0.00  0.00    -0.251 OA
BRANCH  22  24
ATOM     24  C   LIG    1       24.966 -30.348   5.581  0.00  0.00    +0.120 C 
BRANCH  24  25
ATOM     25  C   LIG    1       24.302 -29.007   5.908  0.00  0.00    +0.011 C 
BRANCH  25  26
ATOM     26  C   LIG    1       25.234 -27.802   5.803  0.00  0.00    +0.000 C 
BRANCH  26  27
ATOM     27  C   LIG    1       24.590 -26.452   6.132  0.00  0.00    -0.000 C 
BRANCH  27  29
ATOM     28  C   LIG    1       25.558 -24.236   6.866  0.00  0.00    +0.004 C 
ATOM     29  C   LIG    1       25.462 -25.256   5.744  0.00  0.00    -0.003 C 
ENDBRANCH  27  29
ENDBRANCH  26  27
ENDBRANCH  25  26
ENDBRANCH  24  25
ENDBRANCH  22  24
ENDBRANCH  21  22
ENDBRANCH   1  21
TORSDOF 7
ENDMDL
MODEL 8
REMARK VINA RESULT:      -5.9      3.553      6.053
REMARK  Name = *****
REMARK                            x       y       z     vdW  Elec       q    Type
REMARK                         _______ _______ _______ _____ _____    ______ ____
ROOT
ATOM      1  C   LIG    1       24.899 -26.765   6.560  0.00  0.00    +0.183 C 
ATOM      2  C   LIG    1       24.713 -25.513   5.671  0.00  0.00    +0.008 C 
ATOM      3  C   LIG    1       24.924 -25.861   4.170  0.00  0.00    +0.015 C 
ATOM      4  C   LIG    1       25.867 -24.589   6.162  0.00  0.00    +0.002 C 
ATOM      5  C   LIG    1       25.484 -23.541   7.233  0.00  0.00    -0.003 C 
ATOM      6  C   LIG    1       24.119 -22.860   7.008  0.00  0.00    +0.002 C 
ATOM      7  C   LIG    1       23.054 -23.963   6.920  0.00  0.00    +0.005 C 
ATOM      8  C   LIG    1       24.073 -21.700   5.936  0.00  0.00    -0.007 C 
ATOM      9  C   LIG    1       22.727 -20.944   6.137  0.00  0.00    +0.016 C 
ATOM     10  C   LIG    1       25.287 -20.775   6.125  0.00  0.00    -0.060 C 
ATOM     11  C   LIG    1       25.307 -19.577   5.504  0.00  0.00    +0.046 C 
ATOM     12  C   LIG    1       25.290 -19.822   4.012  0.00  0.00    +0.156 C 
ATOM     13  O   LIG    1       25.889 -19.050   3.268  0.00  0.00    -0.293 OA
ATOM     14  C   LIG    1       24.385 -20.929   3.480  0.00  0.00    +0.080 C 
ATOM     15  C   LIG    1       26.627 -21.459   6.325  0.00  0.00    +0.032 C 
ATOM     16  C   LIG    1       24.162 -22.109   4.444  0.00  0.00    +0.019 C 
ATOM     17  C   LIG    1       26.580 -22.484   7.446  0.00  0.00    +0.008 C 
ATOM     18  C   LIG    1       26.956 -25.547   6.725  0.00  0.00    +0.008 C 
ATOM     19  C   LIG    1       23.278 -24.960   5.797  0.00  0.00    +0.011 C 
ATOM     20  C   LIG    1       26.407 -26.958   6.608  0.00  0.00    +0.045 C 
ENDROOT
BRANCH   1  21
ATOM     21  O   LIG    1       24.323 -27.915   5.944  0.00  0.00    -0.461 OA
BRANCH  21  22
ATOM     22  C   LIG    1       24.705 -29.142   6.372  0.00  0.00    +0.307 C 
ATOM     23  O   LIG    1       25.217 -30.000   5.677  0.00  0.00    -0.251 OA
BRANCH  22  24
ATOM     24  C   LIG    1       24.405 -29.329   7.839  0.00  0.00    +0.120 C 
BRANCH  24  25
ATOM     25  C   LIG    1       25.214 -30.457   8.488  0.00  0.00    +0.011 C 
BRANCH  25  26
ATOM     26  C   LIG    1       26.496 -29.995   9.176  0.00  0.00    +0.000 C 
BRANCH  26  27
ATOM     27  C   LIG    1       26.526 -28.515   9.569  0.00  0.00    -0.000 C 
BRANCH  27  29
ATOM     28  C   LIG    1       28.031 -29.212  11.475  0.00  0.00    +0.004 C 
ATOM     29  C   LIG    1       26.911 -28.286  11.032  0.00  0.00    -0.003 C 
ENDBRANCH  27  29
ENDBRANCH  26  27
ENDBRANCH  25  26
ENDBRANCH  24  25
ENDBRANCH  22  24
ENDBRANCH  21  22
ENDBRANCH   1  21
TORSDOF 7
ENDMDL
MODEL 9
REMARK VINA RESULT:      -5.9      7.764     10.917
REMARK  Name = *****
REMARK                            x       y       z     vdW  Elec       q    Type
REMARK                         _______ _______ _______ _____ _____    ______ ____
ROOT
ATOM      1  C   LIG    1       25.945 -31.109   9.696  0.00  0.00    +0.183 C 
ATOM      2  C   LIG    1       24.619 -30.601  10.307  0.00  0.00    +0.008 C 
ATOM      3  C   LIG    1       23.567 -30.321   9.197  0.00  0.00    +0.015 C 
ATOM      4  C   LIG    1       25.055 -29.259  10.966  0.00  0.00    +0.002 C 
ATOM      5  C   LIG    1       25.399 -29.326  12.473  0.00  0.00    -0.003 C 
ATOM      6  C   LIG    1       24.457 -30.217  13.308  0.00  0.00    +0.002 C 
ATOM      7  C   LIG    1       24.464 -31.620  12.684  0.00  0.00    +0.005 C 
ATOM      8  C   LIG    1       23.061 -29.594  13.710  0.00  0.00    -0.007 C 
ATOM      9  C   LIG    1       22.455 -30.503  14.818  0.00  0.00    +0.016 C 
ATOM     10  C   LIG    1       23.263 -28.149  14.197  0.00  0.00    -0.060 C 
ATOM     11  C   LIG    1       22.256 -27.523  14.842  0.00  0.00    +0.046 C 
ATOM     12  C   LIG    1       21.091 -27.404  13.885  0.00  0.00    +0.156 C 
ATOM     13  O   LIG    1       20.355 -26.423  13.952  0.00  0.00    -0.293 OA
ATOM     14  C   LIG    1       20.780 -28.595  12.984  0.00  0.00    +0.080 C 
ATOM     15  C   LIG    1       24.176 -27.278  13.355  0.00  0.00    +0.032 C 
ATOM     16  C   LIG    1       22.000 -29.449  12.590  0.00  0.00    +0.019 C 
ATOM     17  C   LIG    1       25.526 -27.935  13.114  0.00  0.00    +0.008 C 
ATOM     18  C   LIG    1       26.300 -28.786  10.161  0.00  0.00    +0.008 C 
ATOM     19  C   LIG    1       24.001 -31.664  11.239  0.00  0.00    +0.011 C 
ATOM     20  C   LIG    1       26.588 -29.855   9.123  0.00  0.00    +0.045 C 
ENDROOT
BRANCH   1  21
ATOM     21  O   LIG    1       25.696 -32.013   8.621  0.00  0.00    -0.461 OA
BRANCH  21  22
ATOM     22  C   LIG    1       26.751 -32.516   7.937  0.00  0.00    +0.307 C 
ATOM     23  O   LIG    1       27.685 -33.121   8.431  0.00  0.00    -0.251 OA
BRANCH  22  24
ATOM     24  C   LIG    1       26.637 -32.222   6.461  0.00  0.00    +0.120 C 
BRANCH  24  25
ATOM     25  C   LIG    1       25.302 -31.581   6.069  0.00  0.00    +0.011 C 
BRANCH  25  26
ATOM     26  C   LIG    1       25.432 -30.199   5.433  0.00  0.00    +0.000 C 
BRANCH  26  27
ATOM     27  C   LIG    1       24.327 -29.206   5.807  0.00  0.00    -0.000 C 
BRANCH  27  29
ATOM     28  C   LIG    1       24.300 -26.682   5.944  0.00  0.00    +0.004 C 
ATOM     29  C   LIG    1       24.851 -27.968   6.539  0.00  0.00    -0.003 C 
ENDBRANCH  27  29
ENDBRANCH  26  27
ENDBRANCH  25  26
ENDBRANCH  24  25
ENDBRANCH  22  24
ENDBRANCH  21  22
ENDBRANCH   1  21
TORSDOF 7
ENDMDL
