MODEL 1
REMARK VINA RESULT:      -6.8      0.000      0.000
REMARK  Name = *****
REMARK                            x       y       z     vdW  Elec       q    Type
REMARK                         _______ _______ _______ _____ _____    ______ ____
ROOT
ATOM      1  C   LIG    1       25.171 -20.492   5.975  0.00  0.00    +0.108 C 
ATOM      2  C   LIG    1       25.880 -20.460   4.655  0.00  0.00    +0.123 C 
ATOM      3  C   LIG    1       24.980 -19.831   3.589  0.00  0.00    +0.207 C 
ATOM      4  O   LIG    1       23.682 -20.455   3.593  0.00  0.00    -0.454 OA
ATOM      5  C   LIG    1       23.040 -20.666   4.768  0.00  0.00    +0.336 C 
ATOM      6  O   LIG    1       21.848 -20.940   4.820  0.00  0.00    -0.245 OA
ATOM      7  C   LIG    1       23.830 -20.556   6.005  0.00  0.00    +0.132 C 
ENDROOT
BRANCH   1   9
ATOM      8  C   LIG    1       27.416 -20.416   6.805  0.00  0.00    +0.276 C 
ATOM      9  O   LIG    1       26.015 -20.428   7.061  0.00  0.00    -0.499 OA
ENDBRANCH   1   9
BRANCH   3  10
ATOM     10  C   LIG    1       24.882 -18.322   3.696  0.00  0.00    +0.018 C 
ATOM     11  C   LIG    1       25.822 -17.437   3.323  0.00  0.00    +0.007 C 
BRANCH  11  12
ATOM     12  C   LIG    1       25.704 -15.990   3.442  0.00  0.00    -0.029 C 
ATOM     13  C   LIG    1       26.809 -15.062   3.242  0.00  0.00    +0.003 C 
ATOM     14  C   LIG    1       26.692 -13.739   3.410  0.00  0.00    -0.026 C 
ATOM     15  C   LIG    1       25.415 -13.082   3.839  0.00  0.00    +0.031 C 
ATOM     16  C   LIG    1       24.219 -14.030   4.011  0.00  0.00    +0.032 C 
ATOM     17  C   LIG    1       24.513 -15.494   3.834  0.00  0.00    -0.019 C 
ENDBRANCH  11  12
ENDBRANCH   3  10
TORSDOF 3
ENDMDL
MODEL 2
REMARK VINA RESULT:      -6.8      0.162      1.212
REMARK  Name = *****
REMARK                            x       y       z     vdW  Elec       q    Type
REMARK                         _______ _______ _______ _____ _____    ______ ____
ROOT
ATOM      1  C   LIG    1       25.173 -20.488   5.974  0.00  0.00    +0.108 C 
ATOM      2  C   LIG    1       25.885 -20.451   4.655  0.00  0.00    +0.123 C 
ATOM      3  C   LIG    1       24.998 -19.793   3.597  0.00  0.00    +0.207 C 
ATOM      4  O   LIG    1       23.689 -20.393   3.591  0.00  0.00    -0.454 OA
ATOM      5  C   LIG    1       23.041 -20.608   4.763  0.00  0.00    +0.336 C 
ATOM      6  O   LIG    1       21.844 -20.862   4.810  0.00  0.00    -0.245 OA
ATOM      7  C   LIG    1       23.831 -20.529   6.002  0.00  0.00    +0.132 C 
ENDROOT
BRANCH   1   9
ATOM      8  C   LIG    1       27.418 -20.444   6.806  0.00  0.00    +0.276 C 
ATOM      9  O   LIG    1       26.017 -20.454   7.062  0.00  0.00    -0.499 OA
ENDBRANCH   1   9
BRANCH   3  10
ATOM     10  C   LIG    1       24.926 -18.284   3.723  0.00  0.00    +0.018 C 
ATOM     11  C   LIG    1       25.868 -17.409   3.334  0.00  0.00    +0.007 C 
BRANCH  11  12
ATOM     12  C   LIG    1       25.777 -15.961   3.472  0.00  0.00    -0.029 C 
ATOM     13  C   LIG    1       24.549 -15.247   3.792  0.00  0.00    +0.003 C 
ATOM     14  C   LIG    1       24.477 -13.912   3.858  0.00  0.00    -0.026 C 
ATOM     15  C   LIG    1       25.650 -13.018   3.594  0.00  0.00    +0.031 C 
ATOM     16  C   LIG    1       26.971 -13.744   3.302  0.00  0.00    +0.032 C 
ATOM     17  C   LIG    1       26.889 -15.242   3.212  0.00  0.00    -0.019 C 
ENDBRANCH  11  12
ENDBRANCH   3  10
TORSDOF 3
ENDMDL
MODEL 3
REMARK VINA RESULT:      -5.1      3.262      6.584
REMARK  Name = *****
REMARK                            x       y       z     vdW  Elec       q    Type
REMARK                         _______ _______ _______ _____ _____    ______ ____
ROOT
ATOM      1  C   LIG    1       25.192 -13.674   3.959  0.00  0.00    +0.108 C 
ATOM      2  C   LIG    1       25.729 -14.243   2.680  0.00  0.00    +0.123 C 
ATOM      3  C   LIG    1       27.023 -15.014   2.949  0.00  0.00    +0.207 C 
ATOM      4  O   LIG    1       27.940 -14.210   3.715  0.00  0.00    -0.454 OA
ATOM      5  C   LIG    1       27.494 -13.532   4.802  0.00  0.00    +0.336 C 
ATOM      6  O   LIG    1       28.258 -13.057   5.632  0.00  0.00    -0.245 OA
ATOM      7  C   LIG    1       26.039 -13.376   4.958  0.00  0.00    +0.132 C 
ENDROOT
BRANCH   1   9
ATOM      8  C   LIG    1       23.050 -14.664   4.362  0.00  0.00    +0.276 C 
ATOM      9  O   LIG    1       23.823 -13.533   3.973  0.00  0.00    -0.499 OA
ENDBRANCH   1   9
BRANCH   3  10
ATOM     10  C   LIG    1       26.795 -16.371   3.584  0.00  0.00    +0.018 C 
ATOM     11  C   LIG    1       25.850 -17.262   3.237  0.00  0.00    +0.007 C 
BRANCH  11  12
ATOM     12  C   LIG    1       25.648 -18.559   3.868  0.00  0.00    -0.029 C 
ATOM     13  C   LIG    1       26.628 -19.212   4.725  0.00  0.00    +0.003 C 
ATOM     14  C   LIG    1       26.445 -20.430   5.249  0.00  0.00    -0.026 C 
ATOM     15  C   LIG    1       25.218 -21.252   4.992  0.00  0.00    +0.031 C 
ATOM     16  C   LIG    1       24.145 -20.569   4.131  0.00  0.00    +0.032 C 
ATOM     17  C   LIG    1       24.511 -19.223   3.573  0.00  0.00    -0.019 C 
ENDBRANCH  11  12
ENDBRANCH   3  10
TORSDOF 3
ENDMDL
MODEL 4
REMARK VINA RESULT:      -4.4      3.533      6.788
REMARK  Name = *****
REMARK                            x       y       z     vdW  Elec       q    Type
REMARK                         _______ _______ _______ _____ _____    ______ ____
ROOT
ATOM      1  C   LIG    1       25.241 -13.987   4.173  0.00  0.00    +0.108 C 
ATOM      2  C   LIG    1       25.802 -14.669   2.961  0.00  0.00    +0.123 C 
ATOM      3  C   LIG    1       27.221 -15.165   3.245  0.00  0.00    +0.207 C 
ATOM      4  O   LIG    1       28.024 -14.107   3.800  0.00  0.00    -0.454 OA
ATOM      5  C   LIG    1       27.525 -13.336   4.798  0.00  0.00    +0.336 C 
ATOM      6  O   LIG    1       28.237 -12.611   5.481  0.00  0.00    -0.245 OA
ATOM      7  C   LIG    1       26.075 -13.393   5.043  0.00  0.00    +0.132 C 
ENDROOT
BRANCH   1   9
ATOM      8  C   LIG    1       23.307 -15.345   4.557  0.00  0.00    +0.276 C 
ATOM      9  O   LIG    1       23.871 -14.068   4.273  0.00  0.00    -0.499 OA
ENDBRANCH   1   9
BRANCH   3  10
ATOM     10  C   LIG    1       27.263 -16.415   4.101  0.00  0.00    +0.018 C 
ATOM     11  C   LIG    1       28.352 -17.152   4.378  0.00  0.00    +0.007 C 
BRANCH  11  12
ATOM     12  C   LIG    1       28.365 -18.354   5.200  0.00  0.00    -0.029 C 
ATOM     13  C   LIG    1       29.455 -18.721   6.093  0.00  0.00    +0.003 C 
ATOM     14  C   LIG    1       29.472 -19.859   6.798  0.00  0.00    -0.026 C 
ATOM     15  C   LIG    1       28.375 -20.878   6.725  0.00  0.00    +0.031 C 
ATOM     16  C   LIG    1       27.188 -20.496   5.829  0.00  0.00    +0.032 C 
ATOM     17  C   LIG    1       27.332 -19.211   5.063  0.00  0.00    -0.019 C 
ENDBRANCH  11  12
ENDBRANCH   3  10
TORSDOF 3
ENDMDL
MODEL 5
REMARK VINA RESULT:      -4.2      3.826      6.762
REMARK  Name = *****
REMARK                            x       y       z     vdW  Elec       q    Type
REMARK                         _______ _______ _______ _____ _____    ______ ____
ROOT
ATOM      1  C   LIG    1       26.404 -13.412   3.468  0.00  0.00    +0.108 C 
ATOM      2  C   LIG    1       25.937 -13.254   4.885  0.00  0.00    +0.123 C 
ATOM      3  C   LIG    1       24.408 -13.252   4.937  0.00  0.00    +0.207 C 
ATOM      4  O   LIG    1       23.871 -12.312   3.987  0.00  0.00    -0.454 OA
ATOM      5  C   LIG    1       24.355 -12.284   2.721  0.00  0.00    +0.336 C 
ATOM      6  O   LIG    1       23.772 -11.707   1.812  0.00  0.00    -0.245 OA
ATOM      7  C   LIG    1       25.627 -12.977   2.462  0.00  0.00    +0.132 C 
ENDROOT
BRANCH   1   9
ATOM      8  C   LIG    1       28.785 -13.271   3.673  0.00  0.00    +0.276 C 
ATOM      9  O   LIG    1       27.626 -14.034   3.353  0.00  0.00    -0.499 OA
ENDBRANCH   1   9
BRANCH   3  10
ATOM     10  C   LIG    1       23.797 -14.630   4.775  0.00  0.00    +0.018 C 
ATOM     11  C   LIG    1       24.399 -15.709   4.247  0.00  0.00    +0.007 C 
BRANCH  11  12
ATOM     12  C   LIG    1       23.787 -17.022   4.098  0.00  0.00    -0.029 C 
ATOM     13  C   LIG    1       22.394 -17.314   4.405  0.00  0.00    +0.003 C 
ATOM     14  C   LIG    1       21.867 -18.541   4.314  0.00  0.00    -0.026 C 
ATOM     15  C   LIG    1       22.664 -19.741   3.901  0.00  0.00    +0.031 C 
ATOM     16  C   LIG    1       24.124 -19.456   3.523  0.00  0.00    +0.032 C 
ATOM     17  C   LIG    1       24.588 -18.041   3.721  0.00  0.00    -0.019 C 
ENDBRANCH  11  12
ENDBRANCH   3  10
TORSDOF 3
ENDMDL
MODEL 6
REMARK VINA RESULT:      -4.1      1.337      2.108
REMARK  Name = *****
REMARK                            x       y       z     vdW  Elec       q    Type
REMARK                         _______ _______ _______ _____ _____    ______ ____
ROOT
ATOM      1  C   LIG    1       24.624 -20.449   5.317  0.00  0.00    +0.108 C 
ATOM      2  C   LIG    1       26.029 -20.030   4.999  0.00  0.00    +0.123 C 
ATOM      3  C   LIG    1       26.074 -19.330   3.639  0.00  0.00    +0.207 C 
ATOM      4  O   LIG    1       25.413 -20.128   2.639  0.00  0.00    -0.454 OA
ATOM      5  C   LIG    1       24.203 -20.678   2.909  0.00  0.00    +0.336 C 
ATOM      6  O   LIG    1       23.483 -21.133   2.030  0.00  0.00    -0.245 OA
ATOM      7  C   LIG    1       23.771 -20.718   4.315  0.00  0.00    +0.132 C 
ENDROOT
BRANCH   1   9
ATOM      8  C   LIG    1       23.067 -20.974   7.059  0.00  0.00    +0.276 C 
ATOM      9  O   LIG    1       24.349 -20.492   6.665  0.00  0.00    -0.499 OA
ENDBRANCH   1   9
BRANCH   3  10
ATOM     10  C   LIG    1       25.543 -17.911   3.672  0.00  0.00    +0.018 C 
ATOM     11  C   LIG    1       26.198 -16.808   3.272  0.00  0.00    +0.007 C 
BRANCH  11  12
ATOM     12  C   LIG    1       25.666 -15.453   3.319  0.00  0.00    -0.029 C 
ATOM     13  C   LIG    1       24.410 -15.091   3.960  0.00  0.00    +0.003 C 
ATOM     14  C   LIG    1       23.912 -13.848   3.943  0.00  0.00    -0.026 C 
ATOM     15  C   LIG    1       24.592 -12.708   3.247  0.00  0.00    +0.031 C 
ATOM     16  C   LIG    1       25.944 -13.049   2.604  0.00  0.00    +0.032 C 
ATOM     17  C   LIG    1       26.351 -14.494   2.661  0.00  0.00    -0.019 C 
ENDBRANCH  11  12
ENDBRANCH   3  10
TORSDOF 3
ENDMDL
