MODEL 1
REMARK VINA RESULT:      12.7      0.000      0.000
REMARK  Name = *****
REMARK                            x       y       z     vdW  Elec       q    Type
REMARK                         _______ _______ _______ _____ _____    ______ ____
ROOT
ATOM      1  C   LIG    1       22.491 -17.668   3.576  0.00  0.00    +0.169 C 
ATOM      2  C   LIG    1       23.904 -18.284   3.808  0.00  0.00    +0.175 C 
ATOM      3  C   LIG    1       23.873 -19.548   4.718  0.00  0.00    +0.169 C 
ATOM      4  C   LIG    1       22.678 -19.595   5.693  0.00  0.00    +0.084 C 
ATOM      5  C   LIG    1       21.346 -19.507   4.918  0.00  0.00    +0.042 C 
ATOM      6  C   LIG    1       21.499 -18.868   3.521  0.00  0.00    +0.084 C 
ENDROOT
BRANCH   4   7
ATOM      7  N   LIG    1       22.784 -18.577   6.742  0.00  0.00    -0.325 NA
ATOM      8  H   LIG    1       23.641 -18.036   6.594  0.00  0.00    +0.118 HD
ATOM      9  H   LIG    1       22.035 -17.888   6.597  0.00  0.00    +0.118 HD
ENDBRANCH   4   7
BRANCH   6  10
ATOM     10  N   LIG    1       20.185 -18.625   2.914  0.00  0.00    -0.325 NA
ATOM     11  H   LIG    1       19.491 -19.276   3.268  0.00  0.00    +0.118 HD
ATOM     12  H   LIG    1       19.863 -17.689   3.164  0.00  0.00    +0.118 HD
ENDBRANCH   6  10
BRANCH   2  13
ATOM     13  O   LIG    1       24.850 -17.315   4.273  0.00  0.00    -0.387 OA
ATOM     14  H   LIG    1       24.746 -16.542   3.679  0.00  0.00    +0.210 HD
ENDBRANCH   2  13
BRANCH   1  15
ATOM     15  O   LIG    1       22.236 -16.719   4.632  0.00  0.00    -0.342 OA
BRANCH  15  18
ATOM     16  C   LIG    1       23.995 -13.822   3.463  0.00  0.00    +0.138 C 
ATOM     17  O   LIG    1       23.453 -15.143   3.386  0.00  0.00    -0.345 OA
ATOM     18  C   LIG    1       22.359 -15.337   4.285  0.00  0.00    +0.268 C 
ATOM     19  C   LIG    1       22.463 -14.471   5.595  0.00  0.00    +0.107 C 
ATOM     20  C   LIG    1       23.928 -14.241   5.972  0.00  0.00    +0.026 C 
ATOM     21  C   LIG    1       24.731 -13.663   4.799  0.00  0.00    +0.035 C 
BRANCH  19  22
ATOM     22  N   LIG    1       21.705 -14.991   6.741  0.00  0.00    -0.323 NA
ATOM     23  H   LIG    1       21.895 -15.982   6.872  0.00  0.00    +0.119 HD
ATOM     24  H   LIG    1       20.709 -14.924   6.515  0.00  0.00    +0.119 HD
ENDBRANCH  19  22
BRANCH  16  25
ATOM     25  C   LIG    1       24.859 -13.518   2.206  0.00  0.00    +0.079 C 
ATOM     26  C   LIG    1       25.459 -12.106   2.212  0.00  0.00    +0.026 C 
BRANCH  25  28
ATOM     27  C   LIG    1       27.269 -13.887   2.558  0.00  0.00    +0.101 C 
ATOM     28  N   LIG    1       26.010 -14.442   2.082  0.00  0.00    -0.314 NA
ATOM     29  H   LIG    1       26.104 -14.690   1.097  0.00  0.00    +0.122 HD
ENDBRANCH  25  28
ENDBRANCH  16  25
ENDBRANCH  15  18
ENDBRANCH   1  15
BRANCH   3  30
ATOM     30  O   LIG    1       25.156 -19.703   5.339  0.00  0.00    -0.341 OA
BRANCH  30  31
ATOM     31  C   LIG    1       25.881 -20.894   5.013  0.00  0.00    +0.281 C 
ATOM     32  C   LIG    1       27.178 -20.691   4.183  0.00  0.00    +0.190 C 
ATOM     33  C   LIG    1       28.097 -19.643   4.882  0.00  0.00    +0.121 C 
ATOM     34  C   LIG    1       28.049 -19.853   6.435  0.00  0.00    +0.104 C 
ATOM     35  C   LIG    1       29.444 -19.704   7.048  0.00  0.00    +0.045 C 
ATOM     36  C   LIG    1       27.468 -21.235   6.811  0.00  0.00    +0.199 C 
ATOM     37  O   LIG    1       26.195 -21.560   6.241  0.00  0.00    -0.346 OA
BRANCH  33  38
ATOM     38  N   LIG    1       27.740 -18.270   4.425  0.00  0.00    -0.311 NA
ATOM     39  H   LIG    1       27.784 -18.288   3.399  0.00  0.00    +0.122 HD
ATOM     40  C   LIG    1       28.578 -17.196   4.921  0.00  0.00    +0.101 C 
ENDBRANCH  33  38
BRANCH  32  41
ATOM     41  O   LIG    1       26.949 -20.357   2.804  0.00  0.00    -0.385 OA
ATOM     42  H   LIG    1       26.335 -19.614   2.782  0.00  0.00    +0.210 HD
ENDBRANCH  32  41
BRANCH  34  43
ATOM     43  O   LIG    1       27.224 -18.851   7.056  0.00  0.00    -0.385 OA
ATOM     44  H   LIG    1       27.661 -17.997   6.854  0.00  0.00    +0.210 HD
ENDBRANCH  34  43
ENDBRANCH  30  31
ENDBRANCH   3  30
TORSDOF 13
ENDMDL
MODEL 2
REMARK VINA RESULT:      12.9      2.116      5.158
REMARK  Name = *****
REMARK                            x       y       z     vdW  Elec       q    Type
REMARK                         _______ _______ _______ _____ _____    ______ ____
ROOT
ATOM      1  C   LIG    1       25.706 -14.828   2.890  0.00  0.00    +0.169 C 
ATOM      2  C   LIG    1       25.272 -16.321   3.012  0.00  0.00    +0.175 C 
ATOM      3  C   LIG    1       23.797 -16.487   3.483  0.00  0.00    +0.169 C 
ATOM      4  C   LIG    1       23.262 -15.303   4.315  0.00  0.00    +0.084 C 
ATOM      5  C   LIG    1       23.385 -13.985   3.518  0.00  0.00    +0.042 C 
ATOM      6  C   LIG    1       24.447 -14.050   2.401  0.00  0.00    +0.084 C 
ENDROOT
BRANCH   4   7
ATOM      7  N   LIG    1       23.900 -15.224   5.631  0.00  0.00    -0.325 NA
ATOM      8  H   LIG    1       23.320 -14.647   6.247  0.00  0.00    +0.118 HD
ATOM      9  H   LIG    1       23.857 -16.156   6.064  0.00  0.00    +0.118 HD
ENDBRANCH   4   7
BRANCH   6  10
ATOM     10  N   LIG    1       24.665 -12.722   1.813  0.00  0.00    -0.325 NA
ATOM     11  H   LIG    1       24.353 -12.693   0.847  0.00  0.00    +0.118 HD
ATOM     12  H   LIG    1       24.112 -12.032   2.321  0.00  0.00    +0.118 HD
ENDBRANCH   6  10
BRANCH   2  13
ATOM     13  O   LIG    1       26.178 -17.086   3.814  0.00  0.00    -0.387 OA
ATOM     14  H   LIG    1       27.071 -16.748   3.595  0.00  0.00    +0.210 HD
ENDBRANCH   2  13
BRANCH   1  15
ATOM     15  O   LIG    1       26.221 -14.404   4.168  0.00  0.00    -0.342 OA
BRANCH  15  18
ATOM     16  C   LIG    1       29.034 -16.107   5.597  0.00  0.00    +0.138 C 
ATOM     17  O   LIG    1       27.845 -15.974   4.815  0.00  0.00    -0.345 OA
ATOM     18  C   LIG    1       27.616 -14.628   4.393  0.00  0.00    +0.268 C 
ATOM     19  C   LIG    1       28.166 -13.552   5.402  0.00  0.00    +0.107 C 
ATOM     20  C   LIG    1       28.113 -14.084   6.836  0.00  0.00    +0.026 C 
ATOM     21  C   LIG    1       28.810 -15.445   6.963  0.00  0.00    +0.035 C 
BRANCH  19  22
ATOM     22  N   LIG    1       27.526 -12.234   5.310  0.00  0.00    -0.323 NA
ATOM     23  H   LIG    1       26.548 -12.295   5.584  0.00  0.00    +0.119 HD
ATOM     24  H   LIG    1       27.524 -11.954   4.325  0.00  0.00    +0.119 HD
ENDBRANCH  19  22
BRANCH  16  25
ATOM     25  C   LIG    1       29.475 -17.597   5.663  0.00  0.00    +0.079 C 
ATOM     26  C   LIG    1       29.309 -18.215   7.057  0.00  0.00    +0.026 C 
BRANCH  25  28
ATOM     27  C   LIG    1       28.333 -19.750   5.307  0.00  0.00    +0.101 C 
ATOM     28  N   LIG    1       28.687 -18.454   4.748  0.00  0.00    -0.314 NA
ATOM     29  H   LIG    1       29.240 -18.593   3.901  0.00  0.00    +0.122 HD
ENDBRANCH  25  28
ENDBRANCH  16  25
ENDBRANCH  15  18
ENDBRANCH   1  15
BRANCH   3  30
ATOM     30  O   LIG    1       23.652 -17.769   4.108  0.00  0.00    -0.341 OA
BRANCH  30  31
ATOM     31  C   LIG    1       23.295 -18.858   3.250  0.00  0.00    +0.281 C 
ATOM     32  C   LIG    1       24.161 -20.141   3.388  0.00  0.00    +0.190 C 
ATOM     33  C   LIG    1       24.211 -20.589   4.880  0.00  0.00    +0.121 C 
ATOM     34  C   LIG    1       22.805 -20.381   5.541  0.00  0.00    +0.104 C 
ATOM     35  C   LIG    1       22.449 -21.560   6.449  0.00  0.00    +0.045 C 
ATOM     36  C   LIG    1       21.693 -20.195   4.482  0.00  0.00    +0.199 C 
ATOM     37  O   LIG    1       21.922 -19.176   3.502  0.00  0.00    -0.346 OA
BRANCH  33  38
ATOM     38  N   LIG    1       25.337 -19.906   5.578  0.00  0.00    -0.311 NA
ATOM     39  H   LIG    1       26.056 -19.736   4.865  0.00  0.00    +0.122 HD
ATOM     40  C   LIG    1       25.928 -20.625   6.689  0.00  0.00    +0.101 C 
ENDBRANCH  33  38
BRANCH  32  41
ATOM     41  O   LIG    1       25.478 -20.026   2.825  0.00  0.00    -0.385 OA
ATOM     42  H   LIG    1       25.415 -20.249   1.889  0.00  0.00    +0.210 HD
ENDBRANCH  32  41
BRANCH  34  43
ATOM     43  O   LIG    1       22.807 -19.211   6.379  0.00  0.00    -0.385 OA
ATOM     44  H   LIG    1       22.332 -18.525   5.864  0.00  0.00    +0.210 HD
ENDBRANCH  34  43
ENDBRANCH  30  31
ENDBRANCH   3  30
TORSDOF 13
ENDMDL
MODEL 3
REMARK VINA RESULT:      13.4      2.001      6.402
REMARK  Name = *****
REMARK                            x       y       z     vdW  Elec       q    Type
REMARK                         _______ _______ _______ _____ _____    ______ ____
ROOT
ATOM      1  C   LIG    1       21.726 -17.642   4.802  0.00  0.00    +0.169 C 
ATOM      2  C   LIG    1       22.314 -16.330   5.407  0.00  0.00    +0.175 C 
ATOM      3  C   LIG    1       22.532 -15.216   4.341  0.00  0.00    +0.169 C 
ATOM      4  C   LIG    1       22.748 -15.745   2.908  0.00  0.00    +0.084 C 
ATOM      5  C   LIG    1       21.555 -16.624   2.472  0.00  0.00    +0.042 C 
ATOM      6  C   LIG    1       20.759 -17.198   3.663  0.00  0.00    +0.084 C 
ENDROOT
BRANCH   4   7
ATOM      7  N   LIG    1       24.033 -16.433   2.765  0.00  0.00    -0.325 NA
ATOM      8  H   LIG    1       24.097 -17.170   3.473  0.00  0.00    +0.118 HD
ATOM      9  H   LIG    1       24.022 -16.952   1.877  0.00  0.00    +0.118 HD
ENDBRANCH   4   7
BRANCH   6  10
ATOM     10  N   LIG    1       19.770 -18.180   3.202  0.00  0.00    -0.325 NA
ATOM     11  H   LIG    1       18.886 -17.733   2.978  0.00  0.00    +0.118 HD
ATOM     12  H   LIG    1       20.102 -18.619   2.343  0.00  0.00    +0.118 HD
ENDBRANCH   6  10
BRANCH   2  13
ATOM     13  O   LIG    1       23.496 -16.570   6.178  0.00  0.00    -0.387 OA
ATOM     14  H   LIG    1       23.740 -15.702   6.560  0.00  0.00    +0.210 HD
ENDBRANCH   2  13
BRANCH   1  15
ATOM     15  O   LIG    1       22.825 -18.471   4.374  0.00  0.00    -0.342 OA
BRANCH  15  18
ATOM     16  C   LIG    1       25.363 -20.500   5.892  0.00  0.00    +0.138 C 
ATOM     17  O   LIG    1       24.751 -19.287   5.446  0.00  0.00    -0.345 OA
ATOM     18  C   LIG    1       23.330 -19.400   5.338  0.00  0.00    +0.268 C 
ATOM     19  C   LIG    1       22.842 -20.852   4.977  0.00  0.00    +0.107 C 
ATOM     20  C   LIG    1       23.885 -21.572   4.120  0.00  0.00    +0.026 C 
ATOM     21  C   LIG    1       25.273 -21.545   4.773  0.00  0.00    +0.035 C 
BRANCH  19  22
ATOM     22  N   LIG    1       21.515 -20.920   4.352  0.00  0.00    -0.323 NA
ATOM     23  H   LIG    1       20.881 -20.256   4.791  0.00  0.00    +0.119 HD
ATOM     24  H   LIG    1       21.125 -21.847   4.542  0.00  0.00    +0.119 HD
ENDBRANCH  19  22
BRANCH  16  25
ATOM     25  C   LIG    1       26.804 -20.221   6.405  0.00  0.00    +0.079 C 
ATOM     26  C   LIG    1       27.460 -21.443   7.062  0.00  0.00    +0.026 C 
BRANCH  25  28
ATOM     27  C   LIG    1       28.963 -19.219   5.773  0.00  0.00    +0.101 C 
ATOM     28  N   LIG    1       27.718 -19.815   5.313  0.00  0.00    -0.314 NA
ATOM     29  H   LIG    1       27.220 -19.143   4.727  0.00  0.00    +0.122 HD
ENDBRANCH  25  28
ENDBRANCH  16  25
ENDBRANCH  15  18
ENDBRANCH   1  15
BRANCH   3  30
ATOM     30  O   LIG    1       23.552 -14.323   4.808  0.00  0.00    -0.341 OA
BRANCH  30  31
ATOM     31  C   LIG    1       23.602 -13.034   4.185  0.00  0.00    +0.281 C 
ATOM     32  C   LIG    1       24.673 -12.055   4.741  0.00  0.00    +0.190 C 
ATOM     33  C   LIG    1       26.073 -12.741   4.736  0.00  0.00    +0.121 C 
ATOM     34  C   LIG    1       26.233 -13.602   3.436  0.00  0.00    +0.104 C 
ATOM     35  C   LIG    1       27.639 -13.448   2.850  0.00  0.00    +0.045 C 
ATOM     36  C   LIG    1       25.187 -13.224   2.362  0.00  0.00    +0.199 C 
ATOM     37  O   LIG    1       23.818 -13.238   2.785  0.00  0.00    -0.346 OA
BRANCH  33  38
ATOM     38  N   LIG    1       26.277 -13.488   6.009  0.00  0.00    -0.311 NA
ATOM     39  H   LIG    1       25.599 -13.105   6.679  0.00  0.00    +0.122 HD
ATOM     40  C   LIG    1       27.606 -13.417   6.583  0.00  0.00    +0.101 C 
ENDBRANCH  33  38
BRANCH  32  41
ATOM     41  O   LIG    1       24.357 -11.507   6.031  0.00  0.00    -0.385 OA
ATOM     42  H   LIG    1       24.859 -12.001   6.689  0.00  0.00    +0.210 HD
ENDBRANCH  32  41
BRANCH  34  43
ATOM     43  O   LIG    1       26.068 -15.000   3.730  0.00  0.00    -0.385 OA
ATOM     44  H   LIG    1       26.479 -15.128   4.611  0.00  0.00    +0.210 HD
ENDBRANCH  34  43
ENDBRANCH  30  31
ENDBRANCH   3  30
TORSDOF 13
ENDMDL
MODEL 4
REMARK VINA RESULT:      13.6      2.304      7.019
REMARK  Name = *****
REMARK                            x       y       z     vdW  Elec       q    Type
REMARK                         _______ _______ _______ _____ _____    ______ ____
ROOT
ATOM      1  C   LIG    1       27.706 -18.919   4.336  0.00  0.00    +0.169 C 
ATOM      2  C   LIG    1       27.726 -17.541   3.605  0.00  0.00    +0.175 C 
ATOM      3  C   LIG    1       28.420 -16.423   4.437  0.00  0.00    +0.169 C 
ATOM      4  C   LIG    1       28.383 -16.654   5.962  0.00  0.00    +0.084 C 
ATOM      5  C   LIG    1       29.027 -18.013   6.317  0.00  0.00    +0.042 C 
ATOM      6  C   LIG    1       29.042 -19.004   5.134  0.00  0.00    +0.084 C 
ENDROOT
BRANCH   4   7
ATOM      7  N   LIG    1       27.029 -16.517   6.506  0.00  0.00    -0.325 NA
ATOM      8  H   LIG    1       26.822 -17.330   7.092  0.00  0.00    +0.118 HD
ATOM      9  H   LIG    1       27.030 -15.733   7.172  0.00  0.00    +0.118 HD
ENDBRANCH   4   7
BRANCH   6  10
ATOM     10  N   LIG    1       29.475 -20.335   5.576  0.00  0.00    -0.325 NA
ATOM     11  H   LIG    1       28.762 -20.781   6.147  0.00  0.00    +0.118 HD
ATOM     12  H   LIG    1       29.615 -20.934   4.762  0.00  0.00    +0.118 HD
ENDBRANCH   6  10
BRANCH   2  13
ATOM     13  O   LIG    1       26.424 -17.144   3.159  0.00  0.00    -0.387 OA
ATOM     14  H   LIG    1       26.122 -16.469   3.801  0.00  0.00    +0.210 HD
ENDBRANCH   2  13
BRANCH   1  15
ATOM     15  O   LIG    1       26.513 -18.982   5.142  0.00  0.00    -0.342 OA
BRANCH  15  18
ATOM     16  C   LIG    1       23.286 -20.516   4.840  0.00  0.00    +0.138 C 
ATOM     17  O   LIG    1       24.316 -19.568   4.549  0.00  0.00    -0.345 OA
ATOM     18  C   LIG    1       25.619 -20.064   4.865  0.00  0.00    +0.268 C 
ATOM     19  C   LIG    1       25.628 -21.078   6.069  0.00  0.00    +0.107 C 
ATOM     20  C   LIG    1       24.509 -20.747   7.059  0.00  0.00    +0.026 C 
ATOM     21  C   LIG    1       23.146 -20.648   6.362  0.00  0.00    +0.035 C 
BRANCH  19  22
ATOM     22  N   LIG    1       26.918 -21.203   6.761  0.00  0.00    -0.323 NA
ATOM     23  H   LIG    1       27.581 -20.519   6.402  0.00  0.00    +0.119 HD
ATOM     24  H   LIG    1       27.310 -22.120   6.533  0.00  0.00    +0.119 HD
ENDBRANCH  19  22
BRANCH  16  25
ATOM     25  C   LIG    1       21.973 -20.132   4.099  0.00  0.00    +0.079 C 
ATOM     26  C   LIG    1       20.754 -20.932   4.575  0.00  0.00    +0.026 C 
BRANCH  25  28
ATOM     27  C   LIG    1       20.579 -18.228   3.394  0.00  0.00    +0.101 C 
ATOM     28  N   LIG    1       21.618 -18.707   4.294  0.00  0.00    -0.314 NA
ATOM     29  H   LIG    1       22.465 -18.155   4.154  0.00  0.00    +0.122 HD
ENDBRANCH  25  28
ENDBRANCH  16  25
ENDBRANCH  15  18
ENDBRANCH   1  15
BRANCH   3  30
ATOM     30  O   LIG    1       27.915 -15.149   4.015  0.00  0.00    -0.341 OA
BRANCH  30  31
ATOM     31  C   LIG    1       27.057 -14.468   4.937  0.00  0.00    +0.281 C 
ATOM     32  C   LIG    1       27.181 -12.919   4.959  0.00  0.00    +0.190 C 
ATOM     33  C   LIG    1       27.021 -12.354   3.515  0.00  0.00    +0.121 C 
ATOM     34  C   LIG    1       25.908 -13.155   2.755  0.00  0.00    +0.104 C 
ATOM     35  C   LIG    1       25.028 -12.214   1.929  0.00  0.00    +0.045 C 
ATOM     36  C   LIG    1       25.020 -13.967   3.726  0.00  0.00    +0.199 C 
ATOM     37  O   LIG    1       25.709 -14.838   4.631  0.00  0.00    -0.346 OA
BRANCH  33  38
ATOM     38  N   LIG    1       28.346 -12.324   2.832  0.00  0.00    -0.311 NA
ATOM     39  H   LIG    1       28.213 -12.792   1.927  0.00  0.00    +0.122 HD
ATOM     40  C   LIG    1       29.442 -12.957   3.540  0.00  0.00    +0.101 C 
ENDBRANCH  33  38
BRANCH  32  41
ATOM     41  O   LIG    1       28.377 -12.433   5.588  0.00  0.00    -0.385 OA
ATOM     42  H   LIG    1       28.650 -13.088   6.241  0.00  0.00    +0.210 HD
ENDBRANCH  32  41
BRANCH  34  43
ATOM     43  O   LIG    1       26.495 -14.081   1.825  0.00  0.00    -0.385 OA
ATOM     44  H   LIG    1       25.747 -14.619   1.491  0.00  0.00    +0.210 HD
ENDBRANCH  34  43
ENDBRANCH  30  31
ENDBRANCH   3  30
TORSDOF 13
ENDMDL
