MODEL 1
REMARK VINA RESULT:      -3.4      0.000      0.000
REMARK  Name = *****
REMARK                            x       y       z     vdW  Elec       q    Type
REMARK                         _______ _______ _______ _____ _____    ______ ____
ROOT
ATOM      1  C   LIG    1       22.678 -19.010   3.652  0.00  0.00    +0.165 C 
ATOM      2  C   LIG    1       24.025 -19.637   3.434  0.00  0.00    +0.249 C 
ATOM      3  O   LIG    1       24.179 -20.754   2.947  0.00  0.00    -0.273 OA
ATOM      4  N   LIG    1       24.968 -18.765   3.986  0.00  0.00    -0.180 N 
ATOM      5  N   LIG    1       24.354 -17.508   4.270  0.00  0.00    -0.180 N 
ATOM      6  C   LIG    1       22.963 -17.609   4.094  0.00  0.00    +0.249 C 
ATOM      7  O   LIG    1       22.106 -16.735   4.181  0.00  0.00    -0.273 OA
ENDROOT
BRANCH   4   8
ATOM      8  C   LIG    1       26.137 -19.217   4.686  0.00  0.00    +0.057 A 
ATOM      9  C   LIG    1       27.370 -18.555   4.551  0.00  0.00    +0.029 A 
ATOM     10  C   LIG    1       28.485 -18.930   5.312  0.00  0.00    +0.047 A 
ATOM     11  C   LIG    1       28.381 -19.967   6.226  0.00  0.00    +0.117 A 
ATOM     12  C   LIG    1       27.192 -20.665   6.360  0.00  0.00    +0.047 A 
ATOM     13  C   LIG    1       26.085 -20.299   5.583  0.00  0.00    +0.029 A 
BRANCH  11  14
ATOM     14  O   LIG    1       29.474 -20.265   6.983  0.00  0.00    -0.507 OA
ATOM     15  H   LIG    1       29.190 -20.403   7.902  0.00  0.00    +0.292 HD
ENDBRANCH  11  14
ENDBRANCH   4   8
BRANCH   5  16
ATOM     16  C   LIG    1       24.968 -16.284   3.872  0.00  0.00    +0.057 A 
ATOM     17  C   LIG    1       26.263 -16.288   3.337  0.00  0.00    +0.025 A 
ATOM     18  C   LIG    1       26.886 -15.088   2.992  0.00  0.00    +0.002 A 
ATOM     19  C   LIG    1       26.225 -13.879   3.189  0.00  0.00    +0.000 A 
ATOM     20  C   LIG    1       24.934 -13.866   3.713  0.00  0.00    +0.002 A 
ATOM     21  C   LIG    1       24.303 -15.065   4.042  0.00  0.00    +0.025 A 
ENDBRANCH   5  16
BRANCH   1  22
ATOM     22  C   LIG    1       21.843 -19.772   4.680  0.00  0.00    +0.022 C 
BRANCH  22  23
ATOM     23  C   LIG    1       22.194 -21.262   4.835  0.00  0.00    +0.001 C 
BRANCH  23  25
ATOM     24  C   LIG    1       23.094 -20.357   7.051  0.00  0.00    +0.004 C 
ATOM     25  C   LIG    1       22.984 -21.553   6.115  0.00  0.00    -0.003 C 
ENDBRANCH  23  25
ENDBRANCH  22  23
ENDBRANCH   1  22
TORSDOF 6
ENDMDL
MODEL 2
REMARK VINA RESULT:      -2.3      0.350      1.432
REMARK  Name = *****
REMARK                            x       y       z     vdW  Elec       q    Type
REMARK                         _______ _______ _______ _____ _____    ______ ____
ROOT
ATOM      1  C   LIG    1       22.622 -19.328   3.601  0.00  0.00    +0.165 C 
ATOM      2  C   LIG    1       24.010 -19.874   3.435  0.00  0.00    +0.249 C 
ATOM      3  O   LIG    1       24.250 -20.972   2.940  0.00  0.00    -0.273 OA
ATOM      4  N   LIG    1       24.878 -18.959   4.041  0.00  0.00    -0.180 N 
ATOM      5  N   LIG    1       24.181 -17.743   4.314  0.00  0.00    -0.180 N 
ATOM      6  C   LIG    1       22.806 -17.921   4.075  0.00  0.00    +0.249 C 
ATOM      7  O   LIG    1       21.897 -17.098   4.136  0.00  0.00    -0.273 OA
ENDROOT
BRANCH   4   8
ATOM      8  C   LIG    1       26.039 -19.356   4.786  0.00  0.00    +0.057 A 
ATOM      9  C   LIG    1       25.996 -20.442   5.678  0.00  0.00    +0.029 A 
ATOM     10  C   LIG    1       27.151 -20.896   6.327  0.00  0.00    +0.047 A 
ATOM     11  C   LIG    1       28.368 -20.278   6.087  0.00  0.00    +0.117 A 
ATOM     12  C   LIG    1       28.441 -19.182   5.242  0.00  0.00    +0.047 A 
ATOM     13  C   LIG    1       27.279 -18.719   4.609  0.00  0.00    +0.029 A 
BRANCH  11  14
ATOM     14  O   LIG    1       29.475 -20.784   6.698  0.00  0.00    -0.507 OA
ATOM     15  H   LIG    1       29.366 -20.704   7.660  0.00  0.00    +0.292 HD
ENDBRANCH  11  14
ENDBRANCH   4   8
BRANCH   5  16
ATOM     16  C   LIG    1       24.740 -16.481   3.962  0.00  0.00    +0.057 A 
ATOM     17  C   LIG    1       24.038 -15.299   4.235  0.00  0.00    +0.025 A 
ATOM     18  C   LIG    1       24.559 -14.064   3.848  0.00  0.00    +0.002 A 
ATOM     19  C   LIG    1       25.778 -14.003   3.177  0.00  0.00    +0.000 A 
ATOM     20  C   LIG    1       26.487 -15.172   2.909  0.00  0.00    +0.002 A 
ATOM     21  C   LIG    1       25.976 -16.406   3.310  0.00  0.00    +0.025 A 
ENDBRANCH   5  16
BRANCH   1  22
ATOM     22  C   LIG    1       21.788 -20.153   4.580  0.00  0.00    +0.022 C 
BRANCH  22  23
ATOM     23  C   LIG    1       22.410 -21.495   5.003  0.00  0.00    +0.001 C 
BRANCH  23  25
ATOM     24  C   LIG    1       23.401 -20.349   7.062  0.00  0.00    +0.004 C 
ATOM     25  C   LIG    1       22.683 -21.572   6.508  0.00  0.00    -0.003 C 
ENDBRANCH  23  25
ENDBRANCH  22  23
ENDBRANCH   1  22
TORSDOF 6
ENDMDL
MODEL 3
REMARK VINA RESULT:      -1.8      1.936      5.275
REMARK  Name = *****
REMARK                            x       y       z     vdW  Elec       q    Type
REMARK                         _______ _______ _______ _____ _____    ______ ____
ROOT
ATOM      1  C   LIG    1       24.896 -20.566   5.297  0.00  0.00    +0.165 C 
ATOM      2  C   LIG    1       25.317 -19.609   4.220  0.00  0.00    +0.249 C 
ATOM      3  O   LIG    1       26.401 -19.673   3.645  0.00  0.00    -0.273 OA
ATOM      4  N   LIG    1       24.313 -18.641   4.126  0.00  0.00    -0.180 N 
ATOM      5  N   LIG    1       23.160 -19.072   4.848  0.00  0.00    -0.180 N 
ATOM      6  C   LIG    1       23.467 -20.229   5.585  0.00  0.00    +0.249 C 
ATOM      7  O   LIG    1       22.729 -20.927   6.276  0.00  0.00    -0.273 OA
ENDROOT
BRANCH   4   8
ATOM      8  C   LIG    1       24.584 -17.252   3.882  0.00  0.00    +0.057 A 
ATOM      9  C   LIG    1       23.661 -16.255   4.242  0.00  0.00    +0.029 A 
ATOM     10  C   LIG    1       23.967 -14.895   4.101  0.00  0.00    +0.047 A 
ATOM     11  C   LIG    1       25.204 -14.512   3.607  0.00  0.00    +0.117 A 
ATOM     12  C   LIG    1       26.124 -15.468   3.208  0.00  0.00    +0.047 A 
ATOM     13  C   LIG    1       25.807 -16.827   3.333  0.00  0.00    +0.029 A 
BRANCH  11  14
ATOM     14  O   LIG    1       25.480 -13.180   3.535  0.00  0.00    -0.507 OA
ATOM     15  H   LIG    1       25.678 -12.951   2.612  0.00  0.00    +0.292 HD
ENDBRANCH  11  14
ENDBRANCH   4   8
BRANCH   5  16
ATOM     16  C   LIG    1       21.860 -19.003   4.267  0.00  0.00    +0.057 A 
ATOM     17  C   LIG    1       21.029 -20.131   4.267  0.00  0.00    +0.025 A 
ATOM     18  C   LIG    1       19.775 -20.083   3.655  0.00  0.00    +0.002 A 
ATOM     19  C   LIG    1       19.350 -18.912   3.032  0.00  0.00    +0.000 A 
ATOM     20  C   LIG    1       20.167 -17.783   3.035  0.00  0.00    +0.002 A 
ATOM     21  C   LIG    1       21.412 -17.824   3.660  0.00  0.00    +0.025 A 
ENDBRANCH   5  16
BRANCH   1  22
ATOM     22  C   LIG    1       25.769 -20.452   6.546  0.00  0.00    +0.022 C 
BRANCH  22  23
ATOM     23  C   LIG    1       26.832 -21.554   6.707  0.00  0.00    +0.001 C 
BRANCH  23  25
ATOM     24  C   LIG    1       28.639 -19.828   6.164  0.00  0.00    +0.004 C 
ATOM     25  C   LIG    1       28.216 -20.993   7.048  0.00  0.00    -0.003 C 
ENDBRANCH  23  25
ENDBRANCH  22  23
ENDBRANCH   1  22
TORSDOF 6
ENDMDL
