MODEL 1
REMARK VINA RESULT:      -4.1      0.000      0.000
REMARK  Name = *****
REMARK                            x       y       z     vdW  Elec       q    Type
REMARK                         _______ _______ _______ _____ _____    ______ ____
ROOT
ATOM      1  N   LIG    1       22.322 -17.940   3.718  0.00  0.00    -0.311 NA
ATOM      2  H   LIG    1       22.868 -18.370   2.972  0.00  0.00    +0.122 HD
ENDROOT
BRANCH   1   3
ATOM      3  C   LIG    1       23.154 -16.992   4.476  0.00  0.00    +0.115 C 
BRANCH   3   4
ATOM      4  C   LIG    1       22.491 -15.595   4.625  0.00  0.00    +0.169 C 
BRANCH   4   5
ATOM      5  C   LIG    1       23.531 -14.483   4.372  0.00  0.00    +0.203 C 
ATOM      6  O   LIG    1       24.823 -15.049   4.655  0.00  0.00    -0.486 OA
ATOM      7  C   LIG    1       25.901 -14.334   4.233  0.00  0.00    +0.124 A 
ATOM      8  C   LIG    1       25.824 -13.273   3.321  0.00  0.00    -0.003 A 
ATOM      9  C   LIG    1       26.999 -12.619   2.943  0.00  0.00    +0.045 A 
ATOM     10  C   LIG    1       28.230 -13.041   3.447  0.00  0.00    +0.124 A 
ATOM     11  C   LIG    1       28.303 -14.109   4.341  0.00  0.00    +0.042 A 
ATOM     12  F   LIG    1       29.347 -12.421   3.069  0.00  0.00    -0.205 F 
ATOM     13  C   LIG    1       24.493 -12.832   2.783  0.00  0.00    +0.042 C 
ATOM     14  C   LIG    1       27.139 -14.753   4.731  0.00  0.00    +0.049 A 
ATOM     15  C   LIG    1       23.459 -13.940   2.943  0.00  0.00    +0.052 C 
ENDBRANCH   4   5
BRANCH   4  16
ATOM     16  O   LIG    1       21.909 -15.446   5.924  0.00  0.00    -0.387 OA
ATOM     17  H   LIG    1       21.576 -16.334   6.158  0.00  0.00    +0.210 HD
ENDBRANCH   4  16
ENDBRANCH   3   4
ENDBRANCH   1   3
BRANCH   1  18
ATOM     18  C   LIG    1       21.813 -19.014   4.597  0.00  0.00    +0.115 C 
BRANCH  18  19
ATOM     19  C   LIG    1       22.271 -20.444   4.204  0.00  0.00    +0.169 C 
BRANCH  19  20
ATOM     20  C   LIG    1       23.572 -20.877   4.916  0.00  0.00    +0.203 C 
ATOM     21  O   LIG    1       24.609 -19.967   4.511  0.00  0.00    -0.486 OA
ATOM     22  C   LIG    1       25.793 -20.086   5.173  0.00  0.00    +0.124 A 
ATOM     23  C   LIG    1       25.911 -20.718   6.415  0.00  0.00    -0.003 A 
ATOM     24  C   LIG    1       27.162 -20.748   7.037  0.00  0.00    +0.045 A 
ATOM     25  C   LIG    1       28.256 -20.135   6.430  0.00  0.00    +0.124 A 
ATOM     26  C   LIG    1       28.133 -19.499   5.199  0.00  0.00    +0.042 A 
ATOM     27  F   LIG    1       29.445 -20.153   7.043  0.00  0.00    -0.205 F 
ATOM     28  C   LIG    1       24.719 -21.369   7.054  0.00  0.00    +0.042 C 
ATOM     29  C   LIG    1       26.894 -19.475   4.568  0.00  0.00    +0.049 A 
ATOM     30  C   LIG    1       23.428 -20.842   6.438  0.00  0.00    +0.052 C 
ENDBRANCH  19  20
BRANCH  19  31
ATOM     31  O   LIG    1       21.212 -21.378   4.461  0.00  0.00    -0.387 OA
ATOM     32  H   LIG    1       21.455 -22.194   3.985  0.00  0.00    +0.210 HD
ENDBRANCH  19  31
ENDBRANCH  18  19
ENDBRANCH   1  18
TORSDOF 8
ENDMDL
MODEL 2
REMARK VINA RESULT:      -2.6      1.177      6.591
REMARK  Name = *****
REMARK                            x       y       z     vdW  Elec       q    Type
REMARK                         _______ _______ _______ _____ _____    ______ ____
ROOT
ATOM      1  N   LIG    1       21.375 -17.857   4.269  0.00  0.00    -0.311 NA
ATOM      2  H   LIG    1       20.677 -18.042   4.989  0.00  0.00    +0.122 HD
ENDROOT
BRANCH   1   3
ATOM      3  C   LIG    1       22.026 -19.110   3.857  0.00  0.00    +0.115 C 
BRANCH   3   4
ATOM      4  C   LIG    1       21.889 -20.237   4.917  0.00  0.00    +0.169 C 
BRANCH   4   5
ATOM      5  C   LIG    1       23.280 -20.800   5.278  0.00  0.00    +0.203 C 
ATOM      6  O   LIG    1       24.251 -19.880   4.749  0.00  0.00    -0.486 OA
ATOM      7  C   LIG    1       25.530 -20.032   5.190  0.00  0.00    +0.124 A 
ATOM      8  C   LIG    1       25.884 -20.808   6.301  0.00  0.00    -0.003 A 
ATOM      9  C   LIG    1       27.228 -20.880   6.676  0.00  0.00    +0.045 A 
ATOM     10  C   LIG    1       28.193 -20.164   5.967  0.00  0.00    +0.124 A 
ATOM     11  C   LIG    1       27.833 -19.378   4.871  0.00  0.00    +0.042 A 
ATOM     12  F   LIG    1       29.470 -20.226   6.341  0.00  0.00    -0.205 F 
ATOM     13  C   LIG    1       24.834 -21.571   7.058  0.00  0.00    +0.042 C 
ATOM     14  C   LIG    1       26.502 -19.314   4.486  0.00  0.00    +0.049 A 
ATOM     15  C   LIG    1       23.453 -20.988   6.787  0.00  0.00    +0.052 C 
ENDBRANCH   4   5
BRANCH   4  16
ATOM     16  O   LIG    1       21.037 -21.283   4.440  0.00  0.00    -0.387 OA
ATOM     17  H   LIG    1       20.179 -20.852   4.263  0.00  0.00    +0.210 HD
ENDBRANCH   4  16
ENDBRANCH   3   4
ENDBRANCH   1   3
BRANCH   1  18
ATOM     18  C   LIG    1       22.364 -16.904   4.817  0.00  0.00    +0.115 C 
BRANCH  18  19
ATOM     19  C   LIG    1       23.382 -16.359   3.779  0.00  0.00    +0.169 C 
BRANCH  19  20
ATOM     20  C   LIG    1       24.293 -15.253   4.354  0.00  0.00    +0.203 C 
ATOM     21  O   LIG    1       25.600 -15.430   3.781  0.00  0.00    -0.486 OA
ATOM     22  C   LIG    1       26.499 -14.439   4.038  0.00  0.00    +0.124 A 
ATOM     23  C   LIG    1       26.121 -13.156   4.450  0.00  0.00    -0.003 A 
ATOM     24  C   LIG    1       27.115 -12.193   4.644  0.00  0.00    +0.045 A 
ATOM     25  C   LIG    1       28.450 -12.513   4.404  0.00  0.00    +0.124 A 
ATOM     26  C   LIG    1       28.821 -13.787   3.985  0.00  0.00    +0.042 A 
ATOM     27  F   LIG    1       29.392 -11.577   4.573  0.00  0.00    -0.205 F 
ATOM     28  C   LIG    1       24.677 -12.831   4.699  0.00  0.00    +0.042 C 
ATOM     29  C   LIG    1       27.838 -14.754   3.801  0.00  0.00    +0.049 A 
ATOM     30  C   LIG    1       23.774 -13.854   4.018  0.00  0.00    +0.052 C 
ENDBRANCH  19  20
BRANCH  19  31
ATOM     31  O   LIG    1       24.162 -17.443   3.253  0.00  0.00    -0.387 OA
ATOM     32  H   LIG    1       25.040 -17.366   3.671  0.00  0.00    +0.210 HD
ENDBRANCH  19  31
ENDBRANCH  18  19
ENDBRANCH   1  18
TORSDOF 8
ENDMDL
