MODEL 1
REMARK VINA RESULT:       0.0      0.000      0.000
REMARK  Name = *****
REMARK                            x       y       z     vdW  Elec       q    Type
REMARK                         _______ _______ _______ _____ _____    ______ ____
ROOT
ATOM      1  O   LIG    1       25.710 -16.522   2.983  0.00  0.00    -0.252 OA
ATOM      2  C   LIG    1       25.076 -17.366   3.593  0.00  0.00    +0.306 C 
ATOM      3  N   LIG    1       25.471 -18.684   3.855  0.00  0.00    -0.271 N 
ATOM      4  C   LIG    1       24.611 -19.252   4.891  0.00  0.00    +0.155 C 
ATOM      5  C   LIG    1       23.325 -18.437   4.735  0.00  0.00    +0.152 C 
ATOM      6  C   LIG    1       22.413 -19.173   3.749  0.00  0.00    +0.302 C 
ATOM      7  S   LIG    1       22.867 -20.941   3.642  0.00  0.00    -0.004 S 
ATOM      8  C   LIG    1       21.761 -21.572   4.944  0.00  0.00    +0.278 C 
ATOM      9  C   LIG    1       22.339 -21.179   6.286  0.00  0.00    +0.059 C 
ATOM     10  C   LIG    1       23.841 -21.351   6.148  0.00  0.00    +0.064 C 
ATOM     11  C   LIG    1       24.280 -20.740   4.811  0.00  0.00    +0.230 C 
ATOM     12  N   LIG    1       23.829 -17.187   4.187  0.00  0.00    -0.272 N 
ENDROOT
BRANCH   3  13
ATOM     13  C   LIG    1       26.825 -19.139   3.587  0.00  0.00    +0.145 C 
BRANCH  13  14
ATOM     14  C   LIG    1       27.694 -19.265   4.817  0.00  0.00    -0.030 A 
ATOM     15  C   LIG    1       27.633 -20.387   5.657  0.00  0.00    +0.005 A 
ATOM     16  C   LIG    1       28.457 -20.483   6.780  0.00  0.00    +0.000 A 
ATOM     17  C   LIG    1       29.375 -19.476   7.062  0.00  0.00    +0.000 A 
ATOM     18  C   LIG    1       29.475 -18.372   6.216  0.00  0.00    +0.000 A 
ATOM     19  C   LIG    1       28.643 -18.270   5.099  0.00  0.00    +0.005 A 
ENDBRANCH  13  14
ENDBRANCH   3  13
BRANCH  12  20
ATOM     20  C   LIG    1       23.044 -15.974   4.074  0.00  0.00    +0.145 C 
BRANCH  20  21
ATOM     21  C   LIG    1       23.904 -14.744   3.931  0.00  0.00    -0.030 A 
ATOM     22  C   LIG    1       23.666 -13.831   2.892  0.00  0.00    +0.005 A 
ATOM     23  C   LIG    1       24.436 -12.672   2.774  0.00  0.00    +0.000 A 
ATOM     24  C   LIG    1       25.445 -12.409   3.698  0.00  0.00    +0.000 A 
ATOM     25  C   LIG    1       25.687 -13.307   4.738  0.00  0.00    +0.000 A 
ATOM     26  C   LIG    1       24.920 -14.468   4.856  0.00  0.00    +0.005 A 
ENDBRANCH  20  21
ENDBRANCH  12  20
TORSDOF 4
ENDMDL
MODEL 2
REMARK VINA RESULT:       0.2      1.872      6.336
REMARK  Name = *****
REMARK                            x       y       z     vdW  Elec       q    Type
REMARK                         _______ _______ _______ _____ _____    ______ ____
ROOT
ATOM      1  O   LIG    1       24.987 -19.126   3.347  0.00  0.00    -0.252 OA
ATOM      2  C   LIG    1       25.030 -17.931   3.584  0.00  0.00    +0.306 C 
ATOM      3  N   LIG    1       23.938 -17.067   3.734  0.00  0.00    -0.271 N 
ATOM      4  C   LIG    1       24.388 -15.818   4.346  0.00  0.00    +0.155 C 
ATOM      5  C   LIG    1       25.862 -15.763   3.937  0.00  0.00    +0.152 C 
ATOM      6  C   LIG    1       25.958 -15.003   2.610  0.00  0.00    +0.302 C 
ATOM      7  S   LIG    1       24.487 -13.947   2.360  0.00  0.00    -0.004 S 
ATOM      8  C   LIG    1       25.123 -12.427   3.135  0.00  0.00    +0.278 C 
ATOM      9  C   LIG    1       25.117 -12.624   4.635  0.00  0.00    +0.059 C 
ATOM     10  C   LIG    1       23.840 -13.384   4.941  0.00  0.00    +0.064 C 
ATOM     11  C   LIG    1       23.697 -14.524   3.924  0.00  0.00    +0.230 C 
ATOM     12  N   LIG    1       26.182 -17.174   3.784  0.00  0.00    -0.272 N 
ENDROOT
BRANCH   3  13
ATOM     13  C   LIG    1       22.578 -17.570   3.826  0.00  0.00    +0.145 C 
BRANCH  13  14
ATOM     14  C   LIG    1       22.454 -18.906   4.521  0.00  0.00    -0.030 A 
ATOM     15  C   LIG    1       21.694 -19.956   3.982  0.00  0.00    +0.005 A 
ATOM     16  C   LIG    1       21.606 -21.184   4.639  0.00  0.00    +0.000 A 
ATOM     17  C   LIG    1       22.301 -21.392   5.827  0.00  0.00    +0.000 A 
ATOM     18  C   LIG    1       23.090 -20.372   6.356  0.00  0.00    +0.000 A 
ATOM     19  C   LIG    1       23.169 -19.140   5.705  0.00  0.00    +0.005 A 
ENDBRANCH  13  14
ENDBRANCH   3  13
BRANCH  12  20
ATOM     20  C   LIG    1       27.527 -17.691   3.637  0.00  0.00    +0.145 C 
BRANCH  20  21
ATOM     21  C   LIG    1       27.953 -18.531   4.814  0.00  0.00    -0.030 A 
ATOM     22  C   LIG    1       29.093 -18.184   5.555  0.00  0.00    +0.005 A 
ATOM     23  C   LIG    1       29.474 -18.937   6.668  0.00  0.00    +0.000 A 
ATOM     24  C   LIG    1       28.714 -20.039   7.057  0.00  0.00    +0.000 A 
ATOM     25  C   LIG    1       27.576 -20.390   6.330  0.00  0.00    +0.000 A 
ATOM     26  C   LIG    1       27.196 -19.640   5.215  0.00  0.00    +0.005 A 
ENDBRANCH  20  21
ENDBRANCH  12  20
TORSDOF 4
ENDMDL
MODEL 3
REMARK VINA RESULT:       0.6      1.919      5.460
REMARK  Name = *****
REMARK                            x       y       z     vdW  Elec       q    Type
REMARK                         _______ _______ _______ _____ _____    ______ ____
ROOT
ATOM      1  O   LIG    1       24.803 -19.108   4.039  0.00  0.00    -0.252 OA
ATOM      2  C   LIG    1       24.669 -17.914   3.834  0.00  0.00    +0.306 C 
ATOM      3  N   LIG    1       25.689 -16.987   3.585  0.00  0.00    -0.271 N 
ATOM      4  C   LIG    1       25.108 -15.757   3.053  0.00  0.00    +0.155 C 
ATOM      5  C   LIG    1       23.687 -15.792   3.619  0.00  0.00    +0.152 C 
ATOM      6  C   LIG    1       23.694 -15.059   4.965  0.00  0.00    +0.302 C 
ATOM      7  S   LIG    1       25.124 -13.926   5.079  0.00  0.00    -0.004 S 
ATOM      8  C   LIG    1       24.325 -12.432   4.410  0.00  0.00    +0.278 C 
ATOM      9  C   LIG    1       24.178 -12.604   2.914  0.00  0.00    +0.059 C 
ATOM     10  C   LIG    1       25.454 -13.286   2.456  0.00  0.00    +0.064 C 
ATOM     11  C   LIG    1       25.769 -14.432   3.426  0.00  0.00    +0.230 C 
ATOM     12  N   LIG    1       23.463 -17.221   3.775  0.00  0.00    -0.272 N 
ENDROOT
BRANCH   3  13
ATOM     13  C   LIG    1       27.057 -17.411   3.337  0.00  0.00    +0.145 C 
BRANCH  13  14
ATOM     14  C   LIG    1       27.687 -18.181   4.474  0.00  0.00    -0.030 A 
ATOM     15  C   LIG    1       27.174 -19.412   4.912  0.00  0.00    +0.005 A 
ATOM     16  C   LIG    1       27.783 -20.108   5.957  0.00  0.00    +0.000 A 
ATOM     17  C   LIG    1       28.931 -19.601   6.559  0.00  0.00    +0.000 A 
ATOM     18  C   LIG    1       29.475 -18.398   6.111  0.00  0.00    +0.000 A 
ATOM     19  C   LIG    1       28.859 -17.696   5.073  0.00  0.00    +0.005 A 
ENDBRANCH  13  14
ENDBRANCH   3  13
BRANCH  12  20
ATOM     20  C   LIG    1       22.172 -17.815   4.056  0.00  0.00    +0.145 C 
BRANCH  20  21
ATOM     21  C   LIG    1       22.290 -19.120   4.802  0.00  0.00    -0.030 A 
ATOM     22  C   LIG    1       21.757 -20.298   4.256  0.00  0.00    +0.005 A 
ATOM     23  C   LIG    1       21.893 -21.516   4.925  0.00  0.00    +0.000 A 
ATOM     24  C   LIG    1       22.571 -21.572   6.141  0.00  0.00    +0.000 A 
ATOM     25  C   LIG    1       23.109 -20.408   6.691  0.00  0.00    +0.000 A 
ATOM     26  C   LIG    1       22.971 -19.188   6.025  0.00  0.00    +0.005 A 
ENDBRANCH  20  21
ENDBRANCH  12  20
TORSDOF 4
ENDMDL
MODEL 4
REMARK VINA RESULT:       2.2      3.063      6.533
REMARK  Name = *****
REMARK                            x       y       z     vdW  Elec       q    Type
REMARK                         _______ _______ _______ _____ _____    ______ ____
ROOT
ATOM      1  O   LIG    1       25.435 -17.663   3.772  0.00  0.00    -0.252 OA
ATOM      2  C   LIG    1       24.997 -16.527   3.715  0.00  0.00    +0.306 C 
ATOM      3  N   LIG    1       25.743 -15.345   3.634  0.00  0.00    -0.271 N 
ATOM      4  C   LIG    1       24.868 -14.244   3.237  0.00  0.00    +0.155 C 
ATOM      5  C   LIG    1       23.498 -14.719   3.730  0.00  0.00    +0.152 C 
ATOM      6  C   LIG    1       23.301 -14.198   5.157  0.00  0.00    +0.302 C 
ATOM      7  S   LIG    1       24.386 -12.762   5.479  0.00  0.00    -0.004 S 
ATOM      8  C   LIG    1       23.232 -11.447   4.971  0.00  0.00    +0.278 C 
ATOM      9  C   LIG    1       23.151 -11.447   3.460  0.00  0.00    +0.059 C 
ATOM     10  C   LIG    1       24.565 -11.710   2.977  0.00  0.00    +0.064 C 
ATOM     11  C   LIG    1       25.157 -12.857   3.806  0.00  0.00    +0.230 C 
ATOM     12  N   LIG    1       23.653 -16.165   3.692  0.00  0.00    -0.272 N 
ENDROOT
BRANCH   3  13
ATOM     13  C   LIG    1       27.177 -15.366   3.395  0.00  0.00    +0.145 C 
BRANCH  13  14
ATOM     14  C   LIG    1       27.915 -14.162   3.932  0.00  0.00    -0.030 A 
ATOM     15  C   LIG    1       28.723 -13.360   3.112  0.00  0.00    +0.005 A 
ATOM     16  C   LIG    1       29.385 -12.246   3.631  0.00  0.00    +0.000 A 
ATOM     17  C   LIG    1       29.223 -11.899   4.970  0.00  0.00    +0.000 A 
ATOM     18  C   LIG    1       28.395 -12.664   5.789  0.00  0.00    +0.000 A 
ATOM     19  C   LIG    1       27.742 -13.784   5.272  0.00  0.00    +0.005 A 
ENDBRANCH  13  14
ENDBRANCH   3  13
BRANCH  12  20
ATOM     20  C   LIG    1       22.558 -17.104   3.836  0.00  0.00    +0.145 C 
BRANCH  20  21
ATOM     21  C   LIG    1       23.028 -18.477   4.243  0.00  0.00    -0.030 A 
ATOM     22  C   LIG    1       22.733 -18.976   5.521  0.00  0.00    +0.005 A 
ATOM     23  C   LIG    1       23.135 -20.261   5.893  0.00  0.00    +0.000 A 
ATOM     24  C   LIG    1       23.826 -21.064   4.987  0.00  0.00    +0.000 A 
ATOM     25  C   LIG    1       24.119 -20.580   3.712  0.00  0.00    +0.000 A 
ATOM     26  C   LIG    1       23.722 -19.294   3.340  0.00  0.00    +0.005 A 
ENDBRANCH  20  21
ENDBRANCH  12  20
TORSDOF 4
ENDMDL
