MODEL 1
REMARK VINA RESULT:       3.6      0.000      0.000
REMARK  Name = *****
REMARK                            x       y       z     vdW  Elec       q    Type
REMARK                         _______ _______ _______ _____ _____    ______ ____
ROOT
ATOM      1  C   LIG    1       23.999 -14.934   3.883  0.00  0.00    +0.256 C 
ATOM      2  C   LIG    1       25.281 -15.744   4.206  0.00  0.00    +0.048 C 
ATOM      3  C   LIG    1       26.544 -14.959   3.838  0.00  0.00    +0.013 C 
ATOM      4  C   LIG    1       25.190 -17.121   3.506  0.00  0.00    +0.037 C 
ATOM      5  C   LIG    1       23.909 -17.883   3.960  0.00  0.00    +0.161 C 
ATOM      6  C   LIG    1       24.233 -19.107   4.865  0.00  0.00    +0.032 C 
ATOM      7  C   LIG    1       25.204 -20.110   4.173  0.00  0.00    -0.008 C 
ATOM      8  C   LIG    1       25.956 -20.953   5.216  0.00  0.00    +0.008 C 
ATOM      9  C   LIG    1       26.222 -19.409   3.255  0.00  0.00    +0.004 C 
ATOM     10  C   LIG    1       22.963 -19.830   5.380  0.00  0.00    +0.012 C 
ATOM     11  C   LIG    1       21.758 -19.856   4.426  0.00  0.00    +0.068 C 
ATOM     12  C   LIG    1       21.325 -18.460   3.922  0.00  0.00    +0.203 C 
ATOM     13  C   LIG    1       19.816 -18.429   3.684  0.00  0.00    +0.077 C 
ATOM     14  O   LIG    1       21.933 -18.124   2.672  0.00  0.00    -0.199 OA
ATOM     15  O   LIG    1       21.624 -17.476   4.909  0.00  0.00    -0.314 OA
ATOM     16  C   LIG    1       22.923 -16.917   4.692  0.00  0.00    +0.292 C 
ATOM     17  O   LIG    1       23.350 -18.455   2.750  0.00  0.00    -0.220 OA
ATOM     18  C   LIG    1       26.466 -17.964   3.670  0.00  0.00    +0.007 C 
ATOM     19  O   LIG    1       22.789 -15.672   4.022  0.00  0.00    -0.319 OA
ENDROOT
BRANCH   1  20
ATOM     20  O   LIG    1       24.110 -14.448   2.543  0.00  0.00    -0.351 OA
BRANCH  20  22
ATOM     21  C   LIG    1       23.970 -12.456   3.840  0.00  0.00    +0.034 C 
ATOM     22  C   LIG    1       24.321 -13.040   2.486  0.00  0.00    +0.159 C 
ENDBRANCH  20  22
ENDBRANCH   1  20
TORSDOF 2
ENDMDL
MODEL 2
REMARK VINA RESULT:       4.6      1.717      5.623
REMARK  Name = *****
REMARK                            x       y       z     vdW  Elec       q    Type
REMARK                         _______ _______ _______ _____ _____    ______ ____
ROOT
ATOM      1  C   LIG    1       23.563 -16.685   3.613  0.00  0.00    +0.256 C 
ATOM      2  C   LIG    1       25.057 -16.860   3.237  0.00  0.00    +0.048 C 
ATOM      3  C   LIG    1       25.480 -18.331   3.306  0.00  0.00    +0.013 C 
ATOM      4  C   LIG    1       25.909 -15.935   4.138  0.00  0.00    +0.037 C 
ATOM      5  C   LIG    1       25.456 -14.451   3.983  0.00  0.00    +0.161 C 
ATOM      6  C   LIG    1       26.506 -13.582   3.232  0.00  0.00    +0.032 C 
ATOM      7  C   LIG    1       27.903 -13.619   3.922  0.00  0.00    -0.008 C 
ATOM      8  C   LIG    1       29.018 -13.280   2.920  0.00  0.00    +0.008 C 
ATOM      9  C   LIG    1       28.203 -14.981   4.576  0.00  0.00    +0.004 C 
ATOM     10  C   LIG    1       26.035 -12.123   3.012  0.00  0.00    +0.012 C 
ATOM     11  C   LIG    1       25.159 -11.514   4.118  0.00  0.00    +0.068 C 
ATOM     12  C   LIG    1       23.910 -12.357   4.466  0.00  0.00    +0.203 C 
ATOM     13  C   LIG    1       22.764 -11.447   4.905  0.00  0.00    +0.077 C 
ATOM     14  O   LIG    1       24.149 -13.252   5.556  0.00  0.00    -0.199 OA
ATOM     15  O   LIG    1       23.472 -13.072   3.314  0.00  0.00    -0.314 OA
ATOM     16  C   LIG    1       24.073 -14.370   3.262  0.00  0.00    +0.292 C 
ATOM     17  O   LIG    1       25.427 -13.915   5.330  0.00  0.00    -0.220 OA
ATOM     18  C   LIG    1       27.422 -16.114   3.923  0.00  0.00    +0.007 C 
ATOM     19  O   LIG    1       23.149 -15.330   3.754  0.00  0.00    -0.319 OA
ENDROOT
BRANCH   1  20
ATOM     20  O   LIG    1       23.331 -17.385   4.838  0.00  0.00    -0.351 OA
BRANCH  20  22
ATOM     21  C   LIG    1       22.727 -19.661   5.195  0.00  0.00    +0.034 C 
ATOM     22  C   LIG    1       22.238 -18.296   4.752  0.00  0.00    +0.159 C 
ENDBRANCH  20  22
ENDBRANCH   1  20
TORSDOF 2
ENDMDL
MODEL 3
REMARK VINA RESULT:       4.8      2.067      2.842
REMARK  Name = *****
REMARK                            x       y       z     vdW  Elec       q    Type
REMARK                         _______ _______ _______ _____ _____    ______ ____
ROOT
ATOM      1  C   LIG    1       25.766 -15.682   3.492  0.00  0.00    +0.256 C 
ATOM      2  C   LIG    1       26.915 -15.928   4.504  0.00  0.00    +0.048 C 
ATOM      3  C   LIG    1       27.933 -14.783   4.479  0.00  0.00    +0.013 C 
ATOM      4  C   LIG    1       27.543 -17.312   4.217  0.00  0.00    +0.037 C 
ATOM      5  C   LIG    1       26.464 -18.433   4.303  0.00  0.00    +0.161 C 
ATOM      6  C   LIG    1       26.649 -19.345   5.550  0.00  0.00    +0.032 C 
ATOM      7  C   LIG    1       28.064 -19.997   5.598  0.00  0.00    -0.008 C 
ATOM      8  C   LIG    1       28.440 -20.385   7.036  0.00  0.00    +0.008 C 
ATOM      9  C   LIG    1       29.156 -19.081   5.015  0.00  0.00    +0.004 C 
ATOM     10  C   LIG    1       25.539 -20.419   5.683  0.00  0.00    +0.012 C 
ATOM     11  C   LIG    1       24.979 -20.988   4.370  0.00  0.00    +0.068 C 
ATOM     12  C   LIG    1       24.467 -19.911   3.385  0.00  0.00    +0.203 C 
ATOM     13  C   LIG    1       23.302 -20.458   2.563  0.00  0.00    +0.077 C 
ATOM     14  O   LIG    1       25.470 -19.519   2.444  0.00  0.00    -0.199 OA
ATOM     15  O   LIG    1       23.988 -18.782   4.110  0.00  0.00    -0.314 OA
ATOM     16  C   LIG    1       25.028 -17.816   4.294  0.00  0.00    +0.292 C 
ATOM     17  O   LIG    1       26.716 -19.300   3.169  0.00  0.00    -0.220 OA
ATOM     18  C   LIG    1       28.771 -17.609   5.096  0.00  0.00    +0.007 C 
ATOM     19  O   LIG    1       24.886 -16.789   3.323  0.00  0.00    -0.319 OA
ENDROOT
BRANCH   1  20
ATOM     20  O   LIG    1       26.352 -15.342   2.232  0.00  0.00    -0.351 OA
BRANCH  20  22
ATOM     21  C   LIG    1       25.101 -13.332   2.483  0.00  0.00    +0.034 C 
ATOM     22  C   LIG    1       26.411 -13.935   2.017  0.00  0.00    +0.159 C 
ENDBRANCH  20  22
ENDBRANCH   1  20
TORSDOF 2
ENDMDL
MODEL 4
REMARK VINA RESULT:       4.8      1.975      3.940
REMARK  Name = *****
REMARK                            x       y       z     vdW  Elec       q    Type
REMARK                         _______ _______ _______ _____ _____    ______ ____
ROOT
ATOM      1  C   LIG    1       26.576 -16.449   3.335  0.00  0.00    +0.256 C 
ATOM      2  C   LIG    1       25.129 -15.974   3.040  0.00  0.00    +0.048 C 
ATOM      3  C   LIG    1       25.050 -14.446   2.961  0.00  0.00    +0.013 C 
ATOM      4  C   LIG    1       24.181 -16.582   4.100  0.00  0.00    +0.037 C 
ATOM      5  C   LIG    1       24.278 -18.138   4.095  0.00  0.00    +0.161 C 
ATOM      6  C   LIG    1       22.997 -18.813   3.524  0.00  0.00    +0.032 C 
ATOM      7  C   LIG    1       21.713 -18.386   4.295  0.00  0.00    -0.008 C 
ATOM      8  C   LIG    1       20.463 -18.560   3.417  0.00  0.00    +0.008 C 
ATOM      9  C   LIG    1       21.782 -16.934   4.801  0.00  0.00    +0.004 C 
ATOM     10  C   LIG    1       23.112 -20.357   3.449  0.00  0.00    +0.012 C 
ATOM     11  C   LIG    1       23.930 -21.036   4.559  0.00  0.00    +0.068 C 
ATOM     12  C   LIG    1       25.360 -20.472   4.721  0.00  0.00    +0.203 C 
ATOM     13  C   LIG    1       26.311 -21.572   5.188  0.00  0.00    +0.077 C 
ATOM     14  O   LIG    1       25.426 -19.440   5.709  0.00  0.00    -0.199 OA
ATOM     15  O   LIG    1       25.838 -19.997   3.464  0.00  0.00    -0.314 OA
ATOM     16  C   LIG    1       25.537 -18.608   3.298  0.00  0.00    +0.292 C 
ATOM     17  O   LIG    1       24.311 -18.527   5.491  0.00  0.00    -0.220 OA
ATOM     18  C   LIG    1       22.731 -16.082   3.966  0.00  0.00    +0.007 C 
ATOM     19  O   LIG    1       26.691 -17.841   3.609  0.00  0.00    -0.319 OA
ENDROOT
BRANCH   1  20
ATOM     20  O   LIG    1       27.068 -15.701   4.450  0.00  0.00    -0.351 OA
BRANCH  20  22
ATOM     21  C   LIG    1       27.613 -13.448   4.998  0.00  0.00    +0.034 C 
ATOM     22  C   LIG    1       27.887 -14.603   4.056  0.00  0.00    +0.159 C 
ENDBRANCH  20  22
ENDBRANCH   1  20
TORSDOF 2
ENDMDL
MODEL 5
REMARK VINA RESULT:       5.2      2.162      6.457
REMARK  Name = *****
REMARK                            x       y       z     vdW  Elec       q    Type
REMARK                         _______ _______ _______ _____ _____    ______ ____
ROOT
ATOM      1  C   LIG    1       25.787 -17.487   3.807  0.00  0.00    +0.256 C 
ATOM      2  C   LIG    1       24.482 -16.811   4.303  0.00  0.00    +0.048 C 
ATOM      3  C   LIG    1       23.276 -17.742   4.139  0.00  0.00    +0.013 C 
ATOM      4  C   LIG    1       24.315 -15.457   3.573  0.00  0.00    +0.037 C 
ATOM      5  C   LIG    1       25.554 -14.544   3.820  0.00  0.00    +0.161 C 
ATOM      6  C   LIG    1       25.229 -13.333   4.741  0.00  0.00    +0.032 C 
ATOM      7  C   LIG    1       24.061 -12.466   4.184  0.00  0.00    -0.008 C 
ATOM      8  C   LIG    1       23.378 -11.676   5.312  0.00  0.00    +0.008 C 
ATOM      9  C   LIG    1       23.006 -13.304   3.439  0.00  0.00    +0.004 C 
ATOM     10  C   LIG    1       26.471 -12.459   5.049  0.00  0.00    +0.012 C 
ATOM     11  C   LIG    1       27.513 -12.334   3.927  0.00  0.00    +0.068 C 
ATOM     12  C   LIG    1       28.024 -13.691   3.389  0.00  0.00    +0.203 C 
ATOM     13  C   LIG    1       29.475 -13.565   2.930  0.00  0.00    +0.077 C 
ATOM     14  O   LIG    1       27.281 -14.133   2.249  0.00  0.00    -0.199 OA
ATOM     15  O   LIG    1       27.984 -14.669   4.425  0.00  0.00    -0.314 OA
ATOM     16  C   LIG    1       26.738 -15.372   4.413  0.00  0.00    +0.292 C 
ATOM     17  O   LIG    1       25.863 -13.956   2.531  0.00  0.00    -0.220 OA
ATOM     18  C   LIG    1       22.989 -14.753   3.910  0.00  0.00    +0.007 C 
ATOM     19  O   LIG    1       26.913 -16.617   3.752  0.00  0.00    -0.319 OA
ENDROOT
BRANCH   1  20
ATOM     20  O   LIG    1       25.538 -18.027   2.506  0.00  0.00    -0.351 OA
BRANCH  20  22
ATOM     21  C   LIG    1       25.700 -19.941   3.914  0.00  0.00    +0.034 C 
ATOM     22  C   LIG    1       25.354 -19.440   2.525  0.00  0.00    +0.159 C 
ENDBRANCH  20  22
ENDBRANCH   1  20
TORSDOF 2
ENDMDL
MODEL 6
REMARK VINA RESULT:       6.2      2.258      5.968
REMARK  Name = *****
REMARK                            x       y       z     vdW  Elec       q    Type
REMARK                         _______ _______ _______ _____ _____    ______ ____
ROOT
ATOM      1  C   LIG    1       26.379 -17.425   3.307  0.00  0.00    +0.256 C 
ATOM      2  C   LIG    1       27.631 -16.877   4.040  0.00  0.00    +0.048 C 
ATOM      3  C   LIG    1       28.324 -17.975   4.855  0.00  0.00    +0.013 C 
ATOM      4  C   LIG    1       27.214 -15.654   4.891  0.00  0.00    +0.037 C 
ATOM      5  C   LIG    1       26.559 -14.560   3.995  0.00  0.00    +0.161 C 
ATOM      6  C   LIG    1       27.462 -13.304   3.831  0.00  0.00    +0.032 C 
ATOM      7  C   LIG    1       27.849 -12.674   5.203  0.00  0.00    -0.008 C 
ATOM      8  C   LIG    1       29.144 -11.855   5.085  0.00  0.00    +0.008 C 
ATOM      9  C   LIG    1       28.012 -13.729   6.313  0.00  0.00    +0.004 C 
ATOM     10  C   LIG    1       26.851 -12.240   2.885  0.00  0.00    +0.012 C 
ATOM     11  C   LIG    1       25.320 -12.109   2.903  0.00  0.00    +0.068 C 
ATOM     12  C   LIG    1       24.572 -13.439   2.651  0.00  0.00    +0.203 C 
ATOM     13  C   LIG    1       23.252 -13.174   1.930  0.00  0.00    +0.077 C 
ATOM     14  O   LIG    1       24.235 -14.109   3.869  0.00  0.00    -0.199 OA
ATOM     15  O   LIG    1       25.356 -14.283   1.812  0.00  0.00    -0.314 OA
ATOM     16  C   LIG    1       26.189 -15.145   2.594  0.00  0.00    +0.292 C 
ATOM     17  O   LIG    1       25.405 -14.093   4.738  0.00  0.00    -0.220 OA
ATOM     18  C   LIG    1       28.364 -15.100   5.751  0.00  0.00    +0.007 C 
ATOM     19  O   LIG    1       25.579 -16.424   2.686  0.00  0.00    -0.319 OA
ENDROOT
BRANCH   1  20
ATOM     20  O   LIG    1       25.589 -18.144   4.259  0.00  0.00    -0.351 OA
BRANCH  20  22
ATOM     21  C   LIG    1       23.852 -19.757   4.041  0.00  0.00    +0.034 C 
ATOM     22  C   LIG    1       25.331 -19.486   3.856  0.00  0.00    +0.159 C 
ENDBRANCH  20  22
ENDBRANCH   1  20
TORSDOF 2
ENDMDL
