MODEL 1
REMARK VINA RESULT:       2.5      0.000      0.000
REMARK  Name = *****
REMARK                            x       y       z     vdW  Elec       q    Type
REMARK                         _______ _______ _______ _____ _____    ______ ____
ROOT
ATOM      1  C   LIG    1       24.517 -18.264   3.297  0.00  0.00    +0.064 C 
ATOM      2  C   LIG    1       23.122 -18.837   3.009  0.00  0.00    +0.118 C 
ATOM      3  C   LIG    1       22.063 -18.631   4.084  0.00  0.00    +0.074 C 
ATOM      4  C   LIG    1       21.990 -19.986   4.752  0.00  0.00    +0.239 C 
ATOM      5  O   LIG    1       22.315 -20.928   3.723  0.00  0.00    -0.464 OA
ATOM      6  C   LIG    1       22.237 -17.413   4.998  0.00  0.00    +0.152 C 
ATOM      7  C   LIG    1       23.218 -16.389   4.460  0.00  0.00    -0.011 A 
ATOM      8  C   LIG    1       23.060 -15.037   4.807  0.00  0.00    +0.056 A 
ATOM      9  C   LIG    1       23.919 -14.117   4.249  0.00  0.00    +0.167 A 
ATOM     10  O   LIG    1       23.877 -12.773   4.452  0.00  0.00    -0.453 OA
ATOM     11  C   LIG    1       24.928 -12.334   3.568  0.00  0.00    +0.466 C 
ATOM     12  O   LIG    1       25.627 -13.421   2.923  0.00  0.00    -0.453 OA
ATOM     13  C   LIG    1       24.925 -14.489   3.388  0.00  0.00    +0.167 A 
ATOM     14  C   LIG    1       25.152 -15.808   3.063  0.00  0.00    +0.054 A 
ATOM     15  C   LIG    1       23.079 -20.314   2.779  0.00  0.00    +0.312 C 
ATOM     16  O   LIG    1       23.620 -20.894   1.843  0.00  0.00    -0.251 OA
ATOM     17  C   LIG    1       24.299 -16.781   3.613  0.00  0.00    -0.030 A 
ENDROOT
BRANCH   1  22
ATOM     18  C   LIG    1       25.689 -20.664   6.111  0.00  0.00    +0.165 A 
ATOM     19  C   LIG    1       27.063 -20.397   6.174  0.00  0.00    +0.203 A 
ATOM     20  C   LIG    1       27.608 -19.438   5.292  0.00  0.00    +0.165 A 
ATOM     21  C   LIG    1       26.777 -18.764   4.373  0.00  0.00    +0.053 A 
ATOM     22  C   LIG    1       25.395 -19.005   4.312  0.00  0.00    -0.032 A 
ATOM     23  C   LIG    1       24.884 -19.943   5.215  0.00  0.00    +0.053 A 
BRANCH  18  25
ATOM     24  C   LIG    1       23.569 -21.324   7.042  0.00  0.00    +0.277 C 
ATOM     25  O   LIG    1       24.950 -21.572   6.830  0.00  0.00    -0.491 OA
ENDBRANCH  18  25
BRANCH  19  26
ATOM     26  O   LIG    1       27.799 -21.137   7.061  0.00  0.00    -0.488 OA
ATOM     27  C   LIG    1       29.215 -21.105   6.972  0.00  0.00    +0.277 C 
ENDBRANCH  19  26
BRANCH  20  28
ATOM     28  O   LIG    1       28.972 -19.273   5.303  0.00  0.00    -0.491 OA
ATOM     29  C   LIG    1       29.461 -17.939   5.262  0.00  0.00    +0.277 C 
ENDBRANCH  20  28
ENDBRANCH   1  22
BRANCH   6  30
ATOM     30  O   LIG    1       22.575 -17.797   6.321  0.00  0.00    -0.387 OA
ATOM     31  H   LIG    1       22.477 -18.762   6.400  0.00  0.00    +0.210 HD
ENDBRANCH   6  30
TORSDOF 5
ENDMDL
MODEL 2
REMARK VINA RESULT:       2.8      0.307      2.341
REMARK  Name = *****
REMARK                            x       y       z     vdW  Elec       q    Type
REMARK                         _______ _______ _______ _____ _____    ______ ____
ROOT
ATOM      1  C   LIG    1       24.610 -18.214   3.254  0.00  0.00    +0.064 C 
ATOM      2  C   LIG    1       23.213 -18.794   2.989  0.00  0.00    +0.118 C 
ATOM      3  C   LIG    1       22.171 -18.595   4.082  0.00  0.00    +0.074 C 
ATOM      4  C   LIG    1       22.116 -19.951   4.749  0.00  0.00    +0.239 C 
ATOM      5  O   LIG    1       22.429 -20.890   3.714  0.00  0.00    -0.464 OA
ATOM      6  C   LIG    1       22.354 -17.377   4.994  0.00  0.00    +0.152 C 
ATOM      7  C   LIG    1       23.321 -16.348   4.441  0.00  0.00    -0.011 A 
ATOM      8  C   LIG    1       23.161 -14.997   4.792  0.00  0.00    +0.056 A 
ATOM      9  C   LIG    1       24.007 -14.072   4.221  0.00  0.00    +0.167 A 
ATOM     10  O   LIG    1       23.961 -12.728   4.426  0.00  0.00    -0.453 OA
ATOM     11  C   LIG    1       24.995 -12.283   3.525  0.00  0.00    +0.466 C 
ATOM     12  O   LIG    1       25.688 -13.365   2.868  0.00  0.00    -0.453 OA
ATOM     13  C   LIG    1       25.000 -14.437   3.343  0.00  0.00    +0.167 A 
ATOM     14  C   LIG    1       25.228 -15.755   3.013  0.00  0.00    +0.054 A 
ATOM     15  C   LIG    1       23.173 -20.271   2.758  0.00  0.00    +0.312 C 
ATOM     16  O   LIG    1       23.702 -20.848   1.813  0.00  0.00    -0.251 OA
ATOM     17  C   LIG    1       24.389 -16.733   3.575  0.00  0.00    -0.030 A 
ENDROOT
BRANCH   1  22
ATOM     18  C   LIG    1       27.689 -19.309   5.345  0.00  0.00    +0.165 A 
ATOM     19  C   LIG    1       27.155 -20.324   6.149  0.00  0.00    +0.203 A 
ATOM     20  C   LIG    1       25.786 -20.646   6.013  0.00  0.00    +0.165 A 
ATOM     21  C   LIG    1       24.983 -19.958   5.080  0.00  0.00    +0.053 A 
ATOM     22  C   LIG    1       25.509 -18.952   4.254  0.00  0.00    -0.032 A 
ATOM     23  C   LIG    1       26.872 -18.674   4.396  0.00  0.00    +0.053 A 
BRANCH  18  25
ATOM     24  C   LIG    1       29.463 -18.150   6.488  0.00  0.00    +0.277 C 
ATOM     25  O   LIG    1       28.965 -18.799   5.329  0.00  0.00    -0.491 OA
ENDBRANCH  18  25
BRANCH  19  26
ATOM     26  O   LIG    1       27.998 -20.902   7.062  0.00  0.00    -0.488 OA
ATOM     27  C   LIG    1       29.159 -21.570   6.595  0.00  0.00    +0.277 C 
ENDBRANCH  19  26
BRANCH  20  28
ATOM     28  O   LIG    1       25.265 -21.572   6.885  0.00  0.00    -0.491 OA
ATOM     29  C   LIG    1       23.855 -21.570   7.061  0.00  0.00    +0.277 C 
ENDBRANCH  20  28
ENDBRANCH   1  22
BRANCH   6  30
ATOM     30  O   LIG    1       22.717 -17.761   6.311  0.00  0.00    -0.387 OA
ATOM     31  H   LIG    1       23.270 -18.560   6.262  0.00  0.00    +0.210 HD
ENDBRANCH   6  30
TORSDOF 5
ENDMDL
