MODEL 1
REMARK VINA RESULT:      10.3      0.000      0.000
REMARK  Name = *****
REMARK                            x       y       z     vdW  Elec       q    Type
REMARK                         _______ _______ _______ _____ _____    ______ ____
ROOT
ATOM      1  C   LIG    1       27.993 -18.137   4.655  0.00  0.00    +0.131 A 
ATOM      2  C   LIG    1       26.774 -17.554   4.217  0.00  0.00    +0.061 A 
ATOM      3  C   LIG    1       26.785 -16.213   3.779  0.00  0.00    +0.043 A 
ATOM      4  C   LIG    1       27.975 -15.474   3.787  0.00  0.00    +0.106 A 
ATOM      5  C   LIG    1       29.155 -16.042   4.254  0.00  0.00    +0.032 A 
ATOM      6  C   LIG    1       29.156 -17.357   4.696  0.00  0.00    +0.048 A 
ENDROOT
BRANCH   2   7
ATOM      7  C   LIG    1       25.454 -18.301   4.157  0.00  0.00    +0.145 C 
ATOM      8  N   LIG    1       25.518 -19.593   3.644  0.00  0.00    -0.305 N 
ATOM      9  H   LIG    1       26.412 -19.978   3.370  0.00  0.00    +0.170 HD
ATOM     10  C   LIG    1       24.444 -20.426   3.469  0.00  0.00    +0.278 C 
ATOM     11  O   LIG    1       24.552 -21.568   3.035  0.00  0.00    -0.266 OA
ATOM     12  C   LIG    1       23.242 -19.801   3.870  0.00  0.00    +0.151 A 
ATOM     13  C   LIG    1       23.203 -18.549   4.408  0.00  0.00    +0.119 A 
ATOM     14  C   LIG    1       21.852 -18.318   4.741  0.00  0.00    +0.089 A 
ATOM     15  N   LIG    1       21.083 -19.364   4.375  0.00  0.00    -0.174 NA
ATOM     16  N   LIG    1       21.957 -20.236   3.822  0.00  0.00    -0.260 N 
ATOM     17  C   LIG    1       21.477 -21.459   3.225  0.00  0.00    +0.173 C 
ATOM     18  N   LIG    1       24.343 -17.744   4.569  0.00  0.00    -0.225 NA
BRANCH  14  19
ATOM     19  C   LIG    1       21.235 -17.148   5.424  0.00  0.00    +0.059 C 
BRANCH  19  20
ATOM     20  C   LIG    1       22.141 -15.918   5.417  0.00  0.00    +0.003 C 
ATOM     21  C   LIG    1       21.653 -14.861   6.395  0.00  0.00    +0.004 C 
ENDBRANCH  19  20
ENDBRANCH  14  19
ENDBRANCH   2   7
BRANCH   4  22
ATOM     22  S   LIG    1       28.079 -13.840   3.104  0.00  0.00    +0.058 S 
ATOM     23  O   LIG    1       27.136 -13.755   2.009  0.00  0.00    -0.153 OA
ATOM     24  O   LIG    1       29.475 -13.523   2.925  0.00  0.00    -0.153 OA
BRANCH  22  25
ATOM     25  N   LIG    1       27.571 -12.846   4.359  0.00  0.00    -0.190 NA
ATOM     26  H   LIG    1       27.000 -12.088   3.986  0.00  0.00    +0.148 HD
BRANCH  25  27
ATOM     27  C   LIG    1       27.115 -13.491   5.593  0.00  0.00    +0.107 C 
BRANCH  27  28
ATOM     28  C   LIG    1       25.813 -12.835   6.037  0.00  0.00    +0.036 C 
BRANCH  28  29
ATOM     29  C   LIG    1       25.118 -12.117   4.877  0.00  0.00    +0.058 C 
ATOM     30  N   LIG    1       24.842 -12.905   3.656  0.00  0.00    -0.302 NA
ATOM     31  C   LIG    1       24.240 -14.217   3.918  0.00  0.00    +0.105 C 
ATOM     32  C   LIG    1       23.898 -12.051   2.911  0.00  0.00    +0.084 C 
ATOM     33  C   LIG    1       22.976 -11.452   3.964  0.00  0.00    +0.017 C 
ATOM     34  C   LIG    1       23.764 -11.523   5.269  0.00  0.00    +0.020 C 
ENDBRANCH  28  29
ENDBRANCH  27  28
ENDBRANCH  25  27
ENDBRANCH  22  25
ENDBRANCH   4  22
BRANCH   1  35
ATOM     35  O   LIG    1       27.999 -19.467   5.004  0.00  0.00    -0.491 OA
BRANCH  35  36
ATOM     36  C   LIG    1       27.750 -19.836   6.367  0.00  0.00    +0.229 C 
BRANCH  36  38
ATOM     37  C   LIG    1       25.469 -20.778   6.926  0.00  0.00    +0.007 C 
ATOM     38  C   LIG    1       26.876 -21.087   6.433  0.00  0.00    +0.037 C 
ENDBRANCH  36  38
ENDBRANCH  35  36
ENDBRANCH   1  35
TORSDOF 11
ENDMDL
MODEL 2
REMARK VINA RESULT:      13.2      1.264      1.568
REMARK  Name = *****
REMARK                            x       y       z     vdW  Elec       q    Type
REMARK                         _______ _______ _______ _____ _____    ______ ____
ROOT
ATOM      1  C   LIG    1       27.964 -18.203   4.718  0.00  0.00    +0.131 A 
ATOM      2  C   LIG    1       26.730 -17.556   4.441  0.00  0.00    +0.061 A 
ATOM      3  C   LIG    1       26.748 -16.200   4.056  0.00  0.00    +0.043 A 
ATOM      4  C   LIG    1       27.962 -15.507   3.960  0.00  0.00    +0.106 A 
ATOM      5  C   LIG    1       29.161 -16.138   4.270  0.00  0.00    +0.032 A 
ATOM      6  C   LIG    1       29.155 -17.469   4.659  0.00  0.00    +0.048 A 
ENDROOT
BRANCH   2   7
ATOM      7  C   LIG    1       25.380 -18.250   4.498  0.00  0.00    +0.145 C 
ATOM      8  N   LIG    1       25.358 -19.465   5.176  0.00  0.00    -0.305 N 
ATOM      9  H   LIG    1       26.204 -19.809   5.612  0.00  0.00    +0.170 HD
ATOM     10  C   LIG    1       24.258 -20.270   5.317  0.00  0.00    +0.278 C 
ATOM     11  O   LIG    1       24.280 -21.323   5.945  0.00  0.00    -0.266 OA
ATOM     12  C   LIG    1       23.132 -19.713   4.671  0.00  0.00    +0.151 A 
ATOM     13  C   LIG    1       23.161 -18.502   4.045  0.00  0.00    +0.119 A 
ATOM     14  C   LIG    1       21.844 -18.270   3.599  0.00  0.00    +0.089 A 
ATOM     15  N   LIG    1       21.048 -19.318   3.891  0.00  0.00    -0.174 NA
ATOM     16  N   LIG    1       21.870 -20.191   4.517  0.00  0.00    -0.260 N 
ATOM     17  C   LIG    1       21.382 -21.492   4.907  0.00  0.00    +0.173 C 
ATOM     18  N   LIG    1       24.322 -17.718   3.940  0.00  0.00    -0.225 NA
BRANCH  14  19
ATOM     19  C   LIG    1       21.275 -17.075   2.916  0.00  0.00    +0.059 C 
BRANCH  19  20
ATOM     20  C   LIG    1       19.803 -17.251   2.552  0.00  0.00    +0.003 C 
ATOM     21  C   LIG    1       19.356 -18.694   2.721  0.00  0.00    +0.004 C 
ENDBRANCH  19  20
ENDBRANCH  14  19
ENDBRANCH   2   7
BRANCH   4  22
ATOM     22  S   LIG    1       28.059 -13.850   3.333  0.00  0.00    +0.058 S 
ATOM     23  O   LIG    1       26.734 -13.459   2.903  0.00  0.00    -0.153 OA
ATOM     24  O   LIG    1       29.193 -13.779   2.443  0.00  0.00    -0.153 OA
BRANCH  22  25
ATOM     25  N   LIG    1       28.506 -12.938   4.670  0.00  0.00    -0.190 NA
ATOM     26  H   LIG    1       29.214 -12.256   4.400  0.00  0.00    +0.148 HD
BRANCH  25  27
ATOM     27  C   LIG    1       27.439 -12.484   5.568  0.00  0.00    +0.107 C 
BRANCH  27  28
ATOM     28  C   LIG    1       26.187 -13.308   5.297  0.00  0.00    +0.036 C 
BRANCH  28  29
ATOM     29  C   LIG    1       25.223 -12.579   4.357  0.00  0.00    +0.058 C 
ATOM     30  N   LIG    1       24.290 -13.406   3.562  0.00  0.00    -0.302 NA
ATOM     31  C   LIG    1       23.604 -14.444   4.340  0.00  0.00    +0.105 C 
ATOM     32  C   LIG    1       23.317 -12.423   3.055  0.00  0.00    +0.084 C 
ATOM     33  C   LIG    1       23.087 -11.451   4.204  0.00  0.00    +0.017 C 
ATOM     34  C   LIG    1       24.327 -11.574   5.083  0.00  0.00    +0.020 C 
ENDBRANCH  28  29
ENDBRANCH  27  28
ENDBRANCH  25  27
ENDBRANCH  22  25
ENDBRANCH   4  22
BRANCH   1  35
ATOM     35  O   LIG    1       27.952 -19.546   5.012  0.00  0.00    -0.491 OA
BRANCH  35  36
ATOM     36  C   LIG    1       28.877 -20.060   5.980  0.00  0.00    +0.229 C 
BRANCH  36  38
ATOM     37  C   LIG    1       26.792 -21.001   7.061  0.00  0.00    +0.007 C 
ATOM     38  C   LIG    1       28.262 -21.234   6.738  0.00  0.00    +0.037 C 
ENDBRANCH  36  38
ENDBRANCH  35  36
ENDBRANCH   1  35
TORSDOF 11
ENDMDL
