MODEL 1
REMARK VINA RESULT:      -5.0      0.000      0.000
REMARK  Name = *****
REMARK                            x       y       z     vdW  Elec       q    Type
REMARK                         _______ _______ _______ _____ _____    ______ ____
ROOT
ATOM      1  C   LIG    1       23.590 -30.745  10.816  0.00  0.00    +0.064 A 
ATOM      2  C   LIG    1       24.492 -31.057  11.834  0.00  0.00    +0.049 A 
ATOM      3  I   LIG    1       24.126 -33.130  12.675  0.00  0.00    -0.041 I 
ATOM      4  C   LIG    1       24.835 -30.074  12.778  0.00  0.00    +0.065 A 
ATOM      5  C   LIG    1       24.043 -28.929  12.810  0.00  0.00    +0.040 A 
ATOM      6  I   LIG    1       24.894 -27.024  13.303  0.00  0.00    -0.042 I 
ATOM      7  C   LIG    1       22.757 -29.045  12.301  0.00  0.00    +0.065 A 
ATOM      8  C   LIG    1       22.502 -30.040  11.318  0.00  0.00    +0.049 A 
ATOM      9  I   LIG    1       20.651 -30.968  10.809  0.00  0.00    -0.041 I 
ENDROOT
BRANCH   4  10
ATOM     10  C   LIG    1       25.851 -30.238  13.862  0.00  0.00    +0.246 C 
ATOM     11  N   LIG    1       27.180 -30.157  13.508  0.00  0.00    -0.309 N 
ATOM     12  H   LIG    1       27.409 -29.934  12.547  0.00  0.00    +0.149 HD
ATOM     13  O   LIG    1       25.497 -30.452  15.000  0.00  0.00    -0.270 OA
BRANCH  11  14
ATOM     14  C   LIG    1       28.272 -30.322  14.433  0.00  0.00    +0.138 C 
BRANCH  14  15
ATOM     15  C   LIG    1       29.604 -29.561  14.226  0.00  0.00    +0.157 C 
BRANCH  15  16
ATOM     16  O   LIG    1       29.375 -28.169  14.533  0.00  0.00    -0.388 OA
ATOM     17  H   LIG    1       28.573 -27.882  14.064  0.00  0.00    +0.210 HD
ENDBRANCH  15  16
BRANCH  15  18
ATOM     18  C   LIG    1       30.195 -29.647  12.806  0.00  0.00    +0.188 C 
BRANCH  18  19
ATOM     19  O   LIG    1       29.331 -29.251  11.755  0.00  0.00    -0.392 OA
ATOM     20  H   LIG    1       28.949 -30.071  11.386  0.00  0.00    +0.209 HD
ENDBRANCH  18  19
ENDBRANCH  15  18
ENDBRANCH  14  15
ENDBRANCH  11  14
ENDBRANCH   4  10
BRANCH   7  21
ATOM     21  C   LIG    1       21.668 -28.374  13.045  0.00  0.00    +0.246 C 
ATOM     22  N   LIG    1       21.088 -29.073  14.104  0.00  0.00    -0.309 N 
ATOM     23  H   LIG    1       21.176 -30.069  14.117  0.00  0.00    +0.149 HD
ATOM     24  O   LIG    1       21.427 -27.231  12.789  0.00  0.00    -0.270 OA
BRANCH  22  25
ATOM     25  C   LIG    1       20.269 -28.494  15.158  0.00  0.00    +0.138 C 
BRANCH  25  26
ATOM     26  C   LIG    1       18.810 -28.164  14.830  0.00  0.00    +0.157 C 
BRANCH  26  27
ATOM     27  O   LIG    1       18.308 -29.055  13.832  0.00  0.00    -0.388 OA
ATOM     28  H   LIG    1       19.019 -29.720  13.676  0.00  0.00    +0.210 HD
ENDBRANCH  26  27
BRANCH  26  29
ATOM     29  C   LIG    1       18.492 -26.665  14.571  0.00  0.00    +0.188 C 
BRANCH  29  30
ATOM     30  O   LIG    1       18.694 -26.046  13.319  0.00  0.00    -0.392 OA
ATOM     31  H   LIG    1       18.309 -26.586  12.620  0.00  0.00    +0.209 HD
ENDBRANCH  29  30
ENDBRANCH  26  29
ENDBRANCH  25  26
ENDBRANCH  22  25
ENDBRANCH   7  21
BRANCH   1  34
ATOM     32  O   LIG    1       22.711 -32.296   8.520  0.00  0.00    -0.273 OA
ATOM     33  C   LIG    1       23.626 -31.479   8.380  0.00  0.00    +0.245 C 
ATOM     34  N   LIG    1       24.044 -30.587   9.413  0.00  0.00    -0.265 N 
BRANCH  34  35
ATOM     35  C   LIG    1       25.061 -29.577   9.069  0.00  0.00    +0.141 C 
BRANCH  35  36
ATOM     36  C   LIG    1       26.535 -29.888   9.281  0.00  0.00    +0.175 C 
BRANCH  36  37
ATOM     37  O   LIG    1       27.293 -28.694   9.406  0.00  0.00    -0.393 OA
ATOM     38  H   LIG    1       28.147 -28.863   8.969  0.00  0.00    +0.209 HD
ENDBRANCH  36  37
ENDBRANCH  35  36
ENDBRANCH  34  35
BRANCH  33  39
ATOM     39  C   LIG    1       24.267 -31.322   6.954  0.00  0.00    +0.252 C 
BRANCH  39  40
ATOM     40  O   LIG    1       23.409 -30.976   5.881  0.00  0.00    -0.386 OA
ATOM     41  H   LIG    1       22.881 -31.766   5.659  0.00  0.00    +0.210 HD
ENDBRANCH  39  40
ENDBRANCH  33  39
ENDBRANCH   1  34
TORSDOF 18
ENDMDL
MODEL 2
REMARK VINA RESULT:      -4.6      1.731      5.854
REMARK  Name = *****
REMARK                            x       y       z     vdW  Elec       q    Type
REMARK                         _______ _______ _______ _____ _____    ______ ____
ROOT
ATOM      1  C   LIG    1       25.785 -29.604  13.097  0.00  0.00    +0.064 A 
ATOM      2  C   LIG    1       25.856 -30.163  11.820  0.00  0.00    +0.049 A 
ATOM      3  I   LIG    1       26.717 -28.707  10.312  0.00  0.00    -0.041 I 
ATOM      4  C   LIG    1       24.795 -30.959  11.355  0.00  0.00    +0.065 A 
ATOM      5  C   LIG    1       23.609 -30.914  12.084  0.00  0.00    +0.040 A 
ATOM      6  I   LIG    1       22.359 -32.649  12.245  0.00  0.00    -0.042 I 
ATOM      7  C   LIG    1       23.397 -29.786  12.863  0.00  0.00    +0.065 A 
ATOM      8  C   LIG    1       24.527 -29.059  13.329  0.00  0.00    +0.049 A 
ATOM      9  I   LIG    1       24.644 -27.015  13.927  0.00  0.00    -0.041 I 
ENDROOT
BRANCH   4  10
ATOM     10  C   LIG    1       24.775 -31.692  10.052  0.00  0.00    +0.246 C 
ATOM     11  N   LIG    1       24.095 -31.112   9.005  0.00  0.00    -0.309 N 
ATOM     12  H   LIG    1       23.689 -30.195   9.142  0.00  0.00    +0.149 HD
ATOM     13  O   LIG    1       25.329 -32.763   9.950  0.00  0.00    -0.270 OA
BRANCH  11  14
ATOM     14  C   LIG    1       23.964 -31.710   7.699  0.00  0.00    +0.138 C 
BRANCH  14  15
ATOM     15  C   LIG    1       24.809 -31.198   6.508  0.00  0.00    +0.157 C 
BRANCH  15  16
ATOM     16  O   LIG    1       26.194 -31.185   6.917  0.00  0.00    -0.388 OA
ATOM     17  H   LIG    1       26.746 -31.284   6.123  0.00  0.00    +0.210 HD
ENDBRANCH  15  16
BRANCH  15  18
ATOM     18  C   LIG    1       24.447 -29.788   6.004  0.00  0.00    +0.188 C 
BRANCH  18  19
ATOM     19  O   LIG    1       23.141 -29.641   5.475  0.00  0.00    -0.392 OA
ATOM     20  H   LIG    1       22.887 -30.515   5.116  0.00  0.00    +0.209 HD
ENDBRANCH  18  19
ENDBRANCH  15  18
ENDBRANCH  14  15
ENDBRANCH  11  14
ENDBRANCH   4  10
BRANCH   7  21
ATOM     21  C   LIG    1       22.032 -29.215  12.878  0.00  0.00    +0.246 C 
ATOM     22  N   LIG    1       21.504 -28.844  14.115  0.00  0.00    -0.309 N 
ATOM     23  H   LIG    1       21.891 -29.261  14.938  0.00  0.00    +0.149 HD
ATOM     24  O   LIG    1       21.504 -28.981  11.831  0.00  0.00    -0.270 OA
BRANCH  22  25
ATOM     25  C   LIG    1       20.360 -27.971  14.325  0.00  0.00    +0.138 C 
BRANCH  25  26
ATOM     26  C   LIG    1       18.977 -28.618  14.436  0.00  0.00    +0.157 C 
BRANCH  26  27
ATOM     27  O   LIG    1       18.686 -29.381  13.262  0.00  0.00    -0.388 OA
ATOM     28  H   LIG    1       17.740 -29.207  13.050  0.00  0.00    +0.210 HD
ENDBRANCH  26  27
BRANCH  26  29
ATOM     29  C   LIG    1       17.822 -27.687  14.899  0.00  0.00    +0.188 C 
BRANCH  29  30
ATOM     30  O   LIG    1       17.970 -26.288  15.016  0.00  0.00    -0.392 OA
ATOM     31  H   LIG    1       18.824 -26.017  14.664  0.00  0.00    +0.209 HD
ENDBRANCH  29  30
ENDBRANCH  26  29
ENDBRANCH  25  26
ENDBRANCH  22  25
ENDBRANCH   7  21
BRANCH   1  34
ATOM     32  O   LIG    1       28.519 -28.814  13.690  0.00  0.00    -0.273 OA
ATOM     33  C   LIG    1       28.004 -29.733  14.335  0.00  0.00    +0.245 C 
ATOM     34  N   LIG    1       26.634 -30.110  14.203  0.00  0.00    -0.265 N 
BRANCH  34  35
ATOM     35  C   LIG    1       26.119 -31.137  15.126  0.00  0.00    +0.141 C 
BRANCH  35  36
ATOM     36  C   LIG    1       25.889 -32.554  14.624  0.00  0.00    +0.175 C 
BRANCH  36  37
ATOM     37  O   LIG    1       27.122 -33.215  14.384  0.00  0.00    -0.393 OA
ATOM     38  H   LIG    1       27.026 -33.677  13.531  0.00  0.00    +0.209 HD
ENDBRANCH  36  37
ENDBRANCH  35  36
ENDBRANCH  34  35
BRANCH  33  39
ATOM     39  C   LIG    1       28.865 -30.426  15.452  0.00  0.00    +0.252 C 
BRANCH  39  40
ATOM     40  O   LIG    1       30.247 -30.605  15.202  0.00  0.00    -0.386 OA
ATOM     41  H   LIG    1       30.582 -29.785  14.792  0.00  0.00    +0.210 HD
ENDBRANCH  39  40
ENDBRANCH  33  39
ENDBRANCH   1  34
TORSDOF 18
ENDMDL
MODEL 3
REMARK VINA RESULT:      -4.6      2.849      3.322
REMARK  Name = *****
REMARK                            x       y       z     vdW  Elec       q    Type
REMARK                         _______ _______ _______ _____ _____    ______ ____
ROOT
ATOM      1  C   LIG    1       24.213 -30.177  12.012  0.00  0.00    +0.064 A 
ATOM      2  C   LIG    1       24.668 -29.196  12.895  0.00  0.00    +0.049 A 
ATOM      3  I   LIG    1       26.185 -30.022  14.362  0.00  0.00    -0.041 I 
ATOM      4  C   LIG    1       23.754 -28.269  13.427  0.00  0.00    +0.065 A 
ATOM      5  C   LIG    1       22.401 -28.556  13.264  0.00  0.00    +0.040 A 
ATOM      6  I   LIG    1       20.973 -26.976  13.009  0.00  0.00    -0.042 I 
ATOM      7  C   LIG    1       22.065 -29.885  13.057  0.00  0.00    +0.065 A 
ATOM      8  C   LIG    1       23.033 -30.749  12.474  0.00  0.00    +0.049 A 
ATOM      9  I   LIG    1       23.179 -32.872  12.610  0.00  0.00    -0.041 I 
ENDROOT
BRANCH   4  10
ATOM     10  C   LIG    1       24.113 -27.115  14.307  0.00  0.00    +0.246 C 
ATOM     11  N   LIG    1       24.684 -26.013  13.710  0.00  0.00    -0.309 N 
ATOM     12  H   LIG    1       24.783 -26.007  12.702  0.00  0.00    +0.149 HD
ATOM     13  O   LIG    1       23.916 -27.175  15.499  0.00  0.00    -0.270 OA
BRANCH  11  14
ATOM     14  C   LIG    1       25.108 -24.836  14.427  0.00  0.00    +0.138 C 
BRANCH  14  15
ATOM     15  C   LIG    1       26.537 -24.744  15.015  0.00  0.00    +0.157 C 
BRANCH  15  16
ATOM     16  O   LIG    1       27.066 -23.439  14.697  0.00  0.00    -0.388 OA
ATOM     17  H   LIG    1       28.032 -23.514  14.612  0.00  0.00    +0.210 HD
ENDBRANCH  15  16
BRANCH  15  18
ATOM     18  C   LIG    1       27.530 -25.802  14.497  0.00  0.00    +0.188 C 
BRANCH  18  19
ATOM     19  O   LIG    1       27.519 -26.022  13.098  0.00  0.00    -0.392 OA
ATOM     20  H   LIG    1       27.938 -26.894  12.951  0.00  0.00    +0.209 HD
ENDBRANCH  18  19
ENDBRANCH  15  18
ENDBRANCH  14  15
ENDBRANCH  11  14
ENDBRANCH   4  10
BRANCH   7  21
ATOM     21  C   LIG    1       20.867 -30.402  13.755  0.00  0.00    +0.246 C 
ATOM     22  N   LIG    1       19.725 -30.631  12.987  0.00  0.00    -0.309 N 
ATOM     23  H   LIG    1       19.638 -30.151  12.114  0.00  0.00    +0.149 HD
ATOM     24  O   LIG    1       20.972 -30.716  14.904  0.00  0.00    -0.270 OA
BRANCH  22  25
ATOM     25  C   LIG    1       18.581 -31.437  13.383  0.00  0.00    +0.138 C 
BRANCH  25  26
ATOM     26  C   LIG    1       17.182 -30.888  13.088  0.00  0.00    +0.157 C 
BRANCH  26  27
ATOM     27  O   LIG    1       16.966 -30.802  11.677  0.00  0.00    -0.388 OA
ATOM     28  H   LIG    1       17.712 -30.267  11.319  0.00  0.00    +0.210 HD
ENDBRANCH  26  27
BRANCH  26  29
ATOM     29  C   LIG    1       16.766 -29.618  13.880  0.00  0.00    +0.188 C 
BRANCH  29  30
ATOM     30  O   LIG    1       17.681 -28.600  14.226  0.00  0.00    -0.392 OA
ATOM     31  H   LIG    1       18.115 -28.265  13.434  0.00  0.00    +0.209 HD
ENDBRANCH  29  30
ENDBRANCH  26  29
ENDBRANCH  25  26
ENDBRANCH  22  25
ENDBRANCH   7  21
BRANCH   1  34
ATOM     32  O   LIG    1       22.332 -30.299   9.800  0.00  0.00    -0.273 OA
ATOM     33  C   LIG    1       23.543 -30.298   9.561  0.00  0.00    +0.245 C 
ATOM     34  N   LIG    1       24.540 -30.117  10.567  0.00  0.00    -0.265 N 
BRANCH  34  35
ATOM     35  C   LIG    1       25.941 -30.009  10.125  0.00  0.00    +0.141 C 
BRANCH  35  36
ATOM     36  C   LIG    1       26.589 -28.639  10.003  0.00  0.00    +0.175 C 
BRANCH  36  37
ATOM     37  O   LIG    1       26.884 -28.334   8.648  0.00  0.00    -0.393 OA
ATOM     38  H   LIG    1       27.352 -29.109   8.287  0.00  0.00    +0.209 HD
ENDBRANCH  36  37
ENDBRANCH  35  36
ENDBRANCH  34  35
BRANCH  33  39
ATOM     39  C   LIG    1       24.002 -30.359   8.059  0.00  0.00    +0.252 C 
BRANCH  39  40
ATOM     40  O   LIG    1       24.070 -29.141   7.341  0.00  0.00    -0.386 OA
ATOM     41  H   LIG    1       24.909 -29.139   6.841  0.00  0.00    +0.210 HD
ENDBRANCH  39  40
ENDBRANCH  33  39
ENDBRANCH   1  34
TORSDOF 18
ENDMDL
MODEL 4
REMARK VINA RESULT:      -4.5      2.272      6.098
REMARK  Name = *****
REMARK                            x       y       z     vdW  Elec       q    Type
REMARK                         _______ _______ _______ _____ _____    ______ ____
ROOT
ATOM      1  C   LIG    1       26.780 -28.831  12.858  0.00  0.00    +0.064 A 
ATOM      2  C   LIG    1       26.171 -29.710  11.962  0.00  0.00    +0.049 A 
ATOM      3  I   LIG    1       26.438 -29.040   9.813  0.00  0.00    -0.041 I 
ATOM      4  C   LIG    1       24.912 -30.252  12.274  0.00  0.00    +0.065 A 
ATOM      5  C   LIG    1       24.219 -29.663  13.328  0.00  0.00    +0.040 A 
ATOM      6  I   LIG    1       22.948 -30.840  14.593  0.00  0.00    -0.042 I 
ATOM      7  C   LIG    1       24.557 -28.355  13.646  0.00  0.00    +0.065 A 
ATOM      8  C   LIG    1       25.866 -27.897  13.334  0.00  0.00    +0.049 A 
ATOM      9  I   LIG    1       26.542 -25.897  13.029  0.00  0.00    -0.041 I 
ENDROOT
BRANCH   4  10
ATOM     10  C   LIG    1       24.186 -31.271  11.456  0.00  0.00    +0.246 C 
ATOM     11  N   LIG    1       23.094 -30.848  10.733  0.00  0.00    -0.309 N 
ATOM     12  H   LIG    1       22.864 -29.861  10.740  0.00  0.00    +0.149 HD
ATOM     13  O   LIG    1       24.554 -32.425  11.457  0.00  0.00    -0.270 OA
BRANCH  11  14
ATOM     14  C   LIG    1       22.278 -31.716   9.922  0.00  0.00    +0.138 C 
BRANCH  14  15
ATOM     15  C   LIG    1       21.081 -32.479  10.539  0.00  0.00    +0.157 C 
BRANCH  15  16
ATOM     16  O   LIG    1       20.444 -33.235   9.488  0.00  0.00    -0.388 OA
ATOM     17  H   LIG    1       19.507 -33.350   9.721  0.00  0.00    +0.210 HD
ENDBRANCH  15  16
BRANCH  15  18
ATOM     18  C   LIG    1       20.012 -31.593  11.207  0.00  0.00    +0.188 C 
BRANCH  18  19
ATOM     19  O   LIG    1       19.887 -30.282  10.686  0.00  0.00    -0.392 OA
ATOM     20  H   LIG    1       20.038 -30.350   9.722  0.00  0.00    +0.209 HD
ENDBRANCH  18  19
ENDBRANCH  15  18
ENDBRANCH  14  15
ENDBRANCH  11  14
ENDBRANCH   4  10
BRANCH   7  21
ATOM     21  C   LIG    1       23.453 -27.425  13.969  0.00  0.00    +0.246 C 
ATOM     22  N   LIG    1       22.453 -27.258  13.010  0.00  0.00    -0.309 N 
ATOM     23  H   LIG    1       22.667 -27.484  12.060  0.00  0.00    +0.149 HD
ATOM     24  O   LIG    1       23.402 -26.967  15.072  0.00  0.00    -0.270 OA
BRANCH  22  25
ATOM     25  C   LIG    1       21.137 -26.682  13.245  0.00  0.00    +0.138 C 
BRANCH  25  26
ATOM     26  C   LIG    1       20.088 -27.555  13.938  0.00  0.00    +0.157 C 
BRANCH  26  27
ATOM     27  O   LIG    1       19.748 -28.675  13.118  0.00  0.00    -0.388 OA
ATOM     28  H   LIG    1       19.118 -28.336  12.441  0.00  0.00    +0.210 HD
ENDBRANCH  26  27
BRANCH  26  29
ATOM     29  C   LIG    1       18.868 -26.805  14.541  0.00  0.00    +0.188 C 
BRANCH  29  30
ATOM     30  O   LIG    1       18.269 -25.692  13.913  0.00  0.00    -0.392 OA
ATOM     31  H   LIG    1       18.406 -25.739  12.962  0.00  0.00    +0.209 HD
ENDBRANCH  29  30
ENDBRANCH  26  29
ENDBRANCH  25  26
ENDBRANCH  22  25
ENDBRANCH   7  21
BRANCH   1  34
ATOM     32  O   LIG    1       29.503 -29.150  11.892  0.00  0.00    -0.273 OA
ATOM     33  C   LIG    1       29.234 -29.477  13.051  0.00  0.00    +0.245 C 
ATOM     34  N   LIG    1       27.961 -29.245  13.655  0.00  0.00    -0.265 N 
BRANCH  34  35
ATOM     35  C   LIG    1       27.817 -29.569  15.085  0.00  0.00    +0.141 C 
BRANCH  35  36
ATOM     36  C   LIG    1       27.182 -30.887  15.500  0.00  0.00    +0.175 C 
BRANCH  36  37
ATOM     37  O   LIG    1       27.391 -31.885  14.511  0.00  0.00    -0.393 OA
ATOM     38  H   LIG    1       28.166 -32.401  14.800  0.00  0.00    +0.209 HD
ENDBRANCH  36  37
ENDBRANCH  35  36
ENDBRANCH  34  35
BRANCH  33  39
ATOM     39  C   LIG    1       30.391 -30.049  13.948  0.00  0.00    +0.252 C 
BRANCH  39  40
ATOM     40  O   LIG    1       31.600 -30.414  13.308  0.00  0.00    -0.386 OA
ATOM     41  H   LIG    1       32.305 -29.836  13.658  0.00  0.00    +0.210 HD
ENDBRANCH  39  40
ENDBRANCH  33  39
ENDBRANCH   1  34
TORSDOF 18
ENDMDL
MODEL 5
REMARK VINA RESULT:      -4.3      2.715      6.508
REMARK  Name = *****
REMARK                            x       y       z     vdW  Elec       q    Type
REMARK                         _______ _______ _______ _____ _____    ______ ____
ROOT
ATOM      1  C   LIG    1       25.797 -29.977  12.884  0.00  0.00    +0.064 A 
ATOM      2  C   LIG    1       26.076 -30.463  11.605  0.00  0.00    +0.049 A 
ATOM      3  I   LIG    1       26.648 -28.797  10.179  0.00  0.00    -0.041 I 
ATOM      4  C   LIG    1       25.268 -31.475  11.059  0.00  0.00    +0.065 A 
ATOM      5  C   LIG    1       24.066 -31.739  11.710  0.00  0.00    +0.040 A 
ATOM      6  I   LIG    1       23.265 -33.728  11.762  0.00  0.00    -0.042 I 
ATOM      7  C   LIG    1       23.542 -30.720  12.492  0.00  0.00    +0.065 A 
ATOM      8  C   LIG    1       24.433 -29.758  13.042  0.00  0.00    +0.049 A 
ATOM      9  I   LIG    1       24.018 -27.765  13.679  0.00  0.00    -0.041 I 
ENDROOT
BRANCH   4  10
ATOM     10  C   LIG    1       25.504 -32.151   9.747  0.00  0.00    +0.246 C 
ATOM     11  N   LIG    1       24.660 -31.834   8.706  0.00  0.00    -0.309 N 
ATOM     12  H   LIG    1       23.957 -31.120   8.856  0.00  0.00    +0.149 HD
ATOM     13  O   LIG    1       26.399 -32.957   9.630  0.00  0.00    -0.270 OA
BRANCH  11  14
ATOM     14  C   LIG    1       24.743 -32.422   7.393  0.00  0.00    +0.138 C 
BRANCH  14  15
ATOM     15  C   LIG    1       24.043 -31.755   6.184  0.00  0.00    +0.157 C 
BRANCH  15  16
ATOM     16  O   LIG    1       24.563 -32.356   4.980  0.00  0.00    -0.388 OA
ATOM     17  H   LIG    1       23.824 -32.765   4.499  0.00  0.00    +0.210 HD
ENDBRANCH  15  16
BRANCH  15  18
ATOM     18  C   LIG    1       24.230 -30.229   6.077  0.00  0.00    +0.188 C 
BRANCH  18  19
ATOM     19  O   LIG    1       23.182 -29.524   5.436  0.00  0.00    -0.392 OA
ATOM     20  H   LIG    1       22.350 -29.976   5.685  0.00  0.00    +0.209 HD
ENDBRANCH  18  19
ENDBRANCH  15  18
ENDBRANCH  14  15
ENDBRANCH  11  14
ENDBRANCH   4  10
BRANCH   7  21
ATOM     21  C   LIG    1       22.081 -30.494  12.427  0.00  0.00    +0.246 C 
ATOM     22  N   LIG    1       21.489 -30.480  11.163  0.00  0.00    -0.309 N 
ATOM     23  H   LIG    1       22.070 -30.291  10.372  0.00  0.00    +0.149 HD
ATOM     24  O   LIG    1       21.465 -30.463  13.452  0.00  0.00    -0.270 OA
BRANCH  22  25
ATOM     25  C   LIG    1       20.067 -30.618  10.889  0.00  0.00    +0.138 C 
BRANCH  25  26
ATOM     26  C   LIG    1       19.550 -31.998  10.470  0.00  0.00    +0.157 C 
BRANCH  26  27
ATOM     27  O   LIG    1       18.433 -31.867   9.589  0.00  0.00    -0.388 OA
ATOM     28  H   LIG    1       17.749 -31.362  10.088  0.00  0.00    +0.210 HD
ENDBRANCH  26  27
BRANCH  26  29
ATOM     29  C   LIG    1       19.348 -33.027  11.617  0.00  0.00    +0.188 C 
BRANCH  29  30
ATOM     30  O   LIG    1       19.708 -32.760  12.955  0.00  0.00    -0.392 OA
ATOM     31  H   LIG    1       20.408 -33.359  13.233  0.00  0.00    +0.209 HD
ENDBRANCH  29  30
ENDBRANCH  26  29
ENDBRANCH  25  26
ENDBRANCH  22  25
ENDBRANCH   7  21
BRANCH   1  34
ATOM     32  O   LIG    1       28.506 -29.018  13.322  0.00  0.00    -0.273 OA
ATOM     33  C   LIG    1       28.032 -29.859  14.092  0.00  0.00    +0.245 C 
ATOM     34  N   LIG    1       26.676 -30.299  14.034  0.00  0.00    -0.265 N 
BRANCH  34  35
ATOM     35  C   LIG    1       26.210 -31.210  15.095  0.00  0.00    +0.141 C 
BRANCH  35  36
ATOM     36  C   LIG    1       25.973 -32.678  14.778  0.00  0.00    +0.175 C 
BRANCH  36  37
ATOM     37  O   LIG    1       27.154 -33.288  14.279  0.00  0.00    -0.393 OA
ATOM     38  H   LIG    1       27.388 -32.810  13.463  0.00  0.00    +0.209 HD
ENDBRANCH  36  37
ENDBRANCH  35  36
ENDBRANCH  34  35
BRANCH  33  39
ATOM     39  C   LIG    1       28.930 -30.365  15.279  0.00  0.00    +0.252 C 
BRANCH  39  40
ATOM     40  O   LIG    1       30.297 -30.621  15.008  0.00  0.00    -0.386 OA
ATOM     41  H   LIG    1       30.823 -29.949  15.482  0.00  0.00    +0.210 HD
ENDBRANCH  39  40
ENDBRANCH  33  39
ENDBRANCH   1  34
TORSDOF 18
ENDMDL
MODEL 6
REMARK VINA RESULT:      -4.1      2.967      7.639
REMARK  Name = *****
REMARK                            x       y       z     vdW  Elec       q    Type
REMARK                         _______ _______ _______ _____ _____    ______ ____
ROOT
ATOM      1  C   LIG    1       24.684 -29.028  13.041  0.00  0.00    +0.064 A 
ATOM      2  C   LIG    1       24.198 -30.158  13.702  0.00  0.00    +0.049 A 
ATOM      3  I   LIG    1       25.866 -31.346  14.674  0.00  0.00    -0.041 I 
ATOM      4  C   LIG    1       23.180 -30.922  13.106  0.00  0.00    +0.065 A 
ATOM      5  C   LIG    1       22.909 -30.669  11.763  0.00  0.00    +0.040 A 
ATOM      6  I   LIG    1       20.915 -30.859  10.996  0.00  0.00    -0.042 I 
ATOM      7  C   LIG    1       23.926 -30.089  11.019  0.00  0.00    +0.065 A 
ATOM      8  C   LIG    1       24.894 -29.296  11.693  0.00  0.00    +0.049 A 
ATOM      9  I   LIG    1       26.885 -28.823  11.091  0.00  0.00    -0.041 I 
ENDROOT
BRANCH   4  10
ATOM     10  C   LIG    1       22.504 -32.097  13.736  0.00  0.00    +0.246 C 
ATOM     11  N   LIG    1       21.578 -31.845  14.724  0.00  0.00    -0.309 N 
ATOM     12  H   LIG    1       21.354 -30.881  14.940  0.00  0.00    +0.149 HD
ATOM     13  O   LIG    1       22.788 -33.220  13.387  0.00  0.00    -0.270 OA
BRANCH  11  14
ATOM     14  C   LIG    1       20.866 -32.871  15.442  0.00  0.00    +0.138 C 
BRANCH  14  15
ATOM     15  C   LIG    1       19.537 -33.442  14.892  0.00  0.00    +0.157 C 
BRANCH  15  16
ATOM     16  O   LIG    1       19.751 -33.824  13.517  0.00  0.00    -0.388 OA
ATOM     17  H   LIG    1       18.896 -34.090  13.138  0.00  0.00    +0.210 HD
ENDBRANCH  15  16
BRANCH  15  18
ATOM     18  C   LIG    1       18.338 -32.476  14.940  0.00  0.00    +0.188 C 
BRANCH  18  19
ATOM     19  O   LIG    1       18.323 -31.465  13.948  0.00  0.00    -0.392 OA
ATOM     20  H   LIG    1       17.448 -31.033  14.006  0.00  0.00    +0.209 HD
ENDBRANCH  18  19
ENDBRANCH  15  18
ENDBRANCH  14  15
ENDBRANCH  11  14
ENDBRANCH   4  10
BRANCH   7  21
ATOM     21  C   LIG    1       24.142 -30.599   9.647  0.00  0.00    +0.246 C 
ATOM     22  N   LIG    1       24.129 -29.669   8.606  0.00  0.00    -0.309 N 
ATOM     23  H   LIG    1       23.665 -28.797   8.759  0.00  0.00    +0.149 HD
ATOM     24  O   LIG    1       24.443 -31.749   9.510  0.00  0.00    -0.270 OA
BRANCH  22  25
ATOM     25  C   LIG    1       24.648 -29.887   7.265  0.00  0.00    +0.138 C 
BRANCH  25  26
ATOM     26  C   LIG    1       24.244 -28.894   6.172  0.00  0.00    +0.157 C 
BRANCH  26  27
ATOM     27  O   LIG    1       23.166 -29.419   5.393  0.00  0.00    -0.388 OA
ATOM     28  H   LIG    1       22.531 -29.812   6.035  0.00  0.00    +0.210 HD
ENDBRANCH  26  27
BRANCH  26  29
ATOM     29  C   LIG    1       25.405 -28.288   5.337  0.00  0.00    +0.188 C 
BRANCH  29  30
ATOM     30  O   LIG    1       25.554 -26.900   5.129  0.00  0.00    -0.392 OA
ATOM     31  H   LIG    1       24.816 -26.427   5.527  0.00  0.00    +0.209 HD
ENDBRANCH  29  30
ENDBRANCH  26  29
ENDBRANCH  25  26
ENDBRANCH  22  25
ENDBRANCH   7  21
BRANCH   1  34
ATOM     32  O   LIG    1       26.373 -27.343  14.701  0.00  0.00    -0.273 OA
ATOM     33  C   LIG    1       25.228 -26.968  14.431  0.00  0.00    +0.245 C 
ATOM     34  N   LIG    1       24.369 -27.663  13.527  0.00  0.00    -0.265 N 
BRANCH  34  35
ATOM     35  C   LIG    1       23.078 -27.034  13.197  0.00  0.00    +0.141 C 
BRANCH  35  36
ATOM     36  C   LIG    1       21.795 -27.583  13.802  0.00  0.00    +0.175 C 
BRANCH  36  37
ATOM     37  O   LIG    1       20.717 -27.484  12.884  0.00  0.00    -0.393 OA
ATOM     38  H   LIG    1       21.039 -26.944  12.139  0.00  0.00    +0.209 HD
ENDBRANCH  36  37
ENDBRANCH  35  36
ENDBRANCH  34  35
BRANCH  33  39
ATOM     39  C   LIG    1       24.748 -25.585  15.003  0.00  0.00    +0.252 C 
BRANCH  39  40
ATOM     40  O   LIG    1       25.176 -24.412  14.336  0.00  0.00    -0.386 OA
ATOM     41  H   LIG    1       25.278 -23.711  15.008  0.00  0.00    +0.210 HD
ENDBRANCH  39  40
ENDBRANCH  33  39
ENDBRANCH   1  34
TORSDOF 18
ENDMDL
MODEL 7
REMARK VINA RESULT:      -4.0      2.800      7.394
REMARK  Name = *****
REMARK                            x       y       z     vdW  Elec       q    Type
REMARK                         _______ _______ _______ _____ _____    ______ ____
ROOT
ATOM      1  C   LIG    1       25.012 -29.590  13.075  0.00  0.00    +0.064 A 
ATOM      2  C   LIG    1       24.417 -30.729  13.621  0.00  0.00    +0.049 A 
ATOM      3  I   LIG    1       25.962 -32.246  14.290  0.00  0.00    -0.041 I 
ATOM      4  C   LIG    1       23.267 -31.264  13.016  0.00  0.00    +0.065 A 
ATOM      5  C   LIG    1       22.949 -30.793  11.744  0.00  0.00    +0.040 A 
ATOM      6  I   LIG    1       20.904 -30.614  11.125  0.00  0.00    -0.042 I 
ATOM      7  C   LIG    1       23.988 -30.251  11.001  0.00  0.00    +0.065 A 
ATOM      8  C   LIG    1       25.098 -29.691  11.691  0.00  0.00    +0.049 A 
ATOM      9  I   LIG    1       27.093 -29.401  10.995  0.00  0.00    -0.041 I 
ENDROOT
BRANCH   4  10
ATOM     10  C   LIG    1       22.476 -32.418  13.541  0.00  0.00    +0.246 C 
ATOM     11  N   LIG    1       21.742 -32.217  14.689  0.00  0.00    -0.309 N 
ATOM     12  H   LIG    1       21.723 -31.289  15.093  0.00  0.00    +0.149 HD
ATOM     13  O   LIG    1       22.507 -33.486  12.972  0.00  0.00    -0.270 OA
BRANCH  11  14
ATOM     14  C   LIG    1       20.953 -33.239  15.331  0.00  0.00    +0.138 C 
BRANCH  14  15
ATOM     15  C   LIG    1       19.472 -33.457  14.936  0.00  0.00    +0.157 C 
BRANCH  15  16
ATOM     16  O   LIG    1       19.432 -33.825  13.540  0.00  0.00    -0.388 OA
ATOM     17  H   LIG    1       20.309 -33.654  13.155  0.00  0.00    +0.210 HD
ENDBRANCH  15  16
BRANCH  15  18
ATOM     18  C   LIG    1       18.553 -32.238  15.136  0.00  0.00    +0.188 C 
BRANCH  18  19
ATOM     19  O   LIG    1       18.888 -31.085  14.384  0.00  0.00    -0.392 OA
ATOM     20  H   LIG    1       18.682 -31.293  13.450  0.00  0.00    +0.209 HD
ENDBRANCH  18  19
ENDBRANCH  15  18
ENDBRANCH  14  15
ENDBRANCH  11  14
ENDBRANCH   4  10
BRANCH   7  21
ATOM     21  C   LIG    1       24.043 -30.588   9.561  0.00  0.00    +0.246 C 
ATOM     22  N   LIG    1       24.657 -31.790   9.206  0.00  0.00    -0.309 N 
ATOM     23  H   LIG    1       25.303 -32.198   9.851  0.00  0.00    +0.149 HD
ATOM     24  O   LIG    1       23.454 -29.888   8.792  0.00  0.00    -0.270 OA
BRANCH  22  25
ATOM     25  C   LIG    1       24.523 -32.468   7.926  0.00  0.00    +0.138 C 
BRANCH  25  26
ATOM     26  C   LIG    1       25.410 -31.997   6.771  0.00  0.00    +0.157 C 
BRANCH  26  27
ATOM     27  O   LIG    1       26.694 -31.598   7.257  0.00  0.00    -0.388 OA
ATOM     28  H   LIG    1       26.822 -32.071   8.111  0.00  0.00    +0.210 HD
ENDBRANCH  26  27
BRANCH  26  29
ATOM     29  C   LIG    1       24.760 -30.995   5.776  0.00  0.00    +0.188 C 
BRANCH  29  30
ATOM     30  O   LIG    1       23.396 -30.639   5.833  0.00  0.00    -0.392 OA
ATOM     31  H   LIG    1       22.986 -30.770   4.972  0.00  0.00    +0.209 HD
ENDBRANCH  29  30
ENDBRANCH  26  29
ENDBRANCH  25  26
ENDBRANCH  22  25
ENDBRANCH   7  21
BRANCH   1  34
ATOM     32  O   LIG    1       22.907 -27.610  12.763  0.00  0.00    -0.273 OA
ATOM     33  C   LIG    1       23.897 -27.333  13.446  0.00  0.00    +0.245 C 
ATOM     34  N   LIG    1       24.922 -28.277  13.759  0.00  0.00    -0.265 N 
BRANCH  34  35
ATOM     35  C   LIG    1       25.981 -27.848  14.689  0.00  0.00    +0.141 C 
BRANCH  35  36
ATOM     36  C   LIG    1       27.392 -27.616  14.172  0.00  0.00    +0.175 C 
BRANCH  36  37
ATOM     37  O   LIG    1       27.536 -26.299  13.662  0.00  0.00    -0.393 OA
ATOM     38  H   LIG    1       27.510 -25.701  14.431  0.00  0.00    +0.209 HD
ENDBRANCH  36  37
ENDBRANCH  35  36
ENDBRANCH  34  35
BRANCH  33  39
ATOM     39  C   LIG    1       23.961 -25.914  14.117  0.00  0.00    +0.252 C 
BRANCH  39  40
ATOM     40  O   LIG    1       24.841 -24.958  13.553  0.00  0.00    -0.386 OA
ATOM     41  H   LIG    1       24.570 -24.078  13.879  0.00  0.00    +0.210 HD
ENDBRANCH  39  40
ENDBRANCH  33  39
ENDBRANCH   1  34
TORSDOF 18
ENDMDL
MODEL 8
REMARK VINA RESULT:      -3.5      2.628      6.406
REMARK  Name = *****
REMARK                            x       y       z     vdW  Elec       q    Type
REMARK                         _______ _______ _______ _____ _____    ______ ____
ROOT
ATOM      1  C   LIG    1       20.770 -31.312  12.820  0.00  0.00    +0.064 A 
ATOM      2  C   LIG    1       21.786 -30.453  13.242  0.00  0.00    +0.049 A 
ATOM      3  I   LIG    1       21.176 -28.277  13.059  0.00  0.00    -0.041 I 
ATOM      4  C   LIG    1       23.119 -30.738  12.899  0.00  0.00    +0.065 A 
ATOM      5  C   LIG    1       23.322 -31.708  11.921  0.00  0.00    +0.040 A 
ATOM      6  I   LIG    1       25.041 -32.989  11.993  0.00  0.00    -0.042 I 
ATOM      7  C   LIG    1       22.270 -31.946  11.048  0.00  0.00    +0.065 A 
ATOM      8  C   LIG    1       20.947 -31.669  11.488  0.00  0.00    +0.049 A 
ATOM      9  I   LIG    1       19.212 -31.254  10.318  0.00  0.00    -0.041 I 
ENDROOT
BRANCH   4  10
ATOM     10  C   LIG    1       24.311 -29.961  13.357  0.00  0.00    +0.246 C 
ATOM     11  N   LIG    1       24.999 -29.234  12.412  0.00  0.00    -0.309 N 
ATOM     12  H   LIG    1       24.640 -29.211  11.466  0.00  0.00    +0.149 HD
ATOM     13  O   LIG    1       24.650 -29.997  14.519  0.00  0.00    -0.270 OA
BRANCH  11  14
ATOM     14  C   LIG    1       26.182 -28.460  12.694  0.00  0.00    +0.138 C 
BRANCH  14  15
ATOM     15  C   LIG    1       27.578 -29.127  12.706  0.00  0.00    +0.157 C 
BRANCH  15  16
ATOM     16  O   LIG    1       28.479 -28.264  13.431  0.00  0.00    -0.388 OA
ATOM     17  H   LIG    1       28.137 -28.156  14.335  0.00  0.00    +0.210 HD
ENDBRANCH  15  16
BRANCH  15  18
ATOM     18  C   LIG    1       28.188 -29.398  11.318  0.00  0.00    +0.188 C 
BRANCH  18  19
ATOM     19  O   LIG    1       27.610 -30.466  10.589  0.00  0.00    -0.392 OA
ATOM     20  H   LIG    1       26.699 -30.189  10.366  0.00  0.00    +0.209 HD
ENDBRANCH  18  19
ENDBRANCH  15  18
ENDBRANCH  14  15
ENDBRANCH  11  14
ENDBRANCH   4  10
BRANCH   7  21
ATOM     21  C   LIG    1       22.602 -32.141   9.619  0.00  0.00    +0.246 C 
ATOM     22  N   LIG    1       23.649 -31.383   9.094  0.00  0.00    -0.309 N 
ATOM     23  H   LIG    1       23.904 -30.540   9.565  0.00  0.00    +0.149 HD
ATOM     24  O   LIG    1       22.051 -33.020   9.025  0.00  0.00    -0.270 OA
BRANCH  22  25
ATOM     25  C   LIG    1       24.352 -31.653   7.849  0.00  0.00    +0.138 C 
BRANCH  25  26
ATOM     26  C   LIG    1       25.012 -30.473   7.131  0.00  0.00    +0.157 C 
BRANCH  26  27
ATOM     27  O   LIG    1       26.149 -30.013   7.865  0.00  0.00    -0.388 OA
ATOM     28  H   LIG    1       25.806 -29.361   8.519  0.00  0.00    +0.210 HD
ENDBRANCH  26  27
BRANCH  26  29
ATOM     29  C   LIG    1       24.057 -29.345   6.652  0.00  0.00    +0.188 C 
BRANCH  29  30
ATOM     30  O   LIG    1       23.324 -29.424   5.448  0.00  0.00    -0.392 OA
ATOM     31  H   LIG    1       23.927 -29.518   4.703  0.00  0.00    +0.209 HD
ENDBRANCH  29  30
ENDBRANCH  26  29
ENDBRANCH  25  26
ENDBRANCH  22  25
ENDBRANCH   7  21
BRANCH   1  34
ATOM     32  O   LIG    1       18.160 -30.856  14.015  0.00  0.00    -0.273 OA
ATOM     33  C   LIG    1       18.834 -31.821  14.390  0.00  0.00    +0.245 C 
ATOM     34  N   LIG    1       20.068 -32.198  13.780  0.00  0.00    -0.265 N 
BRANCH  34  35
ATOM     35  C   LIG    1       20.702 -33.445  14.243  0.00  0.00    +0.141 C 
BRANCH  35  36
ATOM     36  C   LIG    1       21.559 -33.434  15.500  0.00  0.00    +0.175 C 
BRANCH  36  37
ATOM     37  O   LIG    1       22.916 -33.163  15.187  0.00  0.00    -0.393 OA
ATOM     38  H   LIG    1       23.153 -32.347  15.666  0.00  0.00    +0.209 HD
ENDBRANCH  36  37
ENDBRANCH  35  36
ENDBRANCH  34  35
BRANCH  33  39
ATOM     39  C   LIG    1       18.233 -32.757  15.500  0.00  0.00    +0.252 C 
BRANCH  39  40
ATOM     40  O   LIG    1       17.216 -33.665  15.116  0.00  0.00    -0.386 OA
ATOM     41  H   LIG    1       17.616 -34.554  15.069  0.00  0.00    +0.210 HD
ENDBRANCH  39  40
ENDBRANCH  33  39
ENDBRANCH   1  34
TORSDOF 18
ENDMDL
MODEL 9
REMARK VINA RESULT:      -3.4      2.821      6.661
REMARK  Name = *****
REMARK                            x       y       z     vdW  Elec       q    Type
REMARK                         _______ _______ _______ _____ _____    ______ ____
ROOT
ATOM      1  C   LIG    1       20.953 -30.394  13.399  0.00  0.00    +0.064 A 
ATOM      2  C   LIG    1       21.861 -29.415  13.805  0.00  0.00    +0.049 A 
ATOM      3  I   LIG    1       21.168 -27.335  13.231  0.00  0.00    -0.041 I 
ATOM      4  C   LIG    1       23.240 -29.652  13.667  0.00  0.00    +0.065 A 
ATOM      5  C   LIG    1       23.615 -30.735  12.875  0.00  0.00    +0.040 A 
ATOM      6  I   LIG    1       25.375 -31.870  13.337  0.00  0.00    -0.042 I 
ATOM      7  C   LIG    1       22.695 -31.166  11.929  0.00  0.00    +0.065 A 
ATOM      8  C   LIG    1       21.314 -30.923  12.165  0.00  0.00    +0.049 A 
ATOM      9  I   LIG    1       19.722 -30.798  10.750  0.00  0.00    -0.041 I 
ENDROOT
BRANCH   4  10
ATOM     10  C   LIG    1       24.323 -28.738  14.141  0.00  0.00    +0.246 C 
ATOM     11  N   LIG    1       25.191 -28.236  13.198  0.00  0.00    -0.309 N 
ATOM     12  H   LIG    1       25.027 -28.460  12.224  0.00  0.00    +0.149 HD
ATOM     13  O   LIG    1       24.424 -28.474  15.318  0.00  0.00    -0.270 OA
BRANCH  11  14
ATOM     14  C   LIG    1       26.300 -27.367  13.504  0.00  0.00    +0.138 C 
BRANCH  14  15
ATOM     15  C   LIG    1       26.271 -25.876  13.091  0.00  0.00    +0.157 C 
BRANCH  15  16
ATOM     16  O   LIG    1       27.565 -25.306  13.385  0.00  0.00    -0.388 OA
ATOM     17  H   LIG    1       28.223 -26.022  13.371  0.00  0.00    +0.210 HD
ENDBRANCH  15  16
BRANCH  15  18
ATOM     18  C   LIG    1       25.201 -25.020  13.794  0.00  0.00    +0.188 C 
BRANCH  18  19
ATOM     19  O   LIG    1       25.510 -23.646  13.942  0.00  0.00    -0.392 OA
ATOM     20  H   LIG    1       25.243 -23.210  13.108  0.00  0.00    +0.209 HD
ENDBRANCH  18  19
ENDBRANCH  15  18
ENDBRANCH  14  15
ENDBRANCH  11  14
ENDBRANCH   4  10
BRANCH   7  21
ATOM     21  C   LIG    1       23.214 -31.537  10.594  0.00  0.00    +0.246 C 
ATOM     22  N   LIG    1       23.483 -30.502   9.699  0.00  0.00    -0.309 N 
ATOM     23  H   LIG    1       23.027 -29.623   9.842  0.00  0.00    +0.149 HD
ATOM     24  O   LIG    1       23.497 -32.682  10.395  0.00  0.00    -0.270 OA
BRANCH  22  25
ATOM     25  C   LIG    1       24.298 -30.605   8.498  0.00  0.00    +0.138 C 
BRANCH  25  26
ATOM     26  C   LIG    1       25.153 -29.396   8.108  0.00  0.00    +0.157 C 
BRANCH  26  27
ATOM     27  O   LIG    1       25.708 -29.577   6.803  0.00  0.00    -0.388 OA
ATOM     28  H   LIG    1       26.598 -29.155   6.824  0.00  0.00    +0.210 HD
ENDBRANCH  26  27
BRANCH  26  29
ATOM     29  C   LIG    1       26.168 -28.905   9.176  0.00  0.00    +0.188 C 
BRANCH  29  30
ATOM     30  O   LIG    1       27.384 -29.573   9.438  0.00  0.00    -0.392 OA
ATOM     31  H   LIG    1       28.120 -28.957   9.362  0.00  0.00    +0.209 HD
ENDBRANCH  29  30
ENDBRANCH  26  29
ENDBRANCH  25  26
ENDBRANCH  22  25
ENDBRANCH   7  21
BRANCH   1  34
ATOM     32  O   LIG    1       21.262 -33.224  13.988  0.00  0.00    -0.273 OA
ATOM     33  C   LIG    1       20.342 -32.595  14.520  0.00  0.00    +0.245 C 
ATOM     34  N   LIG    1       20.182 -31.182  14.391  0.00  0.00    -0.265 N 
BRANCH  34  35
ATOM     35  C   LIG    1       19.117 -30.543  15.183  0.00  0.00    +0.141 C 
BRANCH  35  36
ATOM     36  C   LIG    1       17.864 -30.031  14.489  0.00  0.00    +0.175 C 
BRANCH  36  37
ATOM     37  O   LIG    1       17.075 -31.108  14.005  0.00  0.00    -0.393 OA
ATOM     38  H   LIG    1       16.335 -31.211  14.631  0.00  0.00    +0.209 HD
ENDBRANCH  36  37
ENDBRANCH  35  36
ENDBRANCH  34  35
BRANCH  33  39
ATOM     39  C   LIG    1       19.384 -33.367  15.497  0.00  0.00    +0.252 C 
BRANCH  39  40
ATOM     40  O   LIG    1       18.146 -33.824  14.983  0.00  0.00    -0.386 OA
ATOM     41  H   LIG    1       17.547 -33.055  14.931  0.00  0.00    +0.210 HD
ENDBRANCH  39  40
ENDBRANCH  33  39
ENDBRANCH   1  34
TORSDOF 18
ENDMDL
