MODEL 1
REMARK VINA RESULT:     -10.0      0.000      0.000
REMARK  Name = *****
REMARK                            x       y       z     vdW  Elec       q    Type
REMARK                         _______ _______ _______ _____ _____    ______ ____
ROOT
ATOM      1  N   LIG    1       25.690 -25.193   5.931  0.00  0.00    -0.295 NA
ATOM      2  C   LIG    1       26.664 -26.290   6.145  0.00  0.00    +0.128 C 
ATOM      3  C   LIG    1       26.323 -27.638   5.461  0.00  0.00    +0.241 C 
ATOM      4  N   LIG    1       24.989 -28.143   5.860  0.00  0.00    -0.217 N 
ATOM      5  C   LIG    1       24.010 -27.079   6.164  0.00  0.00    +0.241 C 
ATOM      6  C   LIG    1       24.383 -25.731   5.521  0.00  0.00    +0.128 C 
ENDROOT
BRANCH   4   7
ATOM      7  C   LIG    1       24.845 -29.447   6.369  0.00  0.00    +0.330 C 
ATOM      8  C   LIG    1       25.538 -29.817   7.657  0.00  0.00    +0.070 A 
ATOM      9  C   LIG    1       26.057 -31.112   7.773  0.00  0.00    -0.019 A 
ATOM     10  C   LIG    1       26.870 -31.430   8.868  0.00  0.00    +0.005 A 
ATOM     11  C   LIG    1       27.119 -30.473   9.856  0.00  0.00    +0.000 A 
ATOM     12  C   LIG    1       26.516 -29.219   9.784  0.00  0.00    +0.001 A 
ATOM     13  C   LIG    1       25.713 -32.113   6.713  0.00  0.00    +0.158 C 
ATOM     14  S   LIG    1       23.964 -31.911   6.230  0.00  0.00    +0.115 S 
ATOM     15  C   LIG    1       25.696 -28.904   8.703  0.00  0.00    +0.016 A 
ATOM     16  N   LIG    1       24.165 -30.338   5.689  0.00  0.00    -0.003 NA
ENDBRANCH   4   7
BRANCH   1  17
ATOM     17  C   LIG    1       25.560 -24.302   7.095  0.00  0.00    +0.085 C 
BRANCH  17  18
ATOM     18  C   LIG    1       26.488 -23.076   7.095  0.00  0.00    +0.017 C 
BRANCH  18  19
ATOM     19  C   LIG    1       26.342 -22.201   8.341  0.00  0.00    +0.021 C 
BRANCH  19  20
ATOM     20  C   LIG    1       26.027 -20.748   7.975  0.00  0.00    +0.116 C 
BRANCH  20  23
ATOM     21  O   LIG    1       26.716 -20.122   5.225  0.00  0.00    -0.275 OA
ATOM     22  C   LIG    1       25.577 -20.424   5.558  0.00  0.00    +0.226 C 
ATOM     23  N   LIG    1       25.139 -20.671   6.828  0.00  0.00    -0.242 N 
ATOM     24  C   LIG    1       23.813 -21.021   6.862  0.00  0.00    +0.226 C 
ATOM     25  O   LIG    1       23.201 -21.470   7.811  0.00  0.00    -0.275 OA
ATOM     26  C   LIG    1       23.208 -20.709   5.509  0.00  0.00    +0.087 C 
ATOM     27  C   LIG    1       22.455 -19.375   5.565  0.00  0.00    +0.013 C 
ATOM     28  C   LIG    1       22.359 -18.689   4.208  0.00  0.00    +0.001 C 
ATOM     29  C   LIG    1       23.746 -18.491   3.613  0.00  0.00    +0.001 C 
ATOM     30  C   LIG    1       24.416 -19.835   3.372  0.00  0.00    +0.013 C 
ATOM     31  C   LIG    1       24.444 -20.728   4.606  0.00  0.00    +0.087 C 
ENDBRANCH  20  23
ENDBRANCH  19  20
ENDBRANCH  18  19
ENDBRANCH  17  18
ENDBRANCH   1  17
TORSDOF 6
ENDMDL
MODEL 2
REMARK VINA RESULT:      -9.8      1.939      3.329
REMARK  Name = *****
REMARK                            x       y       z     vdW  Elec       q    Type
REMARK                         _______ _______ _______ _____ _____    ______ ____
ROOT
ATOM      1  N   LIG    1       25.770 -25.282   5.558  0.00  0.00    -0.295 NA
ATOM      2  C   LIG    1       26.709 -26.379   5.891  0.00  0.00    +0.128 C 
ATOM      3  C   LIG    1       26.294 -27.793   5.412  0.00  0.00    +0.241 C 
ATOM      4  N   LIG    1       24.958 -28.182   5.919  0.00  0.00    -0.217 N 
ATOM      5  C   LIG    1       24.030 -27.047   6.102  0.00  0.00    +0.241 C 
ATOM      6  C   LIG    1       24.429 -25.817   5.267  0.00  0.00    +0.128 C 
ENDROOT
BRANCH   4   7
ATOM      7  C   LIG    1       24.784 -29.397   6.608  0.00  0.00    +0.330 C 
ATOM      8  C   LIG    1       25.557 -29.639   7.881  0.00  0.00    +0.070 A 
ATOM      9  C   LIG    1       26.013 -30.939   8.133  0.00  0.00    -0.019 A 
ATOM     10  C   LIG    1       26.892 -31.163   9.199  0.00  0.00    +0.005 A 
ATOM     11  C   LIG    1       27.271 -30.104  10.028  0.00  0.00    +0.000 A 
ATOM     12  C   LIG    1       26.734 -28.833   9.831  0.00  0.00    +0.001 A 
ATOM     13  C   LIG    1       25.531 -32.046   7.245  0.00  0.00    +0.158 C 
ATOM     14  S   LIG    1       23.762 -31.796   6.867  0.00  0.00    +0.115 S 
ATOM     15  C   LIG    1       25.848 -28.610   8.780  0.00  0.00    +0.016 A 
ATOM     16  N   LIG    1       24.005 -30.323   6.105  0.00  0.00    -0.003 NA
ENDBRANCH   4   7
BRANCH   1  17
ATOM     17  C   LIG    1       25.715 -24.235   6.590  0.00  0.00    +0.085 C 
BRANCH  17  18
ATOM     18  C   LIG    1       24.788 -23.048   6.277  0.00  0.00    +0.017 C 
BRANCH  18  19
ATOM     19  C   LIG    1       24.501 -22.163   7.491  0.00  0.00    +0.021 C 
BRANCH  19  20
ATOM     20  C   LIG    1       24.950 -20.718   7.255  0.00  0.00    +0.116 C 
BRANCH  20  23
ATOM     21  O   LIG    1       27.165 -21.514   8.955  0.00  0.00    -0.275 OA
ATOM     22  C   LIG    1       27.335 -21.104   7.814  0.00  0.00    +0.226 C 
ATOM     23  N   LIG    1       26.372 -20.648   6.961  0.00  0.00    -0.242 N 
ATOM     24  C   LIG    1       26.883 -20.295   5.738  0.00  0.00    +0.226 C 
ATOM     25  O   LIG    1       26.254 -20.033   4.732  0.00  0.00    -0.275 OA
ATOM     26  C   LIG    1       28.392 -20.239   5.856  0.00  0.00    +0.087 C 
ATOM     27  C   LIG    1       28.853 -18.788   6.031  0.00  0.00    +0.013 C 
ATOM     28  C   LIG    1       30.189 -18.671   6.754  0.00  0.00    +0.001 C 
ATOM     29  C   LIG    1       30.127 -19.374   8.102  0.00  0.00    +0.001 C 
ATOM     30  C   LIG    1       29.866 -20.861   7.914  0.00  0.00    +0.013 C 
ATOM     31  C   LIG    1       28.642 -21.156   7.057  0.00  0.00    +0.087 C 
ENDBRANCH  20  23
ENDBRANCH  19  20
ENDBRANCH  18  19
ENDBRANCH  17  18
ENDBRANCH   1  17
TORSDOF 6
ENDMDL
MODEL 3
REMARK VINA RESULT:      -9.3      1.411      2.181
REMARK  Name = *****
REMARK                            x       y       z     vdW  Elec       q    Type
REMARK                         _______ _______ _______ _____ _____    ______ ____
ROOT
ATOM      1  N   LIG    1       25.516 -25.209   5.706  0.00  0.00    -0.295 NA
ATOM      2  C   LIG    1       26.606 -26.087   6.194  0.00  0.00    +0.128 C 
ATOM      3  C   LIG    1       26.510 -27.576   5.778  0.00  0.00    +0.241 C 
ATOM      4  N   LIG    1       25.226 -28.189   6.192  0.00  0.00    -0.217 N 
ATOM      5  C   LIG    1       24.090 -27.244   6.216  0.00  0.00    +0.241 C 
ATOM      6  C   LIG    1       24.334 -26.005   5.337  0.00  0.00    +0.128 C 
ENDROOT
BRANCH   4   7
ATOM      7  C   LIG    1       25.215 -29.377   6.945  0.00  0.00    +0.330 C 
ATOM      8  C   LIG    1       25.157 -30.704   6.229  0.00  0.00    +0.070 A 
ATOM      9  C   LIG    1       24.411 -31.733   6.815  0.00  0.00    -0.019 A 
ATOM     10  C   LIG    1       24.176 -32.909   6.091  0.00  0.00    +0.005 A 
ATOM     11  C   LIG    1       24.723 -33.066   4.815  0.00  0.00    +0.000 A 
ATOM     12  C   LIG    1       25.548 -32.078   4.280  0.00  0.00    +0.001 A 
ATOM     13  C   LIG    1       23.895 -31.532   8.207  0.00  0.00    +0.158 C 
ATOM     14  S   LIG    1       25.166 -30.692   9.212  0.00  0.00    +0.115 S 
ATOM     15  C   LIG    1       25.795 -30.914   5.004  0.00  0.00    +0.016 A 
ATOM     16  N   LIG    1       25.191 -29.317   8.255  0.00  0.00    -0.003 NA
ENDBRANCH   4   7
BRANCH   1  17
ATOM     17  C   LIG    1       25.166 -24.141   6.655  0.00  0.00    +0.085 C 
BRANCH  17  18
ATOM     18  C   LIG    1       26.343 -23.280   7.143  0.00  0.00    +0.017 C 
BRANCH  18  19
ATOM     19  C   LIG    1       26.003 -22.416   8.359  0.00  0.00    +0.021 C 
BRANCH  19  20
ATOM     20  C   LIG    1       25.860 -20.939   7.979  0.00  0.00    +0.116 C 
BRANCH  20  23
ATOM     21  O   LIG    1       26.661 -20.260   5.273  0.00  0.00    -0.275 OA
ATOM     22  C   LIG    1       25.498 -20.507   5.564  0.00  0.00    +0.226 C 
ATOM     23  N   LIG    1       25.011 -20.773   6.812  0.00  0.00    -0.242 N 
ATOM     24  C   LIG    1       23.668 -21.047   6.799  0.00  0.00    +0.226 C 
ATOM     25  O   LIG    1       23.005 -21.493   7.715  0.00  0.00    -0.275 OA
ATOM     26  C   LIG    1       23.119 -20.654   5.442  0.00  0.00    +0.087 C 
ATOM     27  C   LIG    1       22.442 -19.282   5.526  0.00  0.00    +0.013 C 
ATOM     28  C   LIG    1       22.423 -18.545   4.193  0.00  0.00    +0.001 C 
ATOM     29  C   LIG    1       23.834 -18.407   3.642  0.00  0.00    +0.001 C 
ATOM     30  C   LIG    1       24.435 -19.778   3.371  0.00  0.00    +0.013 C 
ATOM     31  C   LIG    1       24.378 -20.713   4.572  0.00  0.00    +0.087 C 
ENDBRANCH  20  23
ENDBRANCH  19  20
ENDBRANCH  18  19
ENDBRANCH  17  18
ENDBRANCH   1  17
TORSDOF 6
ENDMDL
MODEL 4
REMARK VINA RESULT:      -9.3      2.461      4.125
REMARK  Name = *****
REMARK                            x       y       z     vdW  Elec       q    Type
REMARK                         _______ _______ _______ _____ _____    ______ ____
ROOT
ATOM      1  N   LIG    1       24.598 -24.731   5.962  0.00  0.00    -0.295 NA
ATOM      2  C   LIG    1       25.651 -24.967   6.978  0.00  0.00    +0.128 C 
ATOM      3  C   LIG    1       26.430 -26.300   6.848  0.00  0.00    +0.241 C 
ATOM      4  N   LIG    1       25.528 -27.475   6.861  0.00  0.00    -0.217 N 
ATOM      5  C   LIG    1       24.195 -27.216   6.279  0.00  0.00    +0.241 C 
ATOM      6  C   LIG    1       24.188 -26.000   5.337  0.00  0.00    +0.128 C 
ENDROOT
BRANCH   4   7
ATOM      7  C   LIG    1       25.747 -28.530   7.766  0.00  0.00    +0.330 C 
ATOM      8  C   LIG    1       25.143 -29.884   7.481  0.00  0.00    +0.070 A 
ATOM      9  C   LIG    1       24.678 -30.634   8.567  0.00  0.00    -0.019 A 
ATOM     10  C   LIG    1       23.941 -31.802   8.329  0.00  0.00    +0.005 A 
ATOM     11  C   LIG    1       23.717 -32.232   7.019  0.00  0.00    +0.000 A 
ATOM     12  C   LIG    1       24.270 -31.534   5.947  0.00  0.00    +0.001 A 
ATOM     13  C   LIG    1       24.995 -30.155   9.951  0.00  0.00    +0.158 C 
ATOM     14  S   LIG    1       26.704 -29.517   9.997  0.00  0.00    +0.115 S 
ATOM     15  C   LIG    1       25.015 -30.380   6.182  0.00  0.00    +0.016 A 
ATOM     16  N   LIG    1       26.417 -28.310   8.871  0.00  0.00    -0.003 NA
ENDBRANCH   4   7
BRANCH   1  17
ATOM     17  C   LIG    1       23.439 -23.996   6.492  0.00  0.00    +0.085 C 
BRANCH  17  18
ATOM     18  C   LIG    1       23.766 -22.673   7.204  0.00  0.00    +0.017 C 
BRANCH  18  19
ATOM     19  C   LIG    1       24.401 -21.628   6.286  0.00  0.00    +0.021 C 
BRANCH  19  20
ATOM     20  C   LIG    1       25.092 -20.520   7.085  0.00  0.00    +0.116 C 
BRANCH  20  23
ATOM     21  O   LIG    1       27.112 -21.638   8.845  0.00  0.00    -0.275 OA
ATOM     22  C   LIG    1       27.394 -21.150   7.758  0.00  0.00    +0.226 C 
ATOM     23  N   LIG    1       26.531 -20.544   6.890  0.00  0.00    -0.242 N 
ATOM     24  C   LIG    1       27.153 -20.136   5.738  0.00  0.00    +0.226 C 
ATOM     25  O   LIG    1       26.619 -19.739   4.721  0.00  0.00    -0.275 OA
ATOM     26  C   LIG    1       28.651 -20.217   5.956  0.00  0.00    +0.087 C 
ATOM     27  C   LIG    1       29.210 -18.829   6.288  0.00  0.00    +0.013 C 
ATOM     28  C   LIG    1       30.496 -18.885   7.101  0.00  0.00    +0.001 C 
ATOM     29  C   LIG    1       30.286 -19.690   8.375  0.00  0.00    +0.001 C 
ATOM     30  C   LIG    1       29.922 -21.129   8.039  0.00  0.00    +0.013 C 
ATOM     31  C   LIG    1       28.742 -21.249   7.084  0.00  0.00    +0.087 C 
ENDBRANCH  20  23
ENDBRANCH  19  20
ENDBRANCH  18  19
ENDBRANCH  17  18
ENDBRANCH   1  17
TORSDOF 6
ENDMDL
MODEL 5
REMARK VINA RESULT:      -8.8      3.787      9.830
REMARK  Name = *****
REMARK                            x       y       z     vdW  Elec       q    Type
REMARK                         _______ _______ _______ _____ _____    ______ ____
ROOT
ATOM      1  N   LIG    1       24.706 -25.755   6.544  0.00  0.00    -0.295 NA
ATOM      2  C   LIG    1       25.984 -25.051   6.811  0.00  0.00    +0.128 C 
ATOM      3  C   LIG    1       25.859 -23.632   7.419  0.00  0.00    +0.241 C 
ATOM      4  N   LIG    1       25.025 -22.738   6.581  0.00  0.00    -0.217 N 
ATOM      5  C   LIG    1       23.955 -23.436   5.840  0.00  0.00    +0.241 C 
ATOM      6  C   LIG    1       23.592 -24.795   6.464  0.00  0.00    +0.128 C 
ENDROOT
BRANCH   4   7
ATOM      7  C   LIG    1       25.519 -21.489   6.165  0.00  0.00    +0.330 C 
ATOM      8  C   LIG    1       24.573 -20.491   5.543  0.00  0.00    +0.070 A 
ATOM      9  C   LIG    1       25.057 -19.692   4.501  0.00  0.00    -0.019 A 
ATOM     10  C   LIG    1       24.161 -18.896   3.775  0.00  0.00    +0.005 A 
ATOM     11  C   LIG    1       22.808 -18.869   4.122  0.00  0.00    +0.000 A 
ATOM     12  C   LIG    1       22.354 -19.591   5.225  0.00  0.00    +0.001 A 
ATOM     13  C   LIG    1       26.526 -19.718   4.208  0.00  0.00    +0.158 C 
ATOM     14  S   LIG    1       27.458 -19.769   5.776  0.00  0.00    +0.115 S 
ATOM     15  C   LIG    1       23.244 -20.372   5.957  0.00  0.00    +0.016 A 
ATOM     16  N   LIG    1       26.801 -21.231   6.263  0.00  0.00    -0.003 NA
ENDBRANCH   4   7
BRANCH   1  17
ATOM     17  C   LIG    1       24.758 -26.614   5.350  0.00  0.00    +0.085 C 
BRANCH  17  18
ATOM     18  C   LIG    1       24.987 -28.110   5.623  0.00  0.00    +0.017 C 
BRANCH  18  19
ATOM     19  C   LIG    1       24.409 -28.581   6.958  0.00  0.00    +0.021 C 
BRANCH  19  20
ATOM     20  C   LIG    1       25.125 -29.833   7.473  0.00  0.00    +0.116 C 
BRANCH  20  23
ATOM     21  O   LIG    1       22.820 -30.479   9.115  0.00  0.00    -0.275 OA
ATOM     22  C   LIG    1       23.930 -30.293   9.596  0.00  0.00    +0.226 C 
ATOM     23  N   LIG    1       25.058 -29.923   8.921  0.00  0.00    -0.242 N 
ATOM     24  C   LIG    1       26.151 -29.833   9.744  0.00  0.00    +0.226 C 
ATOM     25  O   LIG    1       27.311 -29.708   9.406  0.00  0.00    -0.275 OA
ATOM     26  C   LIG    1       25.666 -29.872  11.179  0.00  0.00    +0.087 C 
ATOM     27  C   LIG    1       25.606 -28.451  11.752  0.00  0.00    +0.013 C 
ATOM     28  C   LIG    1       24.596 -28.309  12.884  0.00  0.00    +0.001 C 
ATOM     29  C   LIG    1       23.216 -28.755  12.425  0.00  0.00    +0.001 C 
ATOM     30  C   LIG    1       23.234 -30.227  12.042  0.00  0.00    +0.013 C 
ATOM     31  C   LIG    1       24.316 -30.577  11.029  0.00  0.00    +0.087 C 
ENDBRANCH  20  23
ENDBRANCH  19  20
ENDBRANCH  18  19
ENDBRANCH  17  18
ENDBRANCH   1  17
TORSDOF 6
ENDMDL
MODEL 6
REMARK VINA RESULT:      -8.5      3.606     10.246
REMARK  Name = *****
REMARK                            x       y       z     vdW  Elec       q    Type
REMARK                         _______ _______ _______ _____ _____    ______ ____
ROOT
ATOM      1  N   LIG    1       24.515 -25.570   6.577  0.00  0.00    -0.295 NA
ATOM      2  C   LIG    1       25.852 -24.938   6.681  0.00  0.00    +0.128 C 
ATOM      3  C   LIG    1       25.884 -23.527   7.321  0.00  0.00    +0.241 C 
ATOM      4  N   LIG    1       24.995 -22.575   6.616  0.00  0.00    -0.217 N 
ATOM      5  C   LIG    1       23.800 -23.202   6.014  0.00  0.00    +0.241 C 
ATOM      6  C   LIG    1       23.453 -24.554   6.662  0.00  0.00    +0.128 C 
ENDROOT
BRANCH   4   7
ATOM      7  C   LIG    1       25.494 -21.343   6.155  0.00  0.00    +0.330 C 
ATOM      8  C   LIG    1       24.548 -20.356   5.517  0.00  0.00    +0.070 A 
ATOM      9  C   LIG    1       25.024 -19.593   4.444  0.00  0.00    -0.019 A 
ATOM     10  C   LIG    1       24.125 -18.810   3.707  0.00  0.00    +0.005 A 
ATOM     11  C   LIG    1       22.778 -18.761   4.072  0.00  0.00    +0.000 A 
ATOM     12  C   LIG    1       22.333 -19.445   5.202  0.00  0.00    +0.001 A 
ATOM     13  C   LIG    1       26.488 -19.641   4.131  0.00  0.00    +0.158 C 
ATOM     14  S   LIG    1       27.443 -19.654   5.687  0.00  0.00    +0.115 S 
ATOM     15  C   LIG    1       23.226 -20.212   5.945  0.00  0.00    +0.016 A 
ATOM     16  N   LIG    1       26.779 -21.095   6.228  0.00  0.00    -0.003 NA
ENDBRANCH   4   7
BRANCH   1  17
ATOM     17  C   LIG    1       24.363 -26.405   5.375  0.00  0.00    +0.085 C 
BRANCH  17  18
ATOM     18  C   LIG    1       25.674 -26.932   4.767  0.00  0.00    +0.017 C 
BRANCH  18  19
ATOM     19  C   LIG    1       25.932 -28.410   5.063  0.00  0.00    +0.021 C 
BRANCH  19  20
ATOM     20  C   LIG    1       24.627 -29.170   5.319  0.00  0.00    +0.116 C 
BRANCH  20  23
ATOM     21  O   LIG    1       23.802 -29.728   8.046  0.00  0.00    -0.275 OA
ATOM     22  C   LIG    1       24.377 -30.561   7.357  0.00  0.00    +0.226 C 
ATOM     23  N   LIG    1       24.861 -30.377   6.093  0.00  0.00    -0.242 N 
ATOM     24  C   LIG    1       25.420 -31.519   5.578  0.00  0.00    +0.226 C 
ATOM     25  O   LIG    1       25.761 -31.710   4.428  0.00  0.00    -0.275 OA
ATOM     26  C   LIG    1       25.591 -32.512   6.710  0.00  0.00    +0.087 C 
ATOM     27  C   LIG    1       27.039 -32.495   7.211  0.00  0.00    +0.013 C 
ATOM     28  C   LIG    1       27.172 -32.944   8.661  0.00  0.00    +0.001 C 
ATOM     29  C   LIG    1       26.289 -32.095   9.563  0.00  0.00    +0.001 C 
ATOM     30  C   LIG    1       24.825 -32.269   9.188  0.00  0.00    +0.013 C 
ATOM     31  C   LIG    1       24.543 -32.020   7.712  0.00  0.00    +0.087 C 
ENDBRANCH  20  23
ENDBRANCH  19  20
ENDBRANCH  18  19
ENDBRANCH  17  18
ENDBRANCH   1  17
TORSDOF 6
ENDMDL
MODEL 7
REMARK VINA RESULT:      -8.5      2.298      3.384
REMARK  Name = *****
REMARK                            x       y       z     vdW  Elec       q    Type
REMARK                         _______ _______ _______ _____ _____    ______ ____
ROOT
ATOM      1  N   LIG    1       25.291 -28.072   6.215  0.00  0.00    -0.295 NA
ATOM      2  C   LIG    1       25.347 -28.384   7.663  0.00  0.00    +0.128 C 
ATOM      3  C   LIG    1       25.546 -29.877   8.026  0.00  0.00    +0.241 C 
ATOM      4  N   LIG    1       24.502 -30.740   7.425  0.00  0.00    -0.217 N 
ATOM      5  C   LIG    1       23.986 -30.246   6.131  0.00  0.00    +0.241 C 
ATOM      6  C   LIG    1       24.960 -29.278   5.437  0.00  0.00    +0.128 C 
ENDROOT
BRANCH   4   7
ATOM      7  C   LIG    1       23.756 -31.620   8.230  0.00  0.00    +0.330 C 
ATOM      8  C   LIG    1       23.581 -31.310   9.696  0.00  0.00    +0.070 A 
ATOM      9  C   LIG    1       23.576 -32.382  10.596  0.00  0.00    -0.019 A 
ATOM     10  C   LIG    1       23.609 -32.122  11.972  0.00  0.00    +0.005 A 
ATOM     11  C   LIG    1       23.600 -30.805  12.436  0.00  0.00    +0.000 A 
ATOM     12  C   LIG    1       23.503 -29.745  11.536  0.00  0.00    +0.001 A 
ATOM     13  C   LIG    1       23.530 -33.774  10.044  0.00  0.00    +0.158 C 
ATOM     14  S   LIG    1       22.393 -33.825   8.617  0.00  0.00    +0.115 S 
ATOM     15  C   LIG    1       23.456 -30.001  10.167  0.00  0.00    +0.016 A 
ATOM     16  N   LIG    1       23.279 -32.727   7.713  0.00  0.00    -0.003 NA
ENDBRANCH   4   7
BRANCH   1  17
ATOM     17  C   LIG    1       24.377 -26.964   5.898  0.00  0.00    +0.085 C 
BRANCH  17  18
ATOM     18  C   LIG    1       25.017 -25.767   5.174  0.00  0.00    +0.017 C 
BRANCH  18  19
ATOM     19  C   LIG    1       26.103 -25.069   5.994  0.00  0.00    +0.021 C 
BRANCH  19  20
ATOM     20  C   LIG    1       25.516 -24.350   7.212  0.00  0.00    +0.116 C 
BRANCH  20  23
ATOM     21  O   LIG    1       22.875 -23.213   6.813  0.00  0.00    -0.275 OA
ATOM     22  C   LIG    1       23.888 -22.527   6.788  0.00  0.00    +0.226 C 
ATOM     23  N   LIG    1       25.175 -22.972   6.900  0.00  0.00    -0.242 N 
ATOM     24  C   LIG    1       26.084 -21.947   6.872  0.00  0.00    +0.226 C 
ATOM     25  O   LIG    1       27.270 -22.016   7.131  0.00  0.00    -0.275 OA
ATOM     26  C   LIG    1       25.369 -20.694   6.411  0.00  0.00    +0.087 C 
ATOM     27  C   LIG    1       25.636 -20.452   4.922  0.00  0.00    +0.013 C 
ATOM     28  C   LIG    1       24.535 -19.649   4.242  0.00  0.00    +0.001 C 
ATOM     29  C   LIG    1       23.186 -20.326   4.436  0.00  0.00    +0.001 C 
ATOM     30  C   LIG    1       22.830 -20.386   5.914  0.00  0.00    +0.013 C 
ATOM     31  C   LIG    1       23.917 -21.017   6.774  0.00  0.00    +0.087 C 
ENDBRANCH  20  23
ENDBRANCH  19  20
ENDBRANCH  18  19
ENDBRANCH  17  18
ENDBRANCH   1  17
TORSDOF 6
ENDMDL
MODEL 8
REMARK VINA RESULT:      -8.5      2.827      4.013
REMARK  Name = *****
REMARK                            x       y       z     vdW  Elec       q    Type
REMARK                         _______ _______ _______ _____ _____    ______ ____
ROOT
ATOM      1  N   LIG    1       25.526 -28.255   6.025  0.00  0.00    -0.295 NA
ATOM      2  C   LIG    1       25.743 -27.961   7.462  0.00  0.00    +0.128 C 
ATOM      3  C   LIG    1       25.872 -29.194   8.392  0.00  0.00    +0.241 C 
ATOM      4  N   LIG    1       24.696 -30.090   8.294  0.00  0.00    -0.217 N 
ATOM      5  C   LIG    1       24.057 -30.100   6.962  0.00  0.00    +0.241 C 
ATOM      6  C   LIG    1       25.006 -29.621   5.848  0.00  0.00    +0.128 C 
ENDROOT
BRANCH   4   7
ATOM      7  C   LIG    1       23.995 -30.473   9.452  0.00  0.00    +0.330 C 
ATOM      8  C   LIG    1       23.104 -31.690   9.407  0.00  0.00    +0.070 A 
ATOM      9  C   LIG    1       21.912 -31.656  10.141  0.00  0.00    -0.019 A 
ATOM     10  C   LIG    1       20.973 -32.682   9.972  0.00  0.00    +0.005 A 
ATOM     11  C   LIG    1       21.249 -33.749   9.113  0.00  0.00    +0.000 A 
ATOM     12  C   LIG    1       22.481 -33.825   8.464  0.00  0.00    +0.001 A 
ATOM     13  C   LIG    1       21.693 -30.516  11.089  0.00  0.00    +0.158 C 
ATOM     14  S   LIG    1       23.257 -30.126  11.943  0.00  0.00    +0.115 S 
ATOM     15  C   LIG    1       23.422 -32.813   8.641  0.00  0.00    +0.016 A 
ATOM     16  N   LIG    1       24.075 -29.735  10.533  0.00  0.00    -0.003 NA
ENDBRANCH   4   7
BRANCH   1  17
ATOM     17  C   LIG    1       24.666 -27.265   5.357  0.00  0.00    +0.085 C 
BRANCH  17  18
ATOM     18  C   LIG    1       24.407 -25.974   6.152  0.00  0.00    +0.017 C 
BRANCH  18  19
ATOM     19  C   LIG    1       25.550 -24.962   6.060  0.00  0.00    +0.021 C 
BRANCH  19  20
ATOM     20  C   LIG    1       25.565 -24.018   7.265  0.00  0.00    +0.116 C 
BRANCH  20  23
ATOM     21  O   LIG    1       22.917 -22.878   6.927  0.00  0.00    -0.275 OA
ATOM     22  C   LIG    1       23.934 -22.208   6.803  0.00  0.00    +0.226 C 
ATOM     23  N   LIG    1       25.220 -22.660   6.878  0.00  0.00    -0.242 N 
ATOM     24  C   LIG    1       26.137 -21.650   6.734  0.00  0.00    +0.226 C 
ATOM     25  O   LIG    1       27.333 -21.716   6.935  0.00  0.00    -0.275 OA
ATOM     26  C   LIG    1       25.409 -20.422   6.227  0.00  0.00    +0.087 C 
ATOM     27  C   LIG    1       25.600 -20.285   4.712  0.00  0.00    +0.013 C 
ATOM     28  C   LIG    1       24.472 -19.515   4.038  0.00  0.00    +0.001 C 
ATOM     29  C   LIG    1       23.129 -20.161   4.346  0.00  0.00    +0.001 C 
ATOM     30  C   LIG    1       22.850 -20.117   5.841  0.00  0.00    +0.013 C 
ATOM     31  C   LIG    1       23.975 -20.702   6.685  0.00  0.00    +0.087 C 
ENDBRANCH  20  23
ENDBRANCH  19  20
ENDBRANCH  18  19
ENDBRANCH  17  18
ENDBRANCH   1  17
TORSDOF 6
ENDMDL
MODEL 9
REMARK VINA RESULT:      -8.5      2.252      3.469
REMARK  Name = *****
REMARK                            x       y       z     vdW  Elec       q    Type
REMARK                         _______ _______ _______ _____ _____    ______ ____
ROOT
ATOM      1  N   LIG    1       25.004 -28.429   5.100  0.00  0.00    -0.295 NA
ATOM      2  C   LIG    1       25.429 -29.849   5.146  0.00  0.00    +0.128 C 
ATOM      3  C   LIG    1       24.534 -30.794   5.985  0.00  0.00    +0.241 C 
ATOM      4  N   LIG    1       24.389 -30.328   7.384  0.00  0.00    -0.217 N 
ATOM      5  C   LIG    1       24.441 -28.859   7.536  0.00  0.00    +0.241 C 
ATOM      6  C   LIG    1       24.111 -28.118   6.229  0.00  0.00    +0.128 C 
ENDROOT
BRANCH   4   7
ATOM      7  C   LIG    1       24.679 -31.192   8.456  0.00  0.00    +0.330 C 
ATOM      8  C   LIG    1       23.958 -31.006   9.769  0.00  0.00    +0.070 A 
ATOM      9  C   LIG    1       24.676 -31.238  10.948  0.00  0.00    -0.019 A 
ATOM     10  C   LIG    1       24.104 -30.893  12.179  0.00  0.00    +0.005 A 
ATOM     11  C   LIG    1       22.812 -30.364  12.226  0.00  0.00    +0.000 A 
ATOM     12  C   LIG    1       22.067 -30.230  11.056  0.00  0.00    +0.001 A 
ATOM     13  C   LIG    1       26.036 -31.859  10.842  0.00  0.00    +0.158 C 
ATOM     14  S   LIG    1       26.014 -33.158   9.560  0.00  0.00    +0.115 S 
ATOM     15  C   LIG    1       22.627 -30.586   9.832  0.00  0.00    +0.016 A 
ATOM     16  N   LIG    1       25.611 -32.104   8.322  0.00  0.00    -0.003 NA
ENDBRANCH   4   7
BRANCH   1  17
ATOM     17  C   LIG    1       26.136 -27.490   5.039  0.00  0.00    +0.085 C 
BRANCH  17  18
ATOM     18  C   LIG    1       26.266 -26.535   6.237  0.00  0.00    +0.017 C 
BRANCH  18  19
ATOM     19  C   LIG    1       25.830 -25.102   5.925  0.00  0.00    +0.021 C 
BRANCH  19  20
ATOM     20  C   LIG    1       25.699 -24.263   7.199  0.00  0.00    +0.116 C 
BRANCH  20  23
ATOM     21  O   LIG    1       23.021 -23.182   6.909  0.00  0.00    -0.275 OA
ATOM     22  C   LIG    1       24.018 -22.476   6.835  0.00  0.00    +0.226 C 
ATOM     23  N   LIG    1       25.317 -22.894   6.894  0.00  0.00    -0.242 N 
ATOM     24  C   LIG    1       26.204 -21.851   6.820  0.00  0.00    +0.226 C 
ATOM     25  O   LIG    1       27.400 -21.894   7.027  0.00  0.00    -0.275 OA
ATOM     26  C   LIG    1       25.444 -20.615   6.383  0.00  0.00    +0.087 C 
ATOM     27  C   LIG    1       25.641 -20.379   4.882  0.00  0.00    +0.013 C 
ATOM     28  C   LIG    1       24.495 -19.603   4.246  0.00  0.00    +0.001 C 
ATOM     29  C   LIG    1       23.170 -20.305   4.502  0.00  0.00    +0.001 C 
ATOM     30  C   LIG    1       22.880 -20.362   5.995  0.00  0.00    +0.013 C 
ATOM     31  C   LIG    1       24.015 -20.965   6.810  0.00  0.00    +0.087 C 
ENDBRANCH  20  23
ENDBRANCH  19  20
ENDBRANCH  18  19
ENDBRANCH  17  18
ENDBRANCH   1  17
TORSDOF 6
ENDMDL
