MODEL 1
REMARK VINA RESULT:      -4.9      0.000      0.000
REMARK  Name = *****
REMARK                            x       y       z     vdW  Elec       q    Type
REMARK                         _______ _______ _______ _____ _____    ______ ____
ROOT
ATOM      1  C   LIG    1       25.212 -21.343   6.558  0.00  0.00    +0.011 C 
ENDROOT
BRANCH   1   2
ATOM      2  C   LIG    1       23.847 -20.827   7.036  0.00  0.00    +0.000 C 
BRANCH   2   3
ATOM      3  C   LIG    1       22.825 -20.693   5.900  0.00  0.00    -0.000 C 
BRANCH   3   4
ATOM      4  C   LIG    1       23.523 -20.564   4.537  0.00  0.00    -0.000 C 
BRANCH   4   6
ATOM      5  C   LIG    1       22.229 -18.386   4.432  0.00  0.00    +0.004 C 
ATOM      6  C   LIG    1       23.488 -19.129   4.003  0.00  0.00    -0.003 C 
ENDBRANCH   4   6
ENDBRANCH   3   4
ENDBRANCH   2   3
ENDBRANCH   1   2
BRANCH   1   7
ATOM      7  C   LIG    1       26.351 -20.447   7.062  0.00  0.00    +0.120 C 
BRANCH   7   8
ATOM      8  C   LIG    1       27.483 -20.342   6.059  0.00  0.00    +0.305 C 
ATOM      9  O   LIG    1       28.659 -20.527   6.321  0.00  0.00    -0.251 OA
BRANCH   8  10
ATOM     10  O   LIG    1       27.051 -20.071   4.807  0.00  0.00    -0.481 OA
ATOM     11  H   LIG    1       26.797 -20.856   4.288  0.00  0.00    +0.295 HD
ENDBRANCH   8  10
ENDBRANCH   7   8
ENDBRANCH   1   7
TORSDOF 7
ENDMDL
MODEL 2
REMARK VINA RESULT:      -4.5      6.465      7.610
REMARK  Name = *****
REMARK                            x       y       z     vdW  Elec       q    Type
REMARK                         _______ _______ _______ _____ _____    ______ ____
ROOT
ATOM      1  C   LIG    1       26.766 -14.336   2.499  0.00  0.00    +0.011 C 
ENDROOT
BRANCH   1   2
ATOM      2  C   LIG    1       26.205 -12.912   2.373  0.00  0.00    +0.000 C 
BRANCH   2   3
ATOM      3  C   LIG    1       24.709 -12.885   2.033  0.00  0.00    -0.000 C 
BRANCH   3   4
ATOM      4  C   LIG    1       23.877 -12.377   3.221  0.00  0.00    -0.000 C 
BRANCH   4   6
ATOM      5  C   LIG    1       23.601 -14.642   4.325  0.00  0.00    +0.004 C 
ATOM      6  C   LIG    1       24.103 -13.213   4.484  0.00  0.00    -0.003 C 
ENDBRANCH   4   6
ENDBRANCH   3   4
ENDBRANCH   2   3
ENDBRANCH   1   2
BRANCH   1   7
ATOM      7  C   LIG    1       27.538 -14.514   3.812  0.00  0.00    +0.120 C 
BRANCH   7   8
ATOM      8  C   LIG    1       28.437 -13.330   4.112  0.00  0.00    +0.305 C 
ATOM      9  O   LIG    1       28.287 -12.567   5.051  0.00  0.00    -0.251 OA
BRANCH   8  10
ATOM     10  O   LIG    1       29.475 -13.228   3.252  0.00  0.00    -0.481 OA
ATOM     11  H   LIG    1       29.663 -12.320   2.951  0.00  0.00    +0.295 HD
ENDBRANCH   8  10
ENDBRANCH   7   8
ENDBRANCH   1   7
TORSDOF 7
ENDMDL
MODEL 3
REMARK VINA RESULT:      -4.5      3.597      4.803
REMARK  Name = *****
REMARK                            x       y       z     vdW  Elec       q    Type
REMARK                         _______ _______ _______ _____ _____    ______ ____
ROOT
ATOM      1  C   LIG    1       26.029 -17.398   3.346  0.00  0.00    +0.011 C 
ENDROOT
BRANCH   1   2
ATOM      2  C   LIG    1       24.801 -18.306   3.507  0.00  0.00    +0.000 C 
BRANCH   2   3
ATOM      3  C   LIG    1       25.158 -19.715   3.999  0.00  0.00    -0.000 C 
BRANCH   3   4
ATOM      4  C   LIG    1       23.897 -20.571   4.194  0.00  0.00    -0.000 C 
BRANCH   4   6
ATOM      5  C   LIG    1       23.335 -20.618   6.666  0.00  0.00    +0.004 C 
ATOM      6  C   LIG    1       22.993 -20.026   5.305  0.00  0.00    -0.003 C 
ENDBRANCH   4   6
ENDBRANCH   3   4
ENDBRANCH   2   3
ENDBRANCH   1   2
BRANCH   1   7
ATOM      7  C   LIG    1       25.637 -15.917   3.417  0.00  0.00    +0.120 C 
BRANCH   7   8
ATOM      8  C   LIG    1       26.780 -15.003   3.022  0.00  0.00    +0.305 C 
ATOM      9  O   LIG    1       26.781 -14.282   2.039  0.00  0.00    -0.251 OA
BRANCH   8  10
ATOM     10  O   LIG    1       27.798 -15.022   3.910  0.00  0.00    -0.481 OA
ATOM     11  H   LIG    1       27.871 -15.848   4.424  0.00  0.00    +0.295 HD
ENDBRANCH   8  10
ENDBRANCH   7   8
ENDBRANCH   1   7
TORSDOF 7
ENDMDL
MODEL 4
REMARK VINA RESULT:      -4.4      4.279      5.314
REMARK  Name = *****
REMARK                            x       y       z     vdW  Elec       q    Type
REMARK                         _______ _______ _______ _____ _____    ______ ____
ROOT
ATOM      1  C   LIG    1       25.704 -16.342   3.314  0.00  0.00    +0.011 C 
ENDROOT
BRANCH   1   2
ATOM      2  C   LIG    1       25.953 -17.857   3.312  0.00  0.00    +0.000 C 
BRANCH   2   3
ATOM      3  C   LIG    1       24.697 -18.672   3.650  0.00  0.00    -0.000 C 
BRANCH   3   4
ATOM      4  C   LIG    1       25.065 -20.051   4.219  0.00  0.00    -0.000 C 
BRANCH   4   6
ATOM      5  C   LIG    1       22.723 -20.043   5.190  0.00  0.00    +0.004 C 
ATOM      6  C   LIG    1       24.177 -20.443   5.404  0.00  0.00    -0.003 C 
ENDBRANCH   4   6
ENDBRANCH   3   4
ENDBRANCH   2   3
ENDBRANCH   1   2
BRANCH   1   7
ATOM      7  C   LIG    1       26.986 -15.571   3.655  0.00  0.00    +0.120 C 
BRANCH   7   8
ATOM      8  C   LIG    1       27.141 -14.319   2.813  0.00  0.00    +0.305 C 
ATOM      9  O   LIG    1       26.490 -14.073   1.812  0.00  0.00    -0.251 OA
BRANCH   8  10
ATOM     10  O   LIG    1       28.053 -13.458   3.317  0.00  0.00    -0.481 OA
ATOM     11  H   LIG    1       28.704 -13.133   2.668  0.00  0.00    +0.295 HD
ENDBRANCH   8  10
ENDBRANCH   7   8
ENDBRANCH   1   7
TORSDOF 7
ENDMDL
MODEL 5
REMARK VINA RESULT:      -4.3      2.881      5.088
REMARK  Name = *****
REMARK                            x       y       z     vdW  Elec       q    Type
REMARK                         _______ _______ _______ _____ _____    ______ ____
ROOT
ATOM      1  C   LIG    1       24.952 -20.470   5.638  0.00  0.00    +0.011 C 
ENDROOT
BRANCH   1   2
ATOM      2  C   LIG    1       26.048 -21.255   6.374  0.00  0.00    +0.000 C 
BRANCH   2   3
ATOM      3  C   LIG    1       27.077 -20.347   7.061  0.00  0.00    -0.000 C 
BRANCH   3   4
ATOM      4  C   LIG    1       28.512 -20.761   6.700  0.00  0.00    -0.000 C 
BRANCH   4   6
ATOM      5  C   LIG    1       29.175 -18.585   5.579  0.00  0.00    +0.004 C 
ATOM      6  C   LIG    1       29.475 -19.569   6.702  0.00  0.00    -0.003 C 
ENDBRANCH   4   6
ENDBRANCH   3   4
ENDBRANCH   2   3
ENDBRANCH   1   2
BRANCH   1   7
ATOM      7  C   LIG    1       23.565 -20.783   6.214  0.00  0.00    +0.120 C 
BRANCH   7   8
ATOM      8  C   LIG    1       22.449 -20.363   5.277  0.00  0.00    +0.305 C 
ATOM      9  O   LIG    1       22.254 -19.220   4.901  0.00  0.00    -0.251 OA
BRANCH   8  10
ATOM     10  O   LIG    1       21.706 -21.407   4.845  0.00  0.00    -0.481 OA
ATOM     11  H   LIG    1       22.043 -22.281   5.114  0.00  0.00    +0.295 HD
ENDBRANCH   8  10
ENDBRANCH   7   8
ENDBRANCH   1   7
TORSDOF 7
ENDMDL
MODEL 6
REMARK VINA RESULT:      -4.3      3.673      4.770
REMARK  Name = *****
REMARK                            x       y       z     vdW  Elec       q    Type
REMARK                         _______ _______ _______ _____ _____    ______ ____
ROOT
ATOM      1  C   LIG    1       25.400 -17.286   3.267  0.00  0.00    +0.011 C 
ENDROOT
BRANCH   1   2
ATOM      2  C   LIG    1       25.668 -18.747   3.658  0.00  0.00    +0.000 C 
BRANCH   2   3
ATOM      3  C   LIG    1       24.431 -19.643   3.512  0.00  0.00    -0.000 C 
BRANCH   3   4
ATOM      4  C   LIG    1       23.178 -18.959   4.081  0.00  0.00    -0.000 C 
BRANCH   4   6
ATOM      5  C   LIG    1       23.156 -20.383   6.179  0.00  0.00    +0.004 C 
ATOM      6  C   LIG    1       22.361 -19.900   4.973  0.00  0.00    -0.003 C 
ENDBRANCH   4   6
ENDBRANCH   3   4
ENDBRANCH   2   3
ENDBRANCH   1   2
BRANCH   1   7
ATOM      7  C   LIG    1       26.668 -16.434   3.405  0.00  0.00    +0.120 C 
BRANCH   7   8
ATOM      8  C   LIG    1       26.378 -14.952   3.269  0.00  0.00    +0.305 C 
ATOM      9  O   LIG    1       25.957 -14.243   4.168  0.00  0.00    -0.251 OA
BRANCH   8  10
ATOM     10  O   LIG    1       26.688 -14.467   2.046  0.00  0.00    -0.481 OA
ATOM     11  H   LIG    1       25.936 -14.073   1.565  0.00  0.00    +0.295 HD
ENDBRANCH   8  10
ENDBRANCH   7   8
ENDBRANCH   1   7
TORSDOF 7
ENDMDL
MODEL 7
REMARK VINA RESULT:      -4.3      2.201      4.595
REMARK  Name = *****
REMARK                            x       y       z     vdW  Elec       q    Type
REMARK                         _______ _______ _______ _____ _____    ______ ____
ROOT
ATOM      1  C   LIG    1       23.044 -20.422   6.438  0.00  0.00    +0.011 C 
ENDROOT
BRANCH   1   2
ATOM      2  C   LIG    1       24.407 -20.847   7.004  0.00  0.00    +0.000 C 
BRANCH   2   3
ATOM      3  C   LIG    1       25.412 -21.241   5.914  0.00  0.00    -0.000 C 
BRANCH   3   4
ATOM      4  C   LIG    1       26.640 -20.316   5.930  0.00  0.00    -0.000 C 
BRANCH   4   6
ATOM      5  C   LIG    1       28.846 -19.781   7.060  0.00  0.00    +0.004 C 
ATOM      6  C   LIG    1       27.693 -20.770   6.945  0.00  0.00    -0.003 C 
ENDBRANCH   4   6
ENDBRANCH   3   4
ENDBRANCH   2   3
ENDBRANCH   1   2
BRANCH   1   7
ATOM      7  C   LIG    1       23.042 -20.469   4.905  0.00  0.00    +0.120 C 
BRANCH   7   8
ATOM      8  C   LIG    1       22.972 -19.085   4.290  0.00  0.00    +0.305 C 
ATOM      9  O   LIG    1       22.040 -18.312   4.429  0.00  0.00    -0.251 OA
BRANCH   8  10
ATOM     10  O   LIG    1       24.088 -18.761   3.600  0.00  0.00    -0.481 OA
ATOM     11  H   LIG    1       23.922 -18.305   2.753  0.00  0.00    +0.295 HD
ENDBRANCH   8  10
ENDBRANCH   7   8
ENDBRANCH   1   7
TORSDOF 7
ENDMDL
MODEL 8
REMARK VINA RESULT:      -4.2      3.944      5.211
REMARK  Name = *****
REMARK                            x       y       z     vdW  Elec       q    Type
REMARK                         _______ _______ _______ _____ _____    ______ ____
ROOT
ATOM      1  C   LIG    1       26.095 -17.789   3.348  0.00  0.00    +0.011 C 
ENDROOT
BRANCH   1   2
ATOM      2  C   LIG    1       25.620 -16.329   3.349  0.00  0.00    +0.000 C 
BRANCH   2   3
ATOM      3  C   LIG    1       26.774 -15.323   3.448  0.00  0.00    -0.000 C 
BRANCH   3   4
ATOM      4  C   LIG    1       26.296 -13.984   4.031  0.00  0.00    -0.000 C 
BRANCH   4   6
ATOM      5  C   LIG    1       24.079 -12.935   3.386  0.00  0.00    +0.004 C 
ATOM      6  C   LIG    1       24.782 -13.962   4.264  0.00  0.00    -0.003 C 
ENDBRANCH   4   6
ENDBRANCH   3   4
ENDBRANCH   2   3
ENDBRANCH   1   2
BRANCH   1   7
ATOM      7  C   LIG    1       24.917 -18.755   3.525  0.00  0.00    +0.120 C 
BRANCH   7   8
ATOM      8  C   LIG    1       25.337 -20.056   4.180  0.00  0.00    +0.305 C 
ATOM      9  O   LIG    1       24.602 -21.013   4.356  0.00  0.00    -0.251 OA
BRANCH   8  10
ATOM     10  O   LIG    1       26.648 -20.077   4.511  0.00  0.00    -0.481 OA
ATOM     11  H   LIG    1       27.191 -19.407   4.055  0.00  0.00    +0.295 HD
ENDBRANCH   8  10
ENDBRANCH   7   8
ENDBRANCH   1   7
TORSDOF 7
ENDMDL
MODEL 9
REMARK VINA RESULT:      -4.1      4.392      5.849
REMARK  Name = *****
REMARK                            x       y       z     vdW  Elec       q    Type
REMARK                         _______ _______ _______ _____ _____    ______ ____
ROOT
ATOM      1  C   LIG    1       24.321 -14.052   3.684  0.00  0.00    +0.011 C 
ENDROOT
BRANCH   1   2
ATOM      2  C   LIG    1       23.379 -14.921   4.529  0.00  0.00    +0.000 C 
BRANCH   2   3
ATOM      3  C   LIG    1       23.439 -16.408   4.155  0.00  0.00    -0.000 C 
BRANCH   3   4
ATOM      4  C   LIG    1       22.213 -17.166   4.691  0.00  0.00    -0.000 C 
BRANCH   4   6
ATOM      5  C   LIG    1       23.624 -19.061   3.771  0.00  0.00    +0.004 C 
ATOM      6  C   LIG    1       22.322 -18.676   4.461  0.00  0.00    -0.003 C 
ENDBRANCH   4   6
ENDBRANCH   3   4
ENDBRANCH   2   3
ENDBRANCH   1   2
BRANCH   1   7
ATOM      7  C   LIG    1       25.758 -14.110   4.220  0.00  0.00    +0.120 C 
BRANCH   7   8
ATOM      8  C   LIG    1       26.783 -14.153   3.104  0.00  0.00    +0.305 C 
ATOM      9  O   LIG    1       26.516 -14.294   1.922  0.00  0.00    -0.251 OA
BRANCH   8  10
ATOM     10  O   LIG    1       28.047 -13.963   3.545  0.00  0.00    -0.481 OA
ATOM     11  H   LIG    1       28.189 -13.119   4.013  0.00  0.00    +0.295 HD
ENDBRANCH   8  10
ENDBRANCH   7   8
ENDBRANCH   1   7
TORSDOF 7
ENDMDL
