MODEL 1
REMARK VINA RESULT:       4.2      0.000      0.000
REMARK  Name = *****
REMARK                            x       y       z     vdW  Elec       q    Type
REMARK                         _______ _______ _______ _____ _____    ______ ____
ROOT
ATOM      1  C   LIG    1       23.887 -14.937   3.948  0.00  0.00    +0.256 C 
ATOM      2  C   LIG    1       25.191 -15.726   4.243  0.00  0.00    +0.048 C 
ATOM      3  C   LIG    1       26.433 -14.904   3.880  0.00  0.00    +0.013 C 
ATOM      4  C   LIG    1       25.132 -17.094   3.526  0.00  0.00    +0.037 C 
ATOM      5  C   LIG    1       23.872 -17.895   3.973  0.00  0.00    +0.161 C 
ATOM      6  C   LIG    1       24.226 -19.116   4.870  0.00  0.00    +0.032 C 
ATOM      7  C   LIG    1       25.223 -20.090   4.172  0.00  0.00    -0.008 C 
ATOM      8  C   LIG    1       25.993 -20.924   5.208  0.00  0.00    +0.008 C 
ATOM      9  C   LIG    1       26.225 -19.356   3.260  0.00  0.00    +0.004 C 
ATOM     10  C   LIG    1       22.975 -19.875   5.378  0.00  0.00    +0.012 C 
ATOM     11  C   LIG    1       21.772 -19.927   4.422  0.00  0.00    +0.068 C 
ATOM     12  C   LIG    1       21.303 -18.540   3.925  0.00  0.00    +0.203 C 
ATOM     13  C   LIG    1       19.796 -18.547   3.685  0.00  0.00    +0.077 C 
ATOM     14  O   LIG    1       21.906 -18.181   2.679  0.00  0.00    -0.199 OA
ATOM     15  O   LIG    1       21.574 -17.552   4.918  0.00  0.00    -0.314 OA
ATOM     16  C   LIG    1       22.859 -16.960   4.708  0.00  0.00    +0.292 C 
ATOM     17  O   LIG    1       23.331 -18.474   2.758  0.00  0.00    -0.220 OA
ATOM     18  C   LIG    1       26.429 -17.907   3.682  0.00  0.00    +0.007 C 
ATOM     19  O   LIG    1       22.700 -15.718   4.038  0.00  0.00    -0.319 OA
ENDROOT
BRANCH   1  21
ATOM     20  C   LIG    1       24.000 -12.956   2.654  0.00  0.00    +0.197 C 
ATOM     21  O   LIG    1       23.989 -14.377   2.636  0.00  0.00    -0.354 OA
ENDBRANCH   1  21
TORSDOF 1
ENDMDL
MODEL 2
REMARK VINA RESULT:       4.7      2.557      4.611
REMARK  Name = *****
REMARK                            x       y       z     vdW  Elec       q    Type
REMARK                         _______ _______ _______ _____ _____    ______ ____
ROOT
ATOM      1  C   LIG    1       28.173 -14.135   4.729  0.00  0.00    +0.256 C 
ATOM      2  C   LIG    1       27.808 -15.636   4.878  0.00  0.00    +0.048 C 
ATOM      3  C   LIG    1       29.064 -16.513   4.923  0.00  0.00    +0.013 C 
ATOM      4  C   LIG    1       26.823 -16.035   3.755  0.00  0.00    +0.037 C 
ATOM      5  C   LIG    1       25.551 -15.135   3.793  0.00  0.00    +0.161 C 
ATOM      6  C   LIG    1       24.288 -15.905   4.277  0.00  0.00    +0.032 C 
ATOM      7  C   LIG    1       23.994 -17.160   3.402  0.00  0.00    -0.008 C 
ATOM      8  C   LIG    1       23.162 -18.191   4.182  0.00  0.00    +0.008 C 
ATOM      9  C   LIG    1       25.279 -17.831   2.879  0.00  0.00    +0.004 C 
ATOM     10  C   LIG    1       23.035 -15.001   4.388  0.00  0.00    +0.012 C 
ATOM     11  C   LIG    1       22.916 -13.869   3.354  0.00  0.00    +0.068 C 
ATOM     12  C   LIG    1       24.153 -12.943   3.289  0.00  0.00    +0.203 C 
ATOM     13  C   LIG    1       23.731 -11.525   2.915  0.00  0.00    +0.077 C 
ATOM     14  O   LIG    1       25.088 -13.360   2.292  0.00  0.00    -0.199 OA
ATOM     15  O   LIG    1       24.778 -12.879   4.570  0.00  0.00    -0.314 OA
ATOM     16  C   LIG    1       25.794 -13.879   4.689  0.00  0.00    +0.292 C 
ATOM     17  O   LIG    1       25.272 -14.800   2.410  0.00  0.00    -0.220 OA
ATOM     18  C   LIG    1       26.481 -17.535   3.765  0.00  0.00    +0.007 C 
ATOM     19  O   LIG    1       27.064 -13.290   4.446  0.00  0.00    -0.319 OA
ENDROOT
BRANCH   1  21
ATOM     20  C   LIG    1       29.407 -12.656   3.350  0.00  0.00    +0.197 C 
ATOM     21  O   LIG    1       29.144 -14.011   3.686  0.00  0.00    -0.354 OA
ENDBRANCH   1  21
TORSDOF 1
ENDMDL
MODEL 3
REMARK VINA RESULT:       5.3      1.970      3.945
REMARK  Name = *****
REMARK                            x       y       z     vdW  Elec       q    Type
REMARK                         _______ _______ _______ _____ _____    ______ ____
ROOT
ATOM      1  C   LIG    1       26.572 -16.379   3.363  0.00  0.00    +0.256 C 
ATOM      2  C   LIG    1       25.126 -15.874   3.115  0.00  0.00    +0.048 C 
ATOM      3  C   LIG    1       25.066 -14.342   3.104  0.00  0.00    +0.013 C 
ATOM      4  C   LIG    1       24.177 -16.515   4.154  0.00  0.00    +0.037 C 
ATOM      5  C   LIG    1       24.254 -18.070   4.083  0.00  0.00    +0.161 C 
ATOM      6  C   LIG    1       22.967 -18.707   3.484  0.00  0.00    +0.032 C 
ATOM      7  C   LIG    1       21.687 -18.300   4.274  0.00  0.00    -0.008 C 
ATOM      8  C   LIG    1       20.434 -18.425   3.392  0.00  0.00    +0.008 C 
ATOM      9  C   LIG    1       21.773 -16.869   4.841  0.00  0.00    +0.004 C 
ATOM     10  C   LIG    1       23.064 -20.246   3.342  0.00  0.00    +0.012 C 
ATOM     11  C   LIG    1       23.873 -20.982   4.423  0.00  0.00    +0.068 C 
ATOM     12  C   LIG    1       25.310 -20.442   4.610  0.00  0.00    +0.203 C 
ATOM     13  C   LIG    1       26.248 -21.570   5.030  0.00  0.00    +0.077 C 
ATOM     14  O   LIG    1       25.385 -19.454   5.641  0.00  0.00    -0.199 OA
ATOM     15  O   LIG    1       25.796 -19.918   3.376  0.00  0.00    -0.314 OA
ATOM     16  C   LIG    1       25.509 -18.521   3.269  0.00  0.00    +0.292 C 
ATOM     17  O   LIG    1       24.282 -18.520   5.461  0.00  0.00    -0.220 OA
ATOM     18  C   LIG    1       22.734 -15.995   4.046  0.00  0.00    +0.007 C 
ATOM     19  O   LIG    1       26.667 -17.776   3.620  0.00  0.00    -0.319 OA
ENDROOT
BRANCH   1  21
ATOM     20  C   LIG    1       27.936 -14.570   4.055  0.00  0.00    +0.197 C 
ATOM     21  O   LIG    1       27.117 -15.654   4.469  0.00  0.00    -0.354 OA
ENDBRANCH   1  21
TORSDOF 1
ENDMDL
MODEL 4
REMARK VINA RESULT:       5.5      2.166      2.919
REMARK  Name = *****
REMARK                            x       y       z     vdW  Elec       q    Type
REMARK                         _______ _______ _______ _____ _____    ______ ____
ROOT
ATOM      1  C   LIG    1       25.770 -15.759   3.492  0.00  0.00    +0.256 C 
ATOM      2  C   LIG    1       26.938 -16.009   4.483  0.00  0.00    +0.048 C 
ATOM      3  C   LIG    1       27.963 -14.871   4.435  0.00  0.00    +0.013 C 
ATOM      4  C   LIG    1       27.554 -17.400   4.204  0.00  0.00    +0.037 C 
ATOM      5  C   LIG    1       26.469 -18.514   4.313  0.00  0.00    +0.161 C 
ATOM      6  C   LIG    1       26.655 -19.409   5.572  0.00  0.00    +0.032 C 
ATOM      7  C   LIG    1       28.065 -20.070   5.621  0.00  0.00    -0.008 C 
ATOM      8  C   LIG    1       28.447 -20.444   7.062  0.00  0.00    +0.008 C 
ATOM      9  C   LIG    1       29.161 -19.169   5.020  0.00  0.00    +0.004 C 
ATOM     10  C   LIG    1       25.539 -20.472   5.726  0.00  0.00    +0.012 C 
ATOM     11  C   LIG    1       24.969 -21.059   4.424  0.00  0.00    +0.068 C 
ATOM     12  C   LIG    1       24.460 -19.994   3.425  0.00  0.00    +0.203 C 
ATOM     13  C   LIG    1       23.288 -20.546   2.618  0.00  0.00    +0.077 C 
ATOM     14  O   LIG    1       25.462 -19.622   2.475  0.00  0.00    -0.199 OA
ATOM     15  O   LIG    1       23.990 -18.849   4.134  0.00  0.00    -0.314 OA
ATOM     16  C   LIG    1       25.038 -17.889   4.300  0.00  0.00    +0.292 C 
ATOM     17  O   LIG    1       26.711 -19.400   3.191  0.00  0.00    -0.220 OA
ATOM     18  C   LIG    1       28.786 -17.694   5.077  0.00  0.00    +0.007 C 
ATOM     19  O   LIG    1       24.908 -16.877   3.312  0.00  0.00    -0.319 OA
ENDROOT
BRANCH   1  21
ATOM     20  C   LIG    1       26.286 -13.975   2.023  0.00  0.00    +0.197 C 
ATOM     21  O   LIG    1       26.326 -15.379   2.231  0.00  0.00    -0.354 OA
ENDBRANCH   1  21
TORSDOF 1
ENDMDL
MODEL 5
REMARK VINA RESULT:       5.6      1.947      5.576
REMARK  Name = *****
REMARK                            x       y       z     vdW  Elec       q    Type
REMARK                         _______ _______ _______ _____ _____    ______ ____
ROOT
ATOM      1  C   LIG    1       23.638 -16.672   3.582  0.00  0.00    +0.256 C 
ATOM      2  C   LIG    1       25.142 -16.823   3.226  0.00  0.00    +0.048 C 
ATOM      3  C   LIG    1       25.586 -18.288   3.296  0.00  0.00    +0.013 C 
ATOM      4  C   LIG    1       25.975 -15.887   4.132  0.00  0.00    +0.037 C 
ATOM      5  C   LIG    1       25.502 -14.410   3.980  0.00  0.00    +0.161 C 
ATOM      6  C   LIG    1       26.536 -13.525   3.227  0.00  0.00    +0.032 C 
ATOM      7  C   LIG    1       27.935 -13.540   3.914  0.00  0.00    -0.008 C 
ATOM      8  C   LIG    1       29.043 -13.179   2.912  0.00  0.00    +0.008 C 
ATOM      9  C   LIG    1       28.258 -14.898   4.566  0.00  0.00    +0.004 C 
ATOM     10  C   LIG    1       26.042 -12.073   3.008  0.00  0.00    +0.012 C 
ATOM     11  C   LIG    1       25.160 -11.476   4.117  0.00  0.00    +0.068 C 
ATOM     12  C   LIG    1       23.926 -12.339   4.470  0.00  0.00    +0.203 C 
ATOM     13  C   LIG    1       22.769 -11.447   4.913  0.00  0.00    +0.077 C 
ATOM     14  O   LIG    1       24.183 -13.230   5.558  0.00  0.00    -0.199 OA
ATOM     15  O   LIG    1       23.493 -13.061   3.319  0.00  0.00    -0.314 OA
ATOM     16  C   LIG    1       24.115 -14.349   3.265  0.00  0.00    +0.292 C 
ATOM     17  O   LIG    1       25.469 -13.874   5.327  0.00  0.00    -0.220 OA
ATOM     18  C   LIG    1       27.491 -16.042   3.918  0.00  0.00    +0.007 C 
ATOM     19  O   LIG    1       23.214 -15.326   3.766  0.00  0.00    -0.319 OA
ENDROOT
BRANCH   1  21
ATOM     20  C   LIG    1       22.340 -18.369   4.603  0.00  0.00    +0.197 C 
ATOM     21  O   LIG    1       23.382 -17.420   4.774  0.00  0.00    -0.354 OA
ENDBRANCH   1  21
TORSDOF 1
ENDMDL
