MODEL 1
REMARK VINA RESULT:       8.5      0.000      0.000
REMARK  Name = *****
REMARK                            x       y       z     vdW  Elec       q    Type
REMARK                         _______ _______ _______ _____ _____    ______ ____
ROOT
ATOM      1  P   LIG    1       26.366 -17.956   4.112  0.00  0.00    +0.216 P 
ATOM      2  O   LIG    1       27.679 -17.673   3.361  0.00  0.00    -0.290 OA
ENDROOT
BRANCH   1   3
ATOM      3  C   LIG    1       25.663 -16.446   3.352  0.00  0.00    +0.193 C 
BRANCH   3   4
ATOM      4  C   LIG    1       26.513 -15.208   3.159  0.00  0.00    +0.226 C 
ATOM      5  N   LIG    1       26.413 -14.155   4.031  0.00  0.00    -0.287 N 
ATOM      6  C   LIG    1       27.162 -12.887   3.869  0.00  0.00    +0.185 C 
ATOM      7  C   LIG    1       26.534 -11.952   4.926  0.00  0.00    +0.039 C 
ATOM      8  C   LIG    1       25.222 -12.618   5.389  0.00  0.00    +0.012 C 
ATOM      9  C   LIG    1       25.555 -14.096   5.189  0.00  0.00    +0.112 C 
ATOM     10  O   LIG    1       27.420 -15.164   2.324  0.00  0.00    -0.275 OA
BRANCH   8  11
ATOM     11  C   LIG    1       23.982 -12.112   4.590  0.00  0.00    -0.006 C 
ATOM     12  C   LIG    1       24.299 -11.447   3.229  0.00  0.00    +0.004 C 
ATOM     13  C   LIG    1       24.521 -12.413   2.069  0.00  0.00    +0.000 C 
ATOM     14  C   LIG    1       23.360 -13.386   1.919  0.00  0.00    +0.000 C 
ATOM     15  C   LIG    1       23.146 -14.156   3.212  0.00  0.00    +0.000 C 
ATOM     16  C   LIG    1       22.906 -13.210   4.390  0.00  0.00    +0.004 C 
ENDBRANCH   8  11
BRANCH   6  17
ATOM     17  C   LIG    1       28.687 -12.902   4.133  0.00  0.00    +0.326 C 
ATOM     18  O   LIG    1       29.202 -12.423   5.136  0.00  0.00    -0.249 OA
BRANCH  17  19
ATOM     19  O   LIG    1       29.431 -13.489   3.169  0.00  0.00    -0.479 OA
ATOM     20  H   LIG    1       30.382 -13.493   3.400  0.00  0.00    +0.295 HD
ENDBRANCH  17  19
ENDBRANCH   6  17
ENDBRANCH   3   4
ENDBRANCH   1   3
BRANCH   1  21
ATOM     21  O   LIG    1       27.029 -19.383   4.830  0.00  0.00    -0.286 OA
BRANCH  21  22
ATOM     22  C   LIG    1       27.143 -19.464   6.261  0.00  0.00    +0.320 C 
BRANCH  22  23
ATOM     23  C   LIG    1       28.650 -19.313   6.644  0.00  0.00    +0.052 C 
ATOM     24  C   LIG    1       29.412 -18.498   5.586  0.00  0.00    +0.013 C 
ATOM     25  C   LIG    1       29.405 -20.632   6.841  0.00  0.00    +0.013 C 
ENDBRANCH  22  23
BRANCH  22  26
ATOM     26  O   LIG    1       26.516 -20.674   6.727  0.00  0.00    -0.434 OA
BRANCH  26  27
ATOM     27  C   LIG    1       25.143 -20.603   6.842  0.00  0.00    +0.309 C 
ATOM     28  O   LIG    1       24.400 -21.529   7.062  0.00  0.00    -0.251 OA
BRANCH  27  30
ATOM     29  C   LIG    1       23.189 -18.982   6.631  0.00  0.00    +0.015 C 
ATOM     30  C   LIG    1       24.685 -19.148   6.775  0.00  0.00    +0.117 C 
ENDBRANCH  27  30
ENDBRANCH  26  27
ENDBRANCH  22  26
ENDBRANCH  21  22
ENDBRANCH   1  21
BRANCH   1  31
ATOM     31  C   LIG    1       25.371 -19.168   3.000  0.00  0.00    +0.098 C 
BRANCH  31  32
ATOM     32  C   LIG    1       24.993 -20.469   3.718  0.00  0.00    +0.010 C 
BRANCH  32  33
ATOM     33  C   LIG    1       24.007 -21.324   2.921  0.00  0.00    +0.005 C 
BRANCH  33  34
ATOM     34  C   LIG    1       22.628 -21.330   3.581  0.00  0.00    +0.035 C 
BRANCH  34  35
ATOM     35  C   LIG    1       22.029 -19.951   3.686  0.00  0.00    -0.047 A 
ATOM     36  C   LIG    1       20.647 -19.759   3.549  0.00  0.00    +0.003 A 
ATOM     37  C   LIG    1       20.091 -18.487   3.691  0.00  0.00    +0.000 A 
ATOM     38  C   LIG    1       20.911 -17.389   3.943  0.00  0.00    +0.000 A 
ATOM     39  C   LIG    1       22.290 -17.562   4.043  0.00  0.00    +0.000 A 
ATOM     40  C   LIG    1       22.846 -18.838   3.933  0.00  0.00    +0.003 A 
ENDBRANCH  34  35
ENDBRANCH  33  34
ENDBRANCH  32  33
ENDBRANCH  31  32
ENDBRANCH   1  31
TORSDOF 16
ENDMDL
MODEL 2
REMARK VINA RESULT:       8.5      2.064      4.061
REMARK  Name = *****
REMARK                            x       y       z     vdW  Elec       q    Type
REMARK                         _______ _______ _______ _____ _____    ______ ____
ROOT
ATOM      1  P   LIG    1       26.012 -18.630   3.481  0.00  0.00    +0.216 P 
ATOM      2  O   LIG    1       26.187 -19.140   2.039  0.00  0.00    -0.290 OA
ENDROOT
BRANCH   1   3
ATOM      3  C   LIG    1       26.613 -16.994   2.924  0.00  0.00    +0.193 C 
BRANCH   3   4
ATOM      4  C   LIG    1       25.784 -15.747   3.147  0.00  0.00    +0.226 C 
ATOM      5  N   LIG    1       26.275 -14.516   2.794  0.00  0.00    -0.287 N 
ATOM      6  C   LIG    1       25.551 -13.247   3.042  0.00  0.00    +0.185 C 
ATOM      7  C   LIG    1       26.594 -12.158   2.709  0.00  0.00    +0.039 C 
ATOM      8  C   LIG    1       27.966 -12.861   2.635  0.00  0.00    +0.012 C 
ATOM      9  C   LIG    1       27.556 -14.261   2.181  0.00  0.00    +0.112 C 
ATOM     10  O   LIG    1       24.604 -15.803   3.499  0.00  0.00    -0.275 OA
BRANCH   8  11
ATOM     11  C   LIG    1       28.736 -12.811   3.990  0.00  0.00    -0.006 C 
ATOM     12  C   LIG    1       28.047 -11.997   5.112  0.00  0.00    +0.004 C 
ATOM     13  C   LIG    1       26.957 -12.741   5.879  0.00  0.00    +0.000 C 
ATOM     14  C   LIG    1       27.462 -14.067   6.428  0.00  0.00    +0.000 C 
ATOM     15  C   LIG    1       27.999 -14.935   5.302  0.00  0.00    +0.000 C 
ATOM     16  C   LIG    1       29.106 -14.219   4.525  0.00  0.00    +0.004 C 
ENDBRANCH   8  11
BRANCH   6  17
ATOM     17  C   LIG    1       24.298 -12.943   2.186  0.00  0.00    +0.326 C 
ATOM     18  O   LIG    1       23.964 -11.810   1.860  0.00  0.00    -0.249 OA
BRANCH  17  19
ATOM     19  O   LIG    1       23.581 -14.026   1.812  0.00  0.00    -0.479 OA
ATOM     20  H   LIG    1       23.997 -14.490   1.057  0.00  0.00    +0.295 HD
ENDBRANCH  17  19
ENDBRANCH   6  17
ENDBRANCH   3   4
ENDBRANCH   1   3
BRANCH   1  21
ATOM     21  O   LIG    1       25.443 -20.176   4.008  0.00  0.00    -0.286 OA
BRANCH  21  22
ATOM     22  C   LIG    1       26.194 -20.906   4.993  0.00  0.00    +0.320 C 
BRANCH  22  23
ATOM     23  C   LIG    1       25.330 -21.019   6.288  0.00  0.00    +0.052 C 
ATOM     24  C   LIG    1       23.929 -21.570   5.974  0.00  0.00    +0.013 C 
ATOM     25  C   LIG    1       25.146 -19.708   7.061  0.00  0.00    +0.013 C 
ENDBRANCH  22  23
BRANCH  22  26
ATOM     26  O   LIG    1       27.483 -20.288   5.173  0.00  0.00    -0.434 OA
BRANCH  26  27
ATOM     27  C   LIG    1       28.088 -20.559   6.382  0.00  0.00    +0.309 C 
ATOM     28  O   LIG    1       27.910 -21.542   7.061  0.00  0.00    -0.251 OA
BRANCH  27  30
ATOM     29  C   LIG    1       29.166 -18.355   5.700  0.00  0.00    +0.015 C 
ATOM     30  C   LIG    1       29.127 -19.487   6.701  0.00  0.00    +0.117 C 
ENDBRANCH  27  30
ENDBRANCH  26  27
ENDBRANCH  22  26
ENDBRANCH  21  22
ENDBRANCH   1  21
BRANCH   1  31
ATOM     31  C   LIG    1       24.176 -18.080   3.629  0.00  0.00    +0.098 C 
BRANCH  31  32
ATOM     32  C   LIG    1       23.221 -19.243   3.920  0.00  0.00    +0.010 C 
BRANCH  32  33
ATOM     33  C   LIG    1       22.109 -18.870   4.900  0.00  0.00    +0.005 C 
BRANCH  33  34
ATOM     34  C   LIG    1       21.338 -17.643   4.413  0.00  0.00    +0.035 C 
BRANCH  34  35
ATOM     35  C   LIG    1       21.757 -16.377   5.115  0.00  0.00    -0.047 A 
ATOM     36  C   LIG    1       22.840 -15.623   4.643  0.00  0.00    +0.003 A 
ATOM     37  C   LIG    1       23.198 -14.428   5.270  0.00  0.00    +0.000 A 
ATOM     38  C   LIG    1       22.497 -13.989   6.391  0.00  0.00    +0.000 A 
ATOM     39  C   LIG    1       21.444 -14.751   6.892  0.00  0.00    +0.000 A 
ATOM     40  C   LIG    1       21.063 -15.930   6.249  0.00  0.00    +0.003 A 
ENDBRANCH  34  35
ENDBRANCH  33  34
ENDBRANCH  32  33
ENDBRANCH  31  32
ENDBRANCH   1  31
TORSDOF 16
ENDMDL
MODEL 3
REMARK VINA RESULT:      10.8      2.406      5.117
REMARK  Name = *****
REMARK                            x       y       z     vdW  Elec       q    Type
REMARK                         _______ _______ _______ _____ _____    ______ ____
ROOT
ATOM      1  P   LIG    1       23.817 -17.869   4.281  0.00  0.00    +0.216 P 
ATOM      2  O   LIG    1       22.980 -17.344   5.462  0.00  0.00    -0.290 OA
ENDROOT
BRANCH   1   3
ATOM      3  C   LIG    1       23.627 -16.234   3.482  0.00  0.00    +0.193 C 
BRANCH   3   4
ATOM      4  C   LIG    1       23.788 -14.957   4.281  0.00  0.00    +0.226 C 
ATOM      5  N   LIG    1       24.138 -13.788   3.656  0.00  0.00    -0.287 N 
ATOM      6  C   LIG    1       24.377 -12.517   4.379  0.00  0.00    +0.185 C 
ATOM      7  C   LIG    1       24.976 -11.588   3.300  0.00  0.00    +0.039 C 
ATOM      8  C   LIG    1       25.379 -12.485   2.111  0.00  0.00    +0.012 C 
ATOM      9  C   LIG    1       24.365 -13.621   2.242  0.00  0.00    +0.112 C 
ATOM     10  O   LIG    1       23.463 -14.886   5.469  0.00  0.00    -0.275 OA
BRANCH   8  11
ATOM     11  C   LIG    1       26.873 -12.930   2.179  0.00  0.00    -0.006 C 
ATOM     12  C   LIG    1       27.729 -12.206   3.246  0.00  0.00    +0.004 C 
ATOM     13  C   LIG    1       27.609 -12.759   4.663  0.00  0.00    +0.000 C 
ATOM     14  C   LIG    1       27.876 -14.257   4.704  0.00  0.00    +0.000 C 
ATOM     15  C   LIG    1       26.926 -14.989   3.770  0.00  0.00    +0.000 C 
ATOM     16  C   LIG    1       27.038 -14.463   2.338  0.00  0.00    +0.004 C 
ENDBRANCH   8  11
BRANCH   6  17
ATOM     17  C   LIG    1       23.157 -11.778   4.980  0.00  0.00    +0.326 C 
ATOM     18  O   LIG    1       22.176 -11.453   4.323  0.00  0.00    -0.249 OA
BRANCH  17  19
ATOM     19  O   LIG    1       23.242 -11.510   6.302  0.00  0.00    -0.479 OA
ATOM     20  H   LIG    1       24.033 -10.972   6.510  0.00  0.00    +0.295 HD
ENDBRANCH  17  19
ENDBRANCH   6  17
ENDBRANCH   3   4
ENDBRANCH   1   3
BRANCH   1  21
ATOM     21  O   LIG    1       23.998 -19.415   5.036  0.00  0.00    -0.286 OA
BRANCH  21  22
ATOM     22  C   LIG    1       24.224 -20.576   4.220  0.00  0.00    +0.320 C 
BRANCH  22  23
ATOM     23  C   LIG    1       24.294 -20.123   2.727  0.00  0.00    +0.052 C 
ATOM     24  C   LIG    1       23.491 -21.073   1.821  0.00  0.00    +0.013 C 
ATOM     25  C   LIG    1       25.708 -20.020   2.146  0.00  0.00    +0.013 C 
ENDBRANCH  22  23
BRANCH  22  26
ATOM     26  O   LIG    1       23.222 -21.571   4.508  0.00  0.00    -0.434 OA
BRANCH  26  27
ATOM     27  C   LIG    1       22.271 -21.181   5.428  0.00  0.00    +0.309 C 
ATOM     28  O   LIG    1       22.442 -21.059   6.617  0.00  0.00    -0.251 OA
BRANCH  27  30
ATOM     29  C   LIG    1       21.097 -19.564   3.848  0.00  0.00    +0.015 C 
ATOM     30  C   LIG    1       20.977 -20.797   4.714  0.00  0.00    +0.117 C 
ENDBRANCH  27  30
ENDBRANCH  26  27
ENDBRANCH  22  26
ENDBRANCH  21  22
ENDBRANCH   1  21
BRANCH   1  31
ATOM     31  C   LIG    1       25.656 -17.591   4.771  0.00  0.00    +0.098 C 
BRANCH  31  32
ATOM     32  C   LIG    1       26.643 -18.181   3.759  0.00  0.00    +0.010 C 
BRANCH  32  33
ATOM     33  C   LIG    1       28.049 -17.592   3.886  0.00  0.00    +0.005 C 
BRANCH  33  34
ATOM     34  C   LIG    1       28.540 -17.651   5.332  0.00  0.00    +0.035 C 
BRANCH  34  35
ATOM     35  C   LIG    1       28.353 -19.011   5.954  0.00  0.00    -0.047 A 
ATOM     36  C   LIG    1       27.068 -19.516   6.194  0.00  0.00    +0.003 A 
ATOM     37  C   LIG    1       26.898 -20.794   6.730  0.00  0.00    +0.000 A 
ATOM     38  C   LIG    1       28.008 -21.569   7.057  0.00  0.00    +0.000 A 
ATOM     39  C   LIG    1       29.291 -21.061   6.858  0.00  0.00    +0.000 A 
ATOM     40  C   LIG    1       29.464 -19.796   6.294  0.00  0.00    +0.003 A 
ENDBRANCH  34  35
ENDBRANCH  33  34
ENDBRANCH  32  33
ENDBRANCH  31  32
ENDBRANCH   1  31
TORSDOF 16
ENDMDL
MODEL 4
REMARK VINA RESULT:      11.2      1.854      6.975
REMARK  Name = *****
REMARK                            x       y       z     vdW  Elec       q    Type
REMARK                         _______ _______ _______ _____ _____    ______ ____
ROOT
ATOM      1  P   LIG    1       26.030 -15.413   3.322  0.00  0.00    +0.216 P 
ATOM      2  O   LIG    1       26.227 -15.071   1.834  0.00  0.00    -0.290 OA
ENDROOT
BRANCH   1   3
ATOM      3  C   LIG    1       25.693 -17.143   2.830  0.00  0.00    +0.193 C 
BRANCH   3   4
ATOM      4  C   LIG    1       25.101 -18.128   3.816  0.00  0.00    +0.226 C 
ATOM      5  N   LIG    1       23.784 -18.495   3.723  0.00  0.00    -0.287 N 
ATOM      6  C   LIG    1       23.119 -19.400   4.690  0.00  0.00    +0.185 C 
ATOM      7  C   LIG    1       21.623 -19.304   4.315  0.00  0.00    +0.039 C 
ATOM      8  C   LIG    1       21.473 -18.077   3.390  0.00  0.00    +0.012 C 
ATOM      9  C   LIG    1       22.848 -18.039   2.725  0.00  0.00    +0.112 C 
ATOM     10  O   LIG    1       25.802 -18.744   4.623  0.00  0.00    -0.275 OA
BRANCH   8  11
ATOM     11  C   LIG    1       21.088 -16.784   4.173  0.00  0.00    -0.006 C 
ATOM     12  C   LIG    1       21.650 -16.691   5.612  0.00  0.00    +0.004 C 
ATOM     13  C   LIG    1       23.090 -16.200   5.718  0.00  0.00    +0.000 C 
ATOM     14  C   LIG    1       23.286 -14.877   4.992  0.00  0.00    +0.000 C 
ATOM     15  C   LIG    1       22.880 -15.009   3.533  0.00  0.00    +0.000 C 
ATOM     16  C   LIG    1       21.433 -15.486   3.399  0.00  0.00    +0.004 C 
ENDBRANCH   8  11
BRANCH   6  17
ATOM     17  C   LIG    1       23.492 -20.902   4.659  0.00  0.00    +0.326 C 
ATOM     18  O   LIG    1       23.507 -21.572   3.633  0.00  0.00    -0.249 OA
BRANCH  17  19
ATOM     19  O   LIG    1       23.809 -21.439   5.857  0.00  0.00    -0.479 OA
ATOM     20  H   LIG    1       23.014 -21.586   6.409  0.00  0.00    +0.295 HD
ENDBRANCH  17  19
ENDBRANCH   6  17
ENDBRANCH   3   4
ENDBRANCH   1   3
BRANCH   1  21
ATOM     21  O   LIG    1       26.349 -13.778   3.788  0.00  0.00    -0.286 OA
BRANCH  21  22
ATOM     22  C   LIG    1       25.478 -13.131   4.732  0.00  0.00    +0.320 C 
BRANCH  22  23
ATOM     23  C   LIG    1       24.612 -12.082   3.965  0.00  0.00    +0.052 C 
ATOM     24  C   LIG    1       23.559 -11.449   4.891  0.00  0.00    +0.013 C 
ATOM     25  C   LIG    1       23.877 -12.623   2.734  0.00  0.00    +0.013 C 
ENDBRANCH  22  23
BRANCH  22  26
ATOM     26  O   LIG    1       26.257 -12.598   5.820  0.00  0.00    -0.434 OA
BRANCH  26  27
ATOM     27  C   LIG    1       27.306 -13.399   6.224  0.00  0.00    +0.309 C 
ATOM     28  O   LIG    1       27.223 -14.548   6.586  0.00  0.00    -0.251 OA
BRANCH  27  30
ATOM     29  C   LIG    1       28.845 -12.141   4.630  0.00  0.00    +0.015 C 
ATOM     30  C   LIG    1       28.630 -12.664   6.033  0.00  0.00    +0.117 C 
ENDBRANCH  27  30
ENDBRANCH  26  27
ENDBRANCH  22  26
ENDBRANCH  21  22
ENDBRANCH   1  21
BRANCH   1  31
ATOM     31  C   LIG    1       27.784 -15.786   4.015  0.00  0.00    +0.098 C 
BRANCH  31  32
ATOM     32  C   LIG    1       28.075 -17.285   4.141  0.00  0.00    +0.010 C 
BRANCH  32  33
ATOM     33  C   LIG    1       29.466 -17.577   4.704  0.00  0.00    +0.005 C 
BRANCH  33  34
ATOM     34  C   LIG    1       29.402 -17.858   6.205  0.00  0.00    +0.035 C 
BRANCH  34  35
ATOM     35  C   LIG    1       28.693 -19.149   6.524  0.00  0.00    -0.047 A 
ATOM     36  C   LIG    1       27.293 -19.204   6.567  0.00  0.00    +0.003 A 
ATOM     37  C   LIG    1       26.639 -20.411   6.820  0.00  0.00    +0.000 A 
ATOM     38  C   LIG    1       27.375 -21.569   7.061  0.00  0.00    +0.000 A 
ATOM     39  C   LIG    1       28.768 -21.518   7.059  0.00  0.00    +0.000 A 
ATOM     40  C   LIG    1       29.424 -20.319   6.775  0.00  0.00    +0.003 A 
ENDBRANCH  34  35
ENDBRANCH  33  34
ENDBRANCH  32  33
ENDBRANCH  31  32
ENDBRANCH   1  31
TORSDOF 16
ENDMDL
MODEL 5
REMARK VINA RESULT:      11.3      2.205      5.810
REMARK  Name = *****
REMARK                            x       y       z     vdW  Elec       q    Type
REMARK                         _______ _______ _______ _____ _____    ______ ____
ROOT
ATOM      1  P   LIG    1       26.197 -17.495   3.257  0.00  0.00    +0.216 P 
ATOM      2  O   LIG    1       25.028 -17.866   4.187  0.00  0.00    -0.290 OA
ENDROOT
BRANCH   1   3
ATOM      3  C   LIG    1       25.323 -15.938   2.859  0.00  0.00    +0.193 C 
BRANCH   3   4
ATOM      4  C   LIG    1       24.005 -15.597   3.523  0.00  0.00    +0.226 C 
ATOM      5  N   LIG    1       23.383 -16.508   4.336  0.00  0.00    -0.287 N 
ATOM      6  C   LIG    1       22.063 -16.272   4.965  0.00  0.00    +0.185 C 
ATOM      7  C   LIG    1       21.685 -17.648   5.556  0.00  0.00    +0.039 C 
ATOM      8  C   LIG    1       22.640 -18.683   4.924  0.00  0.00    +0.012 C 
ATOM      9  C   LIG    1       23.877 -17.823   4.665  0.00  0.00    +0.112 C 
ATOM     10  O   LIG    1       23.533 -14.458   3.487  0.00  0.00    -0.275 OA
BRANCH   8  11
ATOM     11  C   LIG    1       22.034 -19.357   3.655  0.00  0.00    -0.006 C 
ATOM     12  C   LIG    1       20.706 -20.120   3.882  0.00  0.00    +0.004 C 
ATOM     13  C   LIG    1       19.451 -19.252   3.893  0.00  0.00    +0.000 C 
ATOM     14  C   LIG    1       19.354 -18.392   2.641  0.00  0.00    +0.000 C 
ATOM     15  C   LIG    1       20.593 -17.523   2.499  0.00  0.00    +0.000 C 
ATOM     16  C   LIG    1       21.867 -18.370   2.471  0.00  0.00    +0.004 C 
ENDBRANCH   8  11
BRANCH   6  17
ATOM     17  C   LIG    1       21.979 -15.249   6.124  0.00  0.00    +0.326 C 
ATOM     18  O   LIG    1       21.067 -15.231   6.942  0.00  0.00    -0.249 OA
BRANCH  17  19
ATOM     19  O   LIG    1       22.997 -14.362   6.181  0.00  0.00    -0.479 OA
ATOM     20  H   LIG    1       22.669 -13.442   6.249  0.00  0.00    +0.295 HD
ENDBRANCH  17  19
ENDBRANCH   6  17
ENDBRANCH   3   4
ENDBRANCH   1   3
BRANCH   1  21
ATOM     21  O   LIG    1       27.024 -18.968   3.633  0.00  0.00    -0.286 OA
BRANCH  21  22
ATOM     22  C   LIG    1       27.097 -19.406   5.000  0.00  0.00    +0.320 C 
BRANCH  22  23
ATOM     23  C   LIG    1       28.601 -19.474   5.416  0.00  0.00    +0.052 C 
ATOM     24  C   LIG    1       28.869 -20.678   6.334  0.00  0.00    +0.013 C 
ATOM     25  C   LIG    1       29.134 -18.226   6.128  0.00  0.00    +0.013 C 
ENDBRANCH  22  23
BRANCH  22  26
ATOM     26  O   LIG    1       26.368 -20.639   5.151  0.00  0.00    -0.434 OA
BRANCH  26  27
ATOM     27  C   LIG    1       25.359 -20.600   6.090  0.00  0.00    +0.309 C 
ATOM     28  O   LIG    1       25.298 -19.853   7.037  0.00  0.00    -0.251 OA
BRANCH  27  30
ATOM     29  C   LIG    1       23.027 -21.493   6.599  0.00  0.00    +0.015 C 
ATOM     30  C   LIG    1       24.241 -21.564   5.700  0.00  0.00    +0.117 C 
ENDBRANCH  27  30
ENDBRANCH  26  27
ENDBRANCH  22  26
ENDBRANCH  21  22
ENDBRANCH   1  21
BRANCH   1  31
ATOM     31  C   LIG    1       27.516 -16.654   4.375  0.00  0.00    +0.098 C 
BRANCH  31  32
ATOM     32  C   LIG    1       27.341 -15.135   4.472  0.00  0.00    +0.010 C 
BRANCH  32  33
ATOM     33  C   LIG    1       27.966 -14.386   3.294  0.00  0.00    +0.005 C 
BRANCH  33  34
ATOM     34  C   LIG    1       27.827 -12.874   3.470  0.00  0.00    +0.035 C 
BRANCH  34  35
ATOM     35  C   LIG    1       26.411 -12.395   3.279  0.00  0.00    -0.047 A 
ATOM     36  C   LIG    1       25.587 -12.143   4.384  0.00  0.00    +0.003 A 
ATOM     37  C   LIG    1       24.290 -11.657   4.205  0.00  0.00    +0.000 A 
ATOM     38  C   LIG    1       23.794 -11.447   2.920  0.00  0.00    +0.000 A 
ATOM     39  C   LIG    1       24.591 -11.732   1.813  0.00  0.00    +0.000 A 
ATOM     40  C   LIG    1       25.898 -12.187   1.990  0.00  0.00    +0.003 A 
ENDBRANCH  34  35
ENDBRANCH  33  34
ENDBRANCH  32  33
ENDBRANCH  31  32
ENDBRANCH   1  31
TORSDOF 16
ENDMDL
