MODEL 1
REMARK VINA RESULT:      -6.3      0.000      0.000
REMARK  Name = *****
REMARK                            x       y       z     vdW  Elec       q    Type
REMARK                         _______ _______ _______ _____ _____    ______ ____
ROOT
ATOM      1  C   LIG    1       29.977 -20.585   8.042  0.00  0.00    +0.162 A 
ATOM      2  C   LIG    1       30.691 -19.517   7.463  0.00  0.00    +0.162 A 
ATOM      3  C   LIG    1       30.155 -18.835   6.366  0.00  0.00    +0.049 A 
ATOM      4  C   LIG    1       28.946 -19.235   5.799  0.00  0.00    +0.004 A 
ATOM      5  C   LIG    1       28.267 -20.330   6.329  0.00  0.00    +0.004 A 
ATOM      6  C   LIG    1       28.779 -20.997   7.445  0.00  0.00    +0.049 A 
ENDROOT
BRANCH   1   8
ATOM      7  C   LIG    1       31.394 -22.207   9.093  0.00  0.00    +0.277 C 
ATOM      8  O   LIG    1       30.474 -21.128   9.193  0.00  0.00    -0.491 OA
ENDBRANCH   1   8
BRANCH   2   9
ATOM      9  O   LIG    1       31.909 -19.033   7.873  0.00  0.00    -0.486 OA
BRANCH   9  10
ATOM     10  C   LIG    1       31.906 -17.744   8.500  0.00  0.00    +0.262 C 
BRANCH  10  11
ATOM     11  C   LIG    1       31.646 -17.917   9.995  0.00  0.00    +0.177 C 
BRANCH  11  12
ATOM     12  O   LIG    1       32.651 -17.215  10.752  0.00  0.00    -0.386 OA
ATOM     13  H   LIG    1       32.379 -16.276  10.751  0.00  0.00    +0.210 HD
ENDBRANCH  11  12
BRANCH  11  14
ATOM     14  C   LIG    1       30.280 -17.391  10.427  0.00  0.00    +0.190 C 
BRANCH  14  15
ATOM     15  O   LIG    1       30.469 -16.336  11.372  0.00  0.00    -0.392 OA
ATOM     16  H   LIG    1       29.684 -16.372  11.957  0.00  0.00    +0.209 HD
ENDBRANCH  14  15
ENDBRANCH  11  14
ENDBRANCH  10  11
ENDBRANCH   9  10
ENDBRANCH   2   9
TORSDOF 7
ENDMDL
MODEL 2
REMARK VINA RESULT:      -6.3      4.613      6.405
REMARK  Name = *****
REMARK                            x       y       z     vdW  Elec       q    Type
REMARK                         _______ _______ _______ _____ _____    ______ ____
ROOT
ATOM      1  C   LIG    1       23.597 -20.433   5.989  0.00  0.00    +0.162 A 
ATOM      2  C   LIG    1       24.884 -20.476   5.414  0.00  0.00    +0.162 A 
ATOM      3  C   LIG    1       25.154 -19.740   4.257  0.00  0.00    +0.049 A 
ATOM      4  C   LIG    1       24.149 -19.007   3.628  0.00  0.00    +0.004 A 
ATOM      5  C   LIG    1       22.860 -19.012   4.156  0.00  0.00    +0.004 A 
ATOM      6  C   LIG    1       22.589 -19.718   5.331  0.00  0.00    +0.049 A 
ENDROOT
BRANCH   1   8
ATOM      7  C   LIG    1       23.112 -22.442   7.201  0.00  0.00    +0.277 C 
ATOM      8  O   LIG    1       23.421 -21.055   7.193  0.00  0.00    -0.491 OA
ENDBRANCH   1   8
BRANCH   2   9
ATOM      9  O   LIG    1       25.963 -21.182   5.884  0.00  0.00    -0.486 OA
BRANCH   9  10
ATOM     10  C   LIG    1       27.105 -20.413   6.284  0.00  0.00    +0.262 C 
BRANCH  10  11
ATOM     11  C   LIG    1       27.682 -21.007   7.567  0.00  0.00    +0.177 C 
BRANCH  11  12
ATOM     12  O   LIG    1       28.203 -19.955   8.403  0.00  0.00    -0.386 OA
ATOM     13  H   LIG    1       28.172 -19.142   7.860  0.00  0.00    +0.210 HD
ENDBRANCH  11  12
BRANCH  11  14
ATOM     14  C   LIG    1       26.650 -21.785   8.380  0.00  0.00    +0.190 C 
BRANCH  14  15
ATOM     15  O   LIG    1       25.859 -20.861   9.130  0.00  0.00    -0.392 OA
ATOM     16  H   LIG    1       25.849 -21.214  10.043  0.00  0.00    +0.209 HD
ENDBRANCH  14  15
ENDBRANCH  11  14
ENDBRANCH  10  11
ENDBRANCH   9  10
ENDBRANCH   2   9
TORSDOF 7
ENDMDL
MODEL 3
REMARK VINA RESULT:      -6.2      2.151      3.746
REMARK  Name = *****
REMARK                            x       y       z     vdW  Elec       q    Type
REMARK                         _______ _______ _______ _____ _____    ______ ____
ROOT
ATOM      1  C   LIG    1       27.618 -20.087   6.261  0.00  0.00    +0.162 A 
ATOM      2  C   LIG    1       27.656 -20.244   7.661  0.00  0.00    +0.162 A 
ATOM      3  C   LIG    1       26.515 -20.676   8.344  0.00  0.00    +0.049 A 
ATOM      4  C   LIG    1       25.319 -20.900   7.663  0.00  0.00    +0.004 A 
ATOM      5  C   LIG    1       25.259 -20.685   6.288  0.00  0.00    +0.004 A 
ATOM      6  C   LIG    1       26.403 -20.284   5.593  0.00  0.00    +0.049 A 
ENDROOT
BRANCH   1   8
ATOM      7  C   LIG    1       29.122 -18.435   5.395  0.00  0.00    +0.277 C 
ATOM      8  O   LIG    1       28.793 -19.798   5.626  0.00  0.00    -0.491 OA
ENDBRANCH   1   8
BRANCH   2   9
ATOM      9  O   LIG    1       28.737 -20.022   8.478  0.00  0.00    -0.486 OA
BRANCH   9  10
ATOM     10  C   LIG    1       29.829 -20.944   8.358  0.00  0.00    +0.262 C 
BRANCH  10  11
ATOM     11  C   LIG    1       31.143 -20.168   8.388  0.00  0.00    +0.177 C 
BRANCH  11  12
ATOM     12  O   LIG    1       31.610 -19.939   7.044  0.00  0.00    -0.386 OA
ATOM     13  H   LIG    1       32.199 -20.691   6.835  0.00  0.00    +0.210 HD
ENDBRANCH  11  12
BRANCH  11  14
ATOM     14  C   LIG    1       31.018 -18.811   9.079  0.00  0.00    +0.190 C 
BRANCH  14  15
ATOM     15  O   LIG    1       30.718 -19.022  10.460  0.00  0.00    -0.392 OA
ATOM     16  H   LIG    1       29.850 -19.474  10.467  0.00  0.00    +0.209 HD
ENDBRANCH  14  15
ENDBRANCH  11  14
ENDBRANCH  10  11
ENDBRANCH   9  10
ENDBRANCH   2   9
TORSDOF 7
ENDMDL
MODEL 4
REMARK VINA RESULT:      -6.1      4.570      6.353
REMARK  Name = *****
REMARK                            x       y       z     vdW  Elec       q    Type
REMARK                         _______ _______ _______ _____ _____    ______ ____
ROOT
ATOM      1  C   LIG    1       25.180 -24.027   6.670  0.00  0.00    +0.162 A 
ATOM      2  C   LIG    1       25.563 -22.711   6.996  0.00  0.00    +0.162 A 
ATOM      3  C   LIG    1       24.586 -21.752   7.281  0.00  0.00    +0.049 A 
ATOM      4  C   LIG    1       23.232 -22.067   7.191  0.00  0.00    +0.004 A 
ATOM      5  C   LIG    1       22.847 -23.349   6.809  0.00  0.00    +0.004 A 
ATOM      6  C   LIG    1       23.816 -24.323   6.553  0.00  0.00    +0.049 A 
ENDROOT
BRANCH   1   8
ATOM      7  C   LIG    1       25.918 -26.108   5.738  0.00  0.00    +0.277 C 
ATOM      8  O   LIG    1       26.170 -24.959   6.536  0.00  0.00    -0.491 OA
ENDBRANCH   1   8
BRANCH   2   9
ATOM      9  O   LIG    1       26.848 -22.233   7.081  0.00  0.00    -0.486 OA
BRANCH   9  10
ATOM     10  C   LIG    1       26.999 -20.886   7.548  0.00  0.00    +0.262 C 
BRANCH  10  11
ATOM     11  C   LIG    1       28.356 -20.351   7.097  0.00  0.00    +0.177 C 
BRANCH  11  12
ATOM     12  O   LIG    1       29.313 -21.427   7.036  0.00  0.00    -0.386 OA
ATOM     13  H   LIG    1       28.789 -22.243   6.908  0.00  0.00    +0.210 HD
ENDBRANCH  11  12
BRANCH  11  14
ATOM     14  C   LIG    1       28.308 -19.687   5.722  0.00  0.00    +0.190 C 
BRANCH  14  15
ATOM     15  O   LIG    1       27.183 -20.195   5.003  0.00  0.00    -0.392 OA
ATOM     16  H   LIG    1       27.510 -21.000   4.551  0.00  0.00    +0.209 HD
ENDBRANCH  14  15
ENDBRANCH  11  14
ENDBRANCH  10  11
ENDBRANCH   9  10
ENDBRANCH   2   9
TORSDOF 7
ENDMDL
MODEL 5
REMARK VINA RESULT:      -6.1      4.614      6.563
REMARK  Name = *****
REMARK                            x       y       z     vdW  Elec       q    Type
REMARK                         _______ _______ _______ _____ _____    ______ ____
ROOT
ATOM      1  C   LIG    1       23.800 -22.399   7.062  0.00  0.00    +0.162 A 
ATOM      2  C   LIG    1       25.204 -22.439   7.171  0.00  0.00    +0.162 A 
ATOM      3  C   LIG    1       25.889 -23.629   6.904  0.00  0.00    +0.049 A 
ATOM      4  C   LIG    1       25.195 -24.795   6.587  0.00  0.00    +0.004 A 
ATOM      5  C   LIG    1       23.803 -24.777   6.540  0.00  0.00    +0.004 A 
ATOM      6  C   LIG    1       23.112 -23.585   6.773  0.00  0.00    +0.049 A 
ENDROOT
BRANCH   1   8
ATOM      7  C   LIG    1       22.971 -20.402   6.029  0.00  0.00    +0.277 C 
ATOM      8  O   LIG    1       23.190 -21.184   7.196  0.00  0.00    -0.491 OA
ENDBRANCH   1   8
BRANCH   2   9
ATOM      9  O   LIG    1       26.026 -21.394   7.514  0.00  0.00    -0.486 OA
BRANCH   9  10
ATOM     10  C   LIG    1       27.436 -21.652   7.484  0.00  0.00    +0.262 C 
BRANCH  10  11
ATOM     11  C   LIG    1       28.188 -20.326   7.568  0.00  0.00    +0.177 C 
BRANCH  11  12
ATOM     12  O   LIG    1       29.392 -20.493   8.342  0.00  0.00    -0.386 OA
ATOM     13  H   LIG    1       29.216 -21.236   8.953  0.00  0.00    +0.210 HD
ENDBRANCH  11  12
BRANCH  11  14
ATOM     14  C   LIG    1       28.581 -19.776   6.199  0.00  0.00    +0.190 C 
BRANCH  14  15
ATOM     15  O   LIG    1       27.671 -20.279   5.220  0.00  0.00    -0.392 OA
ATOM     16  H   LIG    1       27.623 -19.582   4.533  0.00  0.00    +0.209 HD
ENDBRANCH  14  15
ENDBRANCH  11  14
ENDBRANCH  10  11
ENDBRANCH   9  10
ENDBRANCH   2   9
TORSDOF 7
ENDMDL
MODEL 6
REMARK VINA RESULT:      -6.1      5.957      8.810
REMARK  Name = *****
REMARK                            x       y       z     vdW  Elec       q    Type
REMARK                         _______ _______ _______ _____ _____    ______ ____
ROOT
ATOM      1  C   LIG    1       25.551 -22.660   7.069  0.00  0.00    +0.162 A 
ATOM      2  C   LIG    1       25.066 -23.899   6.606  0.00  0.00    +0.162 A 
ATOM      3  C   LIG    1       23.688 -24.109   6.492  0.00  0.00    +0.049 A 
ATOM      4  C   LIG    1       22.783 -23.126   6.888  0.00  0.00    +0.004 A 
ATOM      5  C   LIG    1       23.256 -21.922   7.406  0.00  0.00    +0.004 A 
ATOM      6  C   LIG    1       24.632 -21.692   7.493  0.00  0.00    +0.049 A 
ENDROOT
BRANCH   1   8
ATOM      7  C   LIG    1       27.473 -21.525   7.940  0.00  0.00    +0.277 C 
ATOM      8  O   LIG    1       26.902 -22.455   7.030  0.00  0.00    -0.491 OA
ENDBRANCH   1   8
BRANCH   2   9
ATOM      9  O   LIG    1       25.822 -24.979   6.221  0.00  0.00    -0.486 OA
BRANCH   9  10
ATOM     10  C   LIG    1       25.406 -25.660   5.031  0.00  0.00    +0.262 C 
BRANCH  10  11
ATOM     11  C   LIG    1       25.868 -27.114   5.100  0.00  0.00    +0.177 C 
BRANCH  11  12
ATOM     12  O   LIG    1       27.308 -27.171   5.097  0.00  0.00    -0.386 OA
ATOM     13  H   LIG    1       27.591 -26.826   5.967  0.00  0.00    +0.210 HD
ENDBRANCH  11  12
BRANCH  11  14
ATOM     14  C   LIG    1       25.372 -27.838   6.350  0.00  0.00    +0.190 C 
BRANCH  14  15
ATOM     15  O   LIG    1       26.291 -27.598   7.418  0.00  0.00    -0.392 OA
ATOM     16  H   LIG    1       25.864 -27.981   8.212  0.00  0.00    +0.209 HD
ENDBRANCH  14  15
ENDBRANCH  11  14
ENDBRANCH  10  11
ENDBRANCH   9  10
ENDBRANCH   2   9
TORSDOF 7
ENDMDL
MODEL 7
REMARK VINA RESULT:      -6.1      1.651      2.274
REMARK  Name = *****
REMARK                            x       y       z     vdW  Elec       q    Type
REMARK                         _______ _______ _______ _____ _____    ______ ____
ROOT
ATOM      1  C   LIG    1       27.836 -20.375   7.609  0.00  0.00    +0.162 A 
ATOM      2  C   LIG    1       29.057 -19.683   7.743  0.00  0.00    +0.162 A 
ATOM      3  C   LIG    1       29.547 -18.924   6.676  0.00  0.00    +0.049 A 
ATOM      4  C   LIG    1       28.872 -18.889   5.458  0.00  0.00    +0.004 A 
ATOM      5  C   LIG    1       27.698 -19.622   5.299  0.00  0.00    +0.004 A 
ATOM      6  C   LIG    1       27.183 -20.357   6.371  0.00  0.00    +0.049 A 
ENDROOT
BRANCH   1   8
ATOM      7  C   LIG    1       26.183 -21.812   8.580  0.00  0.00    +0.277 C 
ATOM      8  O   LIG    1       27.331 -20.987   8.722  0.00  0.00    -0.491 OA
ENDBRANCH   1   8
BRANCH   2   9
ATOM      9  O   LIG    1       29.860 -19.654   8.857  0.00  0.00    -0.486 OA
BRANCH   9  10
ATOM     10  C   LIG    1       31.270 -19.542   8.625  0.00  0.00    +0.262 C 
BRANCH  10  11
ATOM     11  C   LIG    1       31.786 -18.272   9.299  0.00  0.00    +0.177 C 
BRANCH  11  12
ATOM     12  O   LIG    1       32.200 -17.320   8.299  0.00  0.00    -0.386 OA
ATOM     13  H   LIG    1       31.796 -16.468   8.559  0.00  0.00    +0.210 HD
ENDBRANCH  11  12
BRANCH  11  14
ATOM     14  C   LIG    1       30.740 -17.599  10.184  0.00  0.00    +0.190 C 
BRANCH  14  15
ATOM     15  O   LIG    1       30.632 -18.329  11.408  0.00  0.00    -0.392 OA
ATOM     16  H   LIG    1       29.699 -18.623  11.449  0.00  0.00    +0.209 HD
ENDBRANCH  14  15
ENDBRANCH  11  14
ENDBRANCH  10  11
ENDBRANCH   9  10
ENDBRANCH   2   9
TORSDOF 7
ENDMDL
MODEL 8
REMARK VINA RESULT:      -6.0      2.976      4.706
REMARK  Name = *****
REMARK                            x       y       z     vdW  Elec       q    Type
REMARK                         _______ _______ _______ _____ _____    ______ ____
ROOT
ATOM      1  C   LIG    1       26.103 -20.395   5.967  0.00  0.00    +0.162 A 
ATOM      2  C   LIG    1       27.258 -20.519   6.764  0.00  0.00    +0.162 A 
ATOM      3  C   LIG    1       27.167 -21.087   8.038  0.00  0.00    +0.049 A 
ATOM      4  C   LIG    1       25.935 -21.481   8.556  0.00  0.00    +0.004 A 
ATOM      5  C   LIG    1       24.780 -21.303   7.797  0.00  0.00    +0.004 A 
ATOM      6  C   LIG    1       24.866 -20.766   6.509  0.00  0.00    +0.049 A 
ENDROOT
BRANCH   1   8
ATOM      7  C   LIG    1       25.132 -19.946   3.822  0.00  0.00    +0.277 C 
ATOM      8  O   LIG    1       26.265 -19.964   4.680  0.00  0.00    -0.491 OA
ENDBRANCH   1   8
BRANCH   2   9
ATOM      9  O   LIG    1       28.532 -20.138   6.418  0.00  0.00    -0.486 OA
BRANCH   9  10
ATOM     10  C   LIG    1       29.549 -20.334   7.410  0.00  0.00    +0.262 C 
BRANCH  10  11
ATOM     11  C   LIG    1       30.757 -19.469   7.062  0.00  0.00    +0.177 C 
BRANCH  11  12
ATOM     12  O   LIG    1       30.354 -18.382   6.207  0.00  0.00    -0.386 OA
ATOM     13  H   LIG    1       31.148 -18.141   5.689  0.00  0.00    +0.210 HD
ENDBRANCH  11  12
BRANCH  11  14
ATOM     14  C   LIG    1       31.436 -18.871   8.293  0.00  0.00    +0.190 C 
BRANCH  14  15
ATOM     15  O   LIG    1       31.990 -19.930   9.076  0.00  0.00    -0.392 OA
ATOM     16  H   LIG    1       31.903 -20.731   8.520  0.00  0.00    +0.209 HD
ENDBRANCH  14  15
ENDBRANCH  11  14
ENDBRANCH  10  11
ENDBRANCH   9  10
ENDBRANCH   2   9
TORSDOF 7
ENDMDL
MODEL 9
REMARK VINA RESULT:      -6.0      2.901      5.034
REMARK  Name = *****
REMARK                            x       y       z     vdW  Elec       q    Type
REMARK                         _______ _______ _______ _____ _____    ______ ____
ROOT
ATOM      1  C   LIG    1       30.043 -20.200   8.060  0.00  0.00    +0.162 A 
ATOM      2  C   LIG    1       28.755 -20.622   7.673  0.00  0.00    +0.162 A 
ATOM      3  C   LIG    1       28.199 -20.152   6.480  0.00  0.00    +0.049 A 
ATOM      4  C   LIG    1       28.878 -19.223   5.694  0.00  0.00    +0.004 A 
ATOM      5  C   LIG    1       30.125 -18.755   6.104  0.00  0.00    +0.004 A 
ATOM      6  C   LIG    1       30.703 -19.244   7.279  0.00  0.00    +0.049 A 
ENDROOT
BRANCH   1   8
ATOM      7  C   LIG    1       31.368 -21.974   8.978  0.00  0.00    +0.277 C 
ATOM      8  O   LIG    1       30.599 -20.793   9.159  0.00  0.00    -0.491 OA
ENDBRANCH   1   8
BRANCH   2   9
ATOM      9  O   LIG    1       27.942 -21.493   8.356  0.00  0.00    -0.486 OA
BRANCH   9  10
ATOM     10  C   LIG    1       26.829 -22.030   7.631  0.00  0.00    +0.262 C 
BRANCH  10  11
ATOM     11  C   LIG    1       25.539 -21.687   8.372  0.00  0.00    +0.177 C 
BRANCH  11  12
ATOM     12  O   LIG    1       25.817 -20.760   9.440  0.00  0.00    -0.386 OA
ATOM     13  H   LIG    1       26.665 -21.050   9.830  0.00  0.00    +0.210 HD
ENDBRANCH  11  12
BRANCH  11  14
ATOM     14  C   LIG    1       24.481 -21.059   7.468  0.00  0.00    +0.190 C 
BRANCH  14  15
ATOM     15  O   LIG    1       23.201 -21.593   7.814  0.00  0.00    -0.392 OA
ATOM     16  H   LIG    1       22.827 -21.927   6.973  0.00  0.00    +0.209 HD
ENDBRANCH  14  15
ENDBRANCH  11  14
ENDBRANCH  10  11
ENDBRANCH   9  10
ENDBRANCH   2   9
TORSDOF 7
ENDMDL
