MODEL 1
REMARK VINA RESULT:      -5.8      0.000      0.000
REMARK  Name = *****
REMARK                            x       y       z     vdW  Elec       q    Type
REMARK                         _______ _______ _______ _____ _____    ______ ____
ROOT
ATOM      1  N   LIG    1       27.241 -20.010   4.712  0.00  0.00    -0.341 N 
ATOM      2  H   LIG    1       27.105 -19.448   3.881  0.00  0.00    +0.146 HD
ENDROOT
BRANCH   1   3
ATOM      3  C   LIG    1       26.035 -20.335   5.384  0.00  0.00    +0.038 A 
ATOM      4  C   LIG    1       24.763 -19.862   4.924  0.00  0.00    +0.021 A 
ATOM      5  C   LIG    1       23.602 -20.266   5.627  0.00  0.00    +0.074 A 
ATOM      6  C   LIG    1       22.351 -19.808   5.243  0.00  0.00    +0.048 A 
ATOM      7  C   LIG    1       22.207 -18.952   4.148  0.00  0.00    +0.043 A 
ATOM      8  C   LIG    1       23.314 -18.560   3.426  0.00  0.00    +0.021 A 
ATOM      9 CL   LIG    1       20.648 -18.384   3.696  0.00  0.00    -0.084 Cl
ATOM     10  N   LIG    1       23.644 -21.092   6.681  0.00  0.00    -0.255 NA
ATOM     11  C   LIG    1       24.832 -21.572   7.061  0.00  0.00    +0.113 A 
ATOM     12  C   LIG    1       24.582 -19.009   3.799  0.00  0.00    +0.013 A 
ATOM     13  C   LIG    1       26.032 -21.229   6.471  0.00  0.00    +0.043 A 
ENDBRANCH   1   3
BRANCH   1  14
ATOM     14  C   LIG    1       28.484 -19.669   5.422  0.00  0.00    +0.067 C 
ATOM     15  C   LIG    1       28.279 -19.900   6.928  0.00  0.00    +0.027 C 
BRANCH  14  16
ATOM     16  C   LIG    1       28.841 -18.183   5.210  0.00  0.00    +0.023 C 
BRANCH  16  17
ATOM     17  C   LIG    1       27.838 -17.410   4.349  0.00  0.00    +0.017 C 
BRANCH  17  18
ATOM     18  C   LIG    1       28.017 -15.877   4.448  0.00  0.00    +0.084 C 
BRANCH  18  19
ATOM     19  N   LIG    1       27.236 -15.072   3.497  0.00  0.00    -0.300 NA
BRANCH  19  21
ATOM     20  C   LIG    1       24.829 -14.434   4.077  0.00  0.00    +0.020 C 
ATOM     21  C   LIG    1       25.803 -15.413   3.431  0.00  0.00    +0.081 C 
ENDBRANCH  19  21
BRANCH  19  22
ATOM     22  C   LIG    1       27.410 -13.604   3.612  0.00  0.00    +0.112 C 
BRANCH  22  23
ATOM     23  C   LIG    1       28.839 -13.030   3.739  0.00  0.00    +0.171 C 
BRANCH  23  24
ATOM     24  O   LIG    1       28.997 -12.151   4.843  0.00  0.00    -0.394 OA
ATOM     25  H   LIG    1       28.737 -11.265   4.541  0.00  0.00    +0.209 HD
ENDBRANCH  23  24
ENDBRANCH  22  23
ENDBRANCH  19  22
ENDBRANCH  18  19
ENDBRANCH  17  18
ENDBRANCH  16  17
ENDBRANCH  14  16
ENDBRANCH   1  14
TORSDOF 10
ENDMDL
MODEL 2
REMARK VINA RESULT:      -5.1      2.629      4.482
REMARK  Name = *****
REMARK                            x       y       z     vdW  Elec       q    Type
REMARK                         _______ _______ _______ _____ _____    ______ ____
ROOT
ATOM      1  N   LIG    1       23.171 -18.958   3.976  0.00  0.00    -0.341 N 
ATOM      2  H   LIG    1       23.026 -19.396   3.074  0.00  0.00    +0.146 HD
ENDROOT
BRANCH   1   3
ATOM      3  C   LIG    1       23.613 -19.856   4.981  0.00  0.00    +0.038 A 
ATOM      4  C   LIG    1       25.001 -20.002   5.305  0.00  0.00    +0.021 A 
ATOM      5  C   LIG    1       25.355 -20.891   6.350  0.00  0.00    +0.074 A 
ATOM      6  C   LIG    1       26.687 -21.094   6.679  0.00  0.00    +0.048 A 
ATOM      7  C   LIG    1       27.704 -20.420   5.999  0.00  0.00    +0.043 A 
ATOM      8  C   LIG    1       27.392 -19.529   4.995  0.00  0.00    +0.021 A 
ATOM      9 CL   LIG    1       29.350 -20.696   6.414  0.00  0.00    -0.084 Cl
ATOM     10  N   LIG    1       24.447 -21.571   7.062  0.00  0.00    -0.255 NA
ATOM     11  C   LIG    1       23.155 -21.378   6.787  0.00  0.00    +0.113 A 
ATOM     12  C   LIG    1       26.057 -19.312   4.647  0.00  0.00    +0.013 A 
ATOM     13  C   LIG    1       22.690 -20.560   5.777  0.00  0.00    +0.043 A 
ENDBRANCH   1   3
BRANCH   1  14
ATOM     14  C   LIG    1       22.205 -17.879   4.237  0.00  0.00    +0.067 C 
ATOM     15  C   LIG    1       20.886 -18.205   3.516  0.00  0.00    +0.027 C 
BRANCH  14  16
ATOM     16  C   LIG    1       22.729 -16.535   3.691  0.00  0.00    +0.023 C 
BRANCH  16  17
ATOM     17  C   LIG    1       22.726 -15.395   4.715  0.00  0.00    +0.017 C 
BRANCH  17  18
ATOM     18  C   LIG    1       24.042 -14.584   4.716  0.00  0.00    +0.084 C 
BRANCH  18  19
ATOM     19  N   LIG    1       24.412 -13.949   3.443  0.00  0.00    -0.300 NA
BRANCH  19  21
ATOM     20  C   LIG    1       24.343 -11.830   2.012  0.00  0.00    +0.020 C 
ATOM     21  C   LIG    1       24.075 -12.517   3.348  0.00  0.00    +0.081 C 
ENDBRANCH  19  21
BRANCH  19  22
ATOM     22  C   LIG    1       25.808 -14.179   2.997  0.00  0.00    +0.112 C 
BRANCH  22  23
ATOM     23  C   LIG    1       26.967 -13.759   3.928  0.00  0.00    +0.171 C 
BRANCH  23  24
ATOM     24  O   LIG    1       28.138 -13.368   3.229  0.00  0.00    -0.394 OA
ATOM     25  H   LIG    1       28.825 -13.198   3.894  0.00  0.00    +0.209 HD
ENDBRANCH  23  24
ENDBRANCH  22  23
ENDBRANCH  19  22
ENDBRANCH  18  19
ENDBRANCH  17  18
ENDBRANCH  16  17
ENDBRANCH  14  16
ENDBRANCH   1  14
TORSDOF 10
ENDMDL
MODEL 3
REMARK VINA RESULT:      -4.8      1.343      1.894
REMARK  Name = *****
REMARK                            x       y       z     vdW  Elec       q    Type
REMARK                         _______ _______ _______ _____ _____    ______ ____
ROOT
ATOM      1  N   LIG    1       27.293 -19.878   4.564  0.00  0.00    -0.341 N 
ATOM      2  H   LIG    1       27.080 -19.498   3.649  0.00  0.00    +0.146 HD
ENDROOT
BRANCH   1   3
ATOM      3  C   LIG    1       26.146 -20.263   5.303  0.00  0.00    +0.038 A 
ATOM      4  C   LIG    1       24.825 -19.876   4.903  0.00  0.00    +0.021 A 
ATOM      5  C   LIG    1       23.729 -20.336   5.674  0.00  0.00    +0.074 A 
ATOM      6  C   LIG    1       22.434 -19.962   5.349  0.00  0.00    +0.048 A 
ATOM      7  C   LIG    1       22.181 -19.137   4.250  0.00  0.00    +0.043 A 
ATOM      8  C   LIG    1       23.223 -18.692   3.464  0.00  0.00    +0.021 A 
ATOM      9 CL   LIG    1       20.568 -18.673   3.872  0.00  0.00    -0.084 Cl
ATOM     10  N   LIG    1       23.877 -21.138   6.736  0.00  0.00    -0.255 NA
ATOM     11  C   LIG    1       25.109 -21.538   7.060  0.00  0.00    +0.113 A 
ATOM     12  C   LIG    1       24.534 -19.057   3.776  0.00  0.00    +0.013 A 
ATOM     13  C   LIG    1       26.254 -21.135   6.402  0.00  0.00    +0.043 A 
ENDBRANCH   1   3
BRANCH   1  14
ATOM     14  C   LIG    1       28.461 -19.229   5.180  0.00  0.00    +0.067 C 
ATOM     15  C   LIG    1       28.454 -19.518   6.690  0.00  0.00    +0.027 C 
BRANCH  14  16
ATOM     16  C   LIG    1       28.400 -17.700   4.985  0.00  0.00    +0.023 C 
BRANCH  16  17
ATOM     17  C   LIG    1       27.300 -17.229   4.030  0.00  0.00    +0.017 C 
BRANCH  17  18
ATOM     18  C   LIG    1       27.438 -15.739   3.641  0.00  0.00    +0.084 C 
BRANCH  18  19
ATOM     19  N   LIG    1       26.343 -14.855   4.066  0.00  0.00    -0.300 NA
BRANCH  19  21
ATOM     20  C   LIG    1       28.107 -13.062   4.526  0.00  0.00    +0.020 C 
ATOM     21  C   LIG    1       26.764 -13.695   4.872  0.00  0.00    +0.081 C 
ENDBRANCH  19  21
BRANCH  19  22
ATOM     22  C   LIG    1       25.418 -14.424   2.990  0.00  0.00    +0.112 C 
BRANCH  22  23
ATOM     23  C   LIG    1       24.090 -13.738   3.379  0.00  0.00    +0.171 C 
BRANCH  23  24
ATOM     24  O   LIG    1       23.849 -12.532   2.669  0.00  0.00    -0.394 OA
ATOM     25  H   LIG    1       23.387 -11.931   3.276  0.00  0.00    +0.209 HD
ENDBRANCH  23  24
ENDBRANCH  22  23
ENDBRANCH  19  22
ENDBRANCH  18  19
ENDBRANCH  17  18
ENDBRANCH  16  17
ENDBRANCH  14  16
ENDBRANCH   1  14
TORSDOF 10
ENDMDL
MODEL 4
REMARK VINA RESULT:      -3.6      2.748      6.209
REMARK  Name = *****
REMARK                            x       y       z     vdW  Elec       q    Type
REMARK                         _______ _______ _______ _____ _____    ______ ____
ROOT
ATOM      1  N   LIG    1       24.093 -18.283   4.347  0.00  0.00    -0.341 N 
ATOM      2  H   LIG    1       23.756 -18.158   5.295  0.00  0.00    +0.146 HD
ENDROOT
BRANCH   1   3
ATOM      3  C   LIG    1       25.005 -17.281   3.930  0.00  0.00    +0.038 A 
ATOM      4  C   LIG    1       24.652 -15.892   3.928  0.00  0.00    +0.021 A 
ATOM      5  C   LIG    1       25.634 -14.950   3.535  0.00  0.00    +0.074 A 
ATOM      6  C   LIG    1       25.331 -13.597   3.483  0.00  0.00    +0.048 A 
ATOM      7  C   LIG    1       24.060 -13.135   3.829  0.00  0.00    +0.043 A 
ATOM      8  C   LIG    1       23.089 -14.022   4.241  0.00  0.00    +0.021 A 
ATOM      9 CL   LIG    1       23.701 -11.454   3.745  0.00  0.00    -0.084 Cl
ATOM     10  N   LIG    1       26.881 -15.303   3.197  0.00  0.00    -0.255 NA
ATOM     11  C   LIG    1       27.212 -16.595   3.262  0.00  0.00    +0.113 A 
ATOM     12  C   LIG    1       23.373 -15.387   4.297  0.00  0.00    +0.013 A 
ATOM     13  C   LIG    1       26.335 -17.605   3.604  0.00  0.00    +0.043 A 
ENDBRANCH   1   3
BRANCH   1  14
ATOM     14  C   LIG    1       23.067 -18.850   3.459  0.00  0.00    +0.067 C 
ATOM     15  C   LIG    1       21.682 -18.624   4.087  0.00  0.00    +0.027 C 
BRANCH  14  16
ATOM     16  C   LIG    1       23.273 -20.370   3.289  0.00  0.00    +0.023 C 
BRANCH  16  17
ATOM     17  C   LIG    1       24.726 -20.830   3.439  0.00  0.00    +0.017 C 
BRANCH  17  18
ATOM     18  C   LIG    1       25.000 -21.524   4.793  0.00  0.00    +0.084 C 
BRANCH  18  19
ATOM     19  N   LIG    1       25.426 -20.648   5.894  0.00  0.00    -0.300 NA
BRANCH  19  21
ATOM     20  C   LIG    1       23.143 -21.261   6.868  0.00  0.00    +0.020 C 
ATOM     21  C   LIG    1       24.519 -20.630   7.056  0.00  0.00    +0.081 C 
ENDBRANCH  19  21
BRANCH  19  22
ATOM     22  C   LIG    1       26.830 -20.822   6.342  0.00  0.00    +0.112 C 
BRANCH  22  23
ATOM     23  C   LIG    1       27.933 -19.961   5.688  0.00  0.00    +0.171 C 
BRANCH  23  24
ATOM     24  O   LIG    1       29.109 -19.859   6.477  0.00  0.00    -0.394 OA
ATOM     25  H   LIG    1       29.705 -20.572   6.195  0.00  0.00    +0.209 HD
ENDBRANCH  23  24
ENDBRANCH  22  23
ENDBRANCH  19  22
ENDBRANCH  18  19
ENDBRANCH  17  18
ENDBRANCH  16  17
ENDBRANCH  14  16
ENDBRANCH   1  14
TORSDOF 10
ENDMDL
MODEL 5
REMARK VINA RESULT:      -3.3      1.294      1.626
REMARK  Name = *****
REMARK                            x       y       z     vdW  Elec       q    Type
REMARK                         _______ _______ _______ _____ _____    ______ ____
ROOT
ATOM      1  N   LIG    1       27.385 -18.788   4.368  0.00  0.00    -0.341 N 
ATOM      2  H   LIG    1       26.751 -18.170   3.876  0.00  0.00    +0.146 HD
ENDROOT
BRANCH   1   3
ATOM      3  C   LIG    1       26.734 -19.689   5.249  0.00  0.00    +0.038 A 
ATOM      4  C   LIG    1       25.357 -20.048   5.080  0.00  0.00    +0.021 A 
ATOM      5  C   LIG    1       24.793 -20.986   5.978  0.00  0.00    +0.074 A 
ATOM      6  C   LIG    1       23.455 -21.340   5.878  0.00  0.00    +0.048 A 
ATOM      7  C   LIG    1       22.642 -20.792   4.884  0.00  0.00    +0.043 A 
ATOM      8  C   LIG    1       23.167 -19.896   3.977  0.00  0.00    +0.021 A 
ATOM      9 CL   LIG    1       20.983 -21.235   4.785  0.00  0.00    -0.084 Cl
ATOM     10  N   LIG    1       25.500 -21.569   6.955  0.00  0.00    -0.255 NA
ATOM     11  C   LIG    1       26.797 -21.269   7.062  0.00  0.00    +0.113 A 
ATOM     12  C   LIG    1       24.510 -19.525   4.063  0.00  0.00    +0.013 A 
ATOM     13  C   LIG    1       27.450 -20.352   6.263  0.00  0.00    +0.043 A 
ENDBRANCH   1   3
BRANCH   1  14
ATOM     14  C   LIG    1       28.663 -18.135   4.694  0.00  0.00    +0.067 C 
ATOM     15  C   LIG    1       29.053 -18.492   6.137  0.00  0.00    +0.027 C 
BRANCH  14  16
ATOM     16  C   LIG    1       28.530 -16.601   4.599  0.00  0.00    +0.023 C 
BRANCH  16  17
ATOM     17  C   LIG    1       27.147 -16.114   4.157  0.00  0.00    +0.017 C 
BRANCH  17  18
ATOM     18  C   LIG    1       27.212 -15.070   3.018  0.00  0.00    +0.084 C 
BRANCH  18  19
ATOM     19  N   LIG    1       26.755 -13.715   3.357  0.00  0.00    -0.300 NA
BRANCH  19  21
ATOM     20  C   LIG    1       24.274 -14.172   3.769  0.00  0.00    +0.020 C 
ATOM     21  C   LIG    1       25.614 -13.663   4.288  0.00  0.00    +0.081 C 
ENDBRANCH  19  21
BRANCH  19  22
ATOM     22  C   LIG    1       27.816 -12.774   3.791  0.00  0.00    +0.112 C 
BRANCH  22  23
ATOM     23  C   LIG    1       28.336 -12.855   5.243  0.00  0.00    +0.171 C 
BRANCH  23  24
ATOM     24  O   LIG    1       29.105 -11.727   5.631  0.00  0.00    -0.394 OA
ATOM     25  H   LIG    1       29.549 -11.957   6.464  0.00  0.00    +0.209 HD
ENDBRANCH  23  24
ENDBRANCH  22  23
ENDBRANCH  19  22
ENDBRANCH  18  19
ENDBRANCH  17  18
ENDBRANCH  16  17
ENDBRANCH  14  16
ENDBRANCH   1  14
TORSDOF 10
ENDMDL
