MODEL 1
REMARK VINA RESULT:      -5.2      0.000      0.000
REMARK  Name = *****
REMARK                            x       y       z     vdW  Elec       q    Type
REMARK                         _______ _______ _______ _____ _____    ______ ____
ROOT
ATOM      1  O   LIG    1       21.788 -31.333  11.217  0.00  0.00    -0.343 OA
ENDROOT
BRANCH   1   3
ATOM      2  C   LIG    1       22.819 -31.426  13.842  0.00  0.00    +0.188 C 
ATOM      3  C   LIG    1       21.977 -32.049  12.564  0.00  0.00    +0.157 C 
ATOM      4  C   LIG    1       20.618 -32.740  13.210  0.00  0.00    +0.028 C 
ATOM      5  C   LIG    1       19.626 -33.444  12.209  0.00  0.00    +0.012 C 
ATOM      6  C   LIG    1       18.294 -32.939  11.652  0.00  0.00    +0.019 C 
ATOM      7  C   LIG    1       17.067 -33.778  11.988  0.00  0.00    +0.010 C 
ATOM      8  C   LIG    1       17.873 -31.493  11.670  0.00  0.00    +0.140 C 
ATOM      9  C   LIG    1       18.260 -30.402  12.745  0.00  0.00    +0.004 C 
ATOM     10  C   LIG    1       19.409 -29.804  13.384  0.00  0.00    -0.002 C 
ATOM     11  C   LIG    1       19.973 -28.341  13.950  0.00  0.00    -0.004 C 
ATOM     12  C   LIG    1       21.139 -27.749  13.477  0.00  0.00    -0.023 C 
ATOM     13  C   LIG    1       21.867 -26.437  13.555  0.00  0.00    +0.071 C 
ATOM     14  C   LIG    1       23.395 -26.468  13.448  0.00  0.00    +0.177 C 
ATOM     15  C   LIG    1       23.975 -25.447  14.400  0.00  0.00    +0.052 C 
ATOM     16  O   LIG    1       23.978 -27.764  13.577  0.00  0.00    -0.461 OA
ATOM     17  C   LIG    1       23.644 -28.533  14.639  0.00  0.00    +0.311 C 
ATOM     18  O   LIG    1       22.814 -28.291  15.500  0.00  0.00    -0.251 OA
ATOM     19  C   LIG    1       24.546 -29.711  14.658  0.00  0.00    +0.168 C 
ATOM     20  C   LIG    1       24.255 -30.861  13.668  0.00  0.00    +0.218 C 
BRANCH   8  21
ATOM     21  O   LIG    1       16.414 -31.334  11.418  0.00  0.00    -0.388 OA
ATOM     22  H   LIG    1       15.952 -32.199  11.417  0.00  0.00    +0.210 HD
ENDBRANCH   8  21
BRANCH   2  24
ATOM     23  C   LIG    1       23.598 -33.621  14.758  0.00  0.00    +0.194 C 
ATOM     24  O   LIG    1       22.865 -32.402  14.940  0.00  0.00    -0.373 OA
ENDBRANCH   2  24
BRANCH   4  25
ATOM     25  C   LIG    1       20.106 -32.436  14.605  0.00  0.00    +0.077 C 
BRANCH  25  26
ATOM     26  C   LIG    1       18.937 -33.103  15.301  0.00  0.00    +0.223 C 
ATOM     27  O   LIG    1       17.904 -32.299  15.500  0.00  0.00    -0.301 OA
ENDBRANCH  25  26
ENDBRANCH   4  25
BRANCH  20  28
ATOM     28  O   LIG    1       25.334 -31.770  14.050  0.00  0.00    -0.458 OA
BRANCH  28  29
ATOM     29  C   LIG    1       26.626 -31.410  13.912  0.00  0.00    +0.304 C 
ATOM     30  O   LIG    1       27.087 -30.726  13.012  0.00  0.00    -0.251 OA
ATOM     31  C   LIG    1       27.385 -31.834  15.140  0.00  0.00    +0.136 C 
ENDBRANCH  28  29
ENDBRANCH  20  28
ENDBRANCH   1   3
BRANCH   1  32
ATOM     32  C   LIG    1       22.901 -30.725  10.420  0.00  0.00    +0.281 C 
ATOM     33  C   LIG    1       24.394 -30.793  10.863  0.00  0.00    +0.190 C 
ATOM     34  C   LIG    1       25.567 -31.172   9.603  0.00  0.00    +0.121 C 
ATOM     35  C   LIG    1       25.447 -30.276   8.308  0.00  0.00    +0.169 C 
ATOM     36  C   LIG    1       23.999 -30.437   8.032  0.00  0.00    +0.149 C 
ATOM     37  C   LIG    1       23.723 -30.354   6.297  0.00  0.00    +0.040 C 
ATOM     38  O   LIG    1       23.138 -31.240   9.099  0.00  0.00    -0.343 OA
BRANCH  34  39
ATOM     39  N   LIG    1       25.842 -32.603   9.060  0.00  0.00    -0.301 NA
ATOM     40  C   LIG    1       25.854 -33.678  10.042  0.00  0.00    +0.105 C 
ATOM     41  C   LIG    1       27.131 -32.767   8.422  0.00  0.00    +0.105 C 
ENDBRANCH  34  39
BRANCH  33  42
ATOM     42  O   LIG    1       24.704 -29.468  11.371  0.00  0.00    -0.385 OA
ATOM     43  H   LIG    1       25.545 -29.544  11.851  0.00  0.00    +0.210 HD
ENDBRANCH  33  42
BRANCH  35  44
ATOM     44  O   LIG    1       25.782 -28.822   8.368  0.00  0.00    -0.344 OA
BRANCH  44  45
ATOM     45  C   LIG    1       25.686 -28.074   7.076  0.00  0.00    +0.254 C 
ATOM     46  O   LIG    1       26.887 -27.362   6.847  0.00  0.00    -0.344 OA
ATOM     47  C   LIG    1       26.924 -26.398   5.790  0.00  0.00    +0.162 C 
ATOM     48  C   LIG    1       27.128 -26.961   4.376  0.00  0.00    +0.042 C 
ATOM     49  C   LIG    1       25.757 -25.401   5.891  0.00  0.00    +0.236 C 
ATOM     50  C   LIG    1       24.407 -26.147   5.890  0.00  0.00    +0.107 C 
ATOM     51  C   LIG    1       23.953 -26.793   4.589  0.00  0.00    +0.045 C 
ATOM     52  C   LIG    1       24.410 -27.206   6.960  0.00  0.00    +0.099 C 
BRANCH  50  53
ATOM     53  O   LIG    1       23.298 -25.284   6.146  0.00  0.00    -0.385 OA
ATOM     54  H   LIG    1       23.404 -24.458   5.627  0.00  0.00    +0.210 HD
ENDBRANCH  50  53
BRANCH  49  55
ATOM     55  O   LIG    1       25.947 -24.692   7.165  0.00  0.00    -0.456 OA
BRANCH  55  56
ATOM     56  C   LIG    1       25.889 -23.334   7.161  0.00  0.00    +0.308 C 
ATOM     57  O   LIG    1       26.446 -22.631   8.000  0.00  0.00    -0.251 OA
BRANCH  56  58
ATOM     58  C   LIG    1       25.227 -22.786   5.906  0.00  0.00    +0.123 C 
BRANCH  58  59
ATOM     59  C   LIG    1       24.824 -21.304   6.024  0.00  0.00    -0.007 C 
ATOM     60  C   LIG    1       23.399 -21.088   5.546  0.00  0.00    +0.007 C 
ATOM     61  C   LIG    1       25.848 -20.382   5.344  0.00  0.00    +0.007 C 
ENDBRANCH  58  59
ENDBRANCH  56  58
ENDBRANCH  55  56
ENDBRANCH  49  55
ENDBRANCH  44  45
ENDBRANCH  35  44
ENDBRANCH   1  32
TORSDOF 17
ENDMDL
MODEL 2
REMARK VINA RESULT:      -4.5      2.674      6.196
REMARK  Name = *****
REMARK                            x       y       z     vdW  Elec       q    Type
REMARK                         _______ _______ _______ _____ _____    ______ ____
ROOT
ATOM      1  O   LIG    1       24.507 -29.094   8.781  0.00  0.00    -0.343 OA
ENDROOT
BRANCH   1   3
ATOM      2  C   LIG    1       25.029 -30.343  11.257  0.00  0.00    +0.188 C 
ATOM      3  C   LIG    1       25.389 -29.966   9.689  0.00  0.00    +0.157 C 
ATOM      4  C   LIG    1       25.970 -31.359   9.010  0.00  0.00    +0.028 C 
ATOM      5  C   LIG    1       26.422 -31.288   7.502  0.00  0.00    +0.012 C 
ATOM      6  C   LIG    1       25.690 -31.771   6.249  0.00  0.00    +0.019 C 
ATOM      7  C   LIG    1       26.398 -32.847   5.434  0.00  0.00    +0.010 C 
ATOM      8  C   LIG    1       24.215 -32.064   6.201  0.00  0.00    +0.140 C 
ATOM      9  C   LIG    1       23.311 -32.596   7.383  0.00  0.00    +0.004 C 
ATOM     10  C   LIG    1       22.941 -32.294   8.746  0.00  0.00    -0.002 C 
ATOM     11  C   LIG    1       21.636 -32.330   9.783  0.00  0.00    -0.004 C 
ATOM     12  C   LIG    1       21.149 -31.194  10.420  0.00  0.00    -0.023 C 
ATOM     13  C   LIG    1       19.958 -30.759  11.227  0.00  0.00    +0.071 C 
ATOM     14  C   LIG    1       20.173 -29.651  12.264  0.00  0.00    +0.177 C 
ATOM     15  C   LIG    1       19.349 -29.963  13.493  0.00  0.00    +0.052 C 
ATOM     16  O   LIG    1       21.539 -29.358  12.552  0.00  0.00    -0.461 OA
ATOM     17  C   LIG    1       22.374 -30.370  12.882  0.00  0.00    +0.311 C 
ATOM     18  O   LIG    1       22.127 -31.565  12.890  0.00  0.00    -0.251 OA
ATOM     19  C   LIG    1       23.653 -29.780  13.350  0.00  0.00    +0.168 C 
ATOM     20  C   LIG    1       24.636 -29.246  12.285  0.00  0.00    +0.218 C 
BRANCH   8  21
ATOM     21  O   LIG    1       23.842 -32.859   4.999  0.00  0.00    -0.388 OA
ATOM     22  H   LIG    1       24.564 -32.867   4.334  0.00  0.00    +0.210 HD
ENDBRANCH   8  21
BRANCH   2  24
ATOM     23  C   LIG    1       25.819 -32.052  12.906  0.00  0.00    +0.194 C 
ATOM     24  O   LIG    1       26.120 -31.126  11.852  0.00  0.00    -0.373 OA
ENDBRANCH   2  24
BRANCH   4  25
ATOM     25  C   LIG    1       25.762 -32.735   9.614  0.00  0.00    +0.077 C 
BRANCH  25  26
ATOM     26  C   LIG    1       26.805 -33.824   9.754  0.00  0.00    +0.223 C 
ATOM     27  O   LIG    1       27.961 -33.534   9.177  0.00  0.00    -0.301 OA
ENDBRANCH  25  26
ENDBRANCH   4  25
BRANCH  20  28
ATOM     28  O   LIG    1       25.713 -28.804  13.169  0.00  0.00    -0.458 OA
BRANCH  28  29
ATOM     29  C   LIG    1       26.159 -27.532  13.137  0.00  0.00    +0.304 C 
ATOM     30  O   LIG    1       26.292 -26.796  14.101  0.00  0.00    -0.251 OA
ATOM     31  C   LIG    1       26.637 -27.217  11.746  0.00  0.00    +0.136 C 
ENDBRANCH  28  29
ENDBRANCH  20  28
ENDBRANCH   1   3
BRANCH   1  32
ATOM     32  C   LIG    1       24.973 -27.847   8.095  0.00  0.00    +0.281 C 
ATOM     33  C   LIG    1       26.197 -27.818   7.130  0.00  0.00    +0.190 C 
ATOM     34  C   LIG    1       25.999 -26.898   5.641  0.00  0.00    +0.121 C 
ATOM     35  C   LIG    1       25.465 -25.426   5.850  0.00  0.00    +0.169 C 
ATOM     36  C   LIG    1       24.281 -25.712   6.696  0.00  0.00    +0.149 C 
ATOM     37  C   LIG    1       23.029 -24.520   6.371  0.00  0.00    +0.040 C 
ATOM     38  O   LIG    1       24.072 -27.214   7.171  0.00  0.00    -0.343 OA
BRANCH  34  39
ATOM     39  N   LIG    1       25.239 -27.411   4.385  0.00  0.00    -0.301 NA
ATOM     40  C   LIG    1       25.094 -28.854   4.259  0.00  0.00    +0.105 C 
ATOM     41  C   LIG    1       25.858 -27.063   3.123  0.00  0.00    +0.105 C 
ENDBRANCH  34  39
BRANCH  33  42
ATOM     42  O   LIG    1       27.271 -27.203   7.890  0.00  0.00    -0.385 OA
ATOM     43  H   LIG    1       27.831 -26.734   7.250  0.00  0.00    +0.210 HD
ENDBRANCH  33  42
BRANCH  35  44
ATOM     44  O   LIG    1       26.322 -24.405   6.523  0.00  0.00    -0.344 OA
BRANCH  44  45
ATOM     45  C   LIG    1       25.738 -23.032   6.637  0.00  0.00    +0.254 C 
ATOM     46  O   LIG    1       25.998 -22.305   5.451  0.00  0.00    -0.344 OA
ATOM     47  C   LIG    1       25.733 -20.899   5.436  0.00  0.00    +0.162 C 
ATOM     48  C   LIG    1       24.267 -20.495   5.223  0.00  0.00    +0.042 C 
ATOM     49  C   LIG    1       26.400 -20.184   6.623  0.00  0.00    +0.236 C 
ATOM     50  C   LIG    1       25.936 -20.803   7.957  0.00  0.00    +0.107 C 
ATOM     51  C   LIG    1       24.503 -20.543   8.400  0.00  0.00    +0.045 C 
ATOM     52  C   LIG    1       26.154 -22.292   7.931  0.00  0.00    +0.099 C 
BRANCH  50  53
ATOM     53  O   LIG    1       26.647 -20.286   9.084  0.00  0.00    -0.385 OA
ATOM     54  H   LIG    1       26.513 -20.881   9.852  0.00  0.00    +0.210 HD
ENDBRANCH  50  53
BRANCH  49  55
ATOM     55  O   LIG    1       27.847 -20.380   6.446  0.00  0.00    -0.456 OA
BRANCH  55  56
ATOM     56  C   LIG    1       28.568 -19.378   5.877  0.00  0.00    +0.308 C 
ATOM     57  O   LIG    1       28.134 -18.656   4.985  0.00  0.00    -0.251 OA
BRANCH  56  58
ATOM     58  C   LIG    1       29.886 -19.132   6.596  0.00  0.00    +0.123 C 
BRANCH  58  59
ATOM     59  C   LIG    1       29.808 -19.370   8.116  0.00  0.00    -0.007 C 
ATOM     60  C   LIG    1       30.127 -18.100   8.883  0.00  0.00    +0.007 C 
ATOM     61  C   LIG    1       30.657 -20.577   8.544  0.00  0.00    +0.007 C 
ENDBRANCH  58  59
ENDBRANCH  56  58
ENDBRANCH  55  56
ENDBRANCH  49  55
ENDBRANCH  44  45
ENDBRANCH  35  44
ENDBRANCH   1  32
TORSDOF 17
ENDMDL
MODEL 3
REMARK VINA RESULT:      -3.9      1.966      2.668
REMARK  Name = *****
REMARK                            x       y       z     vdW  Elec       q    Type
REMARK                         _______ _______ _______ _____ _____    ______ ____
ROOT
ATOM      1  O   LIG    1       23.142 -30.099  10.119  0.00  0.00    -0.343 OA
ENDROOT
BRANCH   1   3
ATOM      2  C   LIG    1       24.484 -30.735  12.518  0.00  0.00    +0.188 C 
ATOM      3  C   LIG    1       23.653 -31.124  11.144  0.00  0.00    +0.157 C 
ATOM      4  C   LIG    1       22.578 -32.304  11.583  0.00  0.00    +0.028 C 
ATOM      5  C   LIG    1       21.654 -32.891  10.448  0.00  0.00    +0.012 C 
ATOM      6  C   LIG    1       20.184 -32.595  10.148  0.00  0.00    +0.019 C 
ATOM      7  C   LIG    1       19.231 -33.780  10.239  0.00  0.00    +0.010 C 
ATOM      8  C   LIG    1       19.452 -31.384  10.661  0.00  0.00    +0.140 C 
ATOM      9  C   LIG    1       19.712 -30.619  12.020  0.00  0.00    +0.004 C 
ATOM     10  C   LIG    1       20.765 -29.976  12.770  0.00  0.00    -0.002 C 
ATOM     11  C   LIG    1       21.047 -28.668  13.764  0.00  0.00    -0.004 C 
ATOM     12  C   LIG    1       21.982 -27.682  13.464  0.00  0.00    -0.023 C 
ATOM     13  C   LIG    1       22.397 -26.319  13.940  0.00  0.00    +0.071 C 
ATOM     14  C   LIG    1       23.867 -25.925  13.764  0.00  0.00    +0.177 C 
ATOM     15  C   LIG    1       24.313 -25.137  14.974  0.00  0.00    +0.052 C 
ATOM     16  O   LIG    1       24.740 -27.003  13.431  0.00  0.00    -0.461 OA
ATOM     17  C   LIG    1       24.723 -28.122  14.192  0.00  0.00    +0.311 C 
ATOM     18  O   LIG    1       23.973 -28.379  15.119  0.00  0.00    -0.251 OA
ATOM     19  C   LIG    1       25.864 -28.977  13.781  0.00  0.00    +0.168 C 
ATOM     20  C   LIG    1       25.722 -29.797  12.479  0.00  0.00    +0.218 C 
BRANCH   8  21
ATOM     21  O   LIG    1       17.975 -31.531  10.540  0.00  0.00    -0.388 OA
ATOM     22  H   LIG    1       17.551 -30.692  10.262  0.00  0.00    +0.210 HD
ENDBRANCH   8  21
BRANCH   2  24
ATOM     23  C   LIG    1       24.897 -31.958  14.662  0.00  0.00    +0.194 C 
ATOM     24  O   LIG    1       24.886 -31.957  13.228  0.00  0.00    -0.373 OA
ENDBRANCH   2  24
BRANCH   4  25
ATOM     25  C   LIG    1       22.186 -32.588  13.020  0.00  0.00    +0.077 C 
BRANCH  25  26
ATOM     26  C   LIG    1       21.475 -33.823  13.533  0.00  0.00    +0.223 C 
ATOM     27  O   LIG    1       20.171 -33.664  13.688  0.00  0.00    -0.301 OA
ENDBRANCH  25  26
ENDBRANCH   4  25
BRANCH  20  28
ATOM     28  O   LIG    1       27.018 -30.473  12.492  0.00  0.00    -0.458 OA
BRANCH  28  29
ATOM     29  C   LIG    1       28.150 -29.807  12.191  0.00  0.00    +0.304 C 
ATOM     30  O   LIG    1       28.411 -29.283  11.120  0.00  0.00    -0.251 OA
ATOM     31  C   LIG    1       28.973 -29.654  13.441  0.00  0.00    +0.136 C 
ENDBRANCH  28  29
ENDBRANCH  20  28
ENDBRANCH   1   3
BRANCH   1  32
ATOM     32  C   LIG    1       24.007 -29.410   9.109  0.00  0.00    +0.281 C 
ATOM     33  C   LIG    1       25.524 -29.725   8.938  0.00  0.00    +0.190 C 
ATOM     34  C   LIG    1       26.111 -29.871   7.283  0.00  0.00    +0.121 C 
ATOM     35  C   LIG    1       25.720 -28.664   6.343  0.00  0.00    +0.169 C 
ATOM     36  C   LIG    1       24.260 -28.617   6.600  0.00  0.00    +0.149 C 
ATOM     37  C   LIG    1       23.430 -28.064   5.150  0.00  0.00    +0.040 C 
ATOM     38  O   LIG    1       23.685 -29.586   7.719  0.00  0.00    -0.343 OA
BRANCH  34  39
ATOM     39  N   LIG    1       25.925 -31.132   6.394  0.00  0.00    -0.301 NA
ATOM     40  C   LIG    1       26.939 -32.170   6.517  0.00  0.00    +0.105 C 
ATOM     41  C   LIG    1       25.938 -30.872   4.970  0.00  0.00    +0.105 C 
ENDBRANCH  34  39
BRANCH  33  42
ATOM     42  O   LIG    1       26.220 -28.610   9.557  0.00  0.00    -0.385 OA
ATOM     43  H   LIG    1       26.862 -28.286   8.904  0.00  0.00    +0.210 HD
ENDBRANCH  33  42
BRANCH  35  44
ATOM     44  O   LIG    1       26.310 -27.312   6.573  0.00  0.00    -0.344 OA
BRANCH  44  45
ATOM     45  C   LIG    1       25.457 -26.150   6.173  0.00  0.00    +0.254 C 
ATOM     46  O   LIG    1       26.116 -25.398   5.171  0.00  0.00    -0.344 OA
ATOM     47  C   LIG    1       25.586 -24.119   4.812  0.00  0.00    +0.162 C 
ATOM     48  C   LIG    1       24.390 -24.134   3.848  0.00  0.00    +0.042 C 
ATOM     49  C   LIG    1       25.366 -23.229   6.047  0.00  0.00    +0.236 C 
ATOM     50  C   LIG    1       24.436 -23.930   7.059  0.00  0.00    +0.107 C 
ATOM     51  C   LIG    1       22.965 -24.065   6.696  0.00  0.00    +0.045 C 
ATOM     52  C   LIG    1       24.968 -25.302   7.373  0.00  0.00    +0.099 C 
BRANCH  50  53
ATOM     53  O   LIG    1       24.329 -23.220   8.294  0.00  0.00    -0.385 OA
ATOM     54  H   LIG    1       25.036 -23.522   8.904  0.00  0.00    +0.210 HD
ENDBRANCH  50  53
BRANCH  49  55
ATOM     55  O   LIG    1       26.698 -23.025   6.634  0.00  0.00    -0.456 OA
BRANCH  55  56
ATOM     56  C   LIG    1       27.005 -21.795   7.124  0.00  0.00    +0.308 C 
ATOM     57  O   LIG    1       26.195 -21.076   7.702  0.00  0.00    -0.251 OA
BRANCH  56  58
ATOM     58  C   LIG    1       28.494 -21.494   7.044  0.00  0.00    +0.123 C 
BRANCH  58  59
ATOM     59  C   LIG    1       28.827 -19.998   7.207  0.00  0.00    -0.007 C 
ATOM     60  C   LIG    1       28.872 -19.301   5.859  0.00  0.00    +0.007 C 
ATOM     61  C   LIG    1       30.091 -19.788   8.053  0.00  0.00    +0.007 C 
ENDBRANCH  58  59
ENDBRANCH  56  58
ENDBRANCH  55  56
ENDBRANCH  49  55
ENDBRANCH  44  45
ENDBRANCH  35  44
ENDBRANCH   1  32
TORSDOF 17
ENDMDL
MODEL 4
REMARK VINA RESULT:      -3.8      2.290      3.505
REMARK  Name = *****
REMARK                            x       y       z     vdW  Elec       q    Type
REMARK                         _______ _______ _______ _____ _____    ______ ____
ROOT
ATOM      1  O   LIG    1       23.295 -29.996   9.679  0.00  0.00    -0.343 OA
ENDROOT
BRANCH   1   3
ATOM      2  C   LIG    1       24.676 -30.675  12.043  0.00  0.00    +0.188 C 
ATOM      3  C   LIG    1       23.841 -31.040  10.664  0.00  0.00    +0.157 C 
ATOM      4  C   LIG    1       22.801 -32.261  11.074  0.00  0.00    +0.028 C 
ATOM      5  C   LIG    1       21.882 -32.834   9.930  0.00  0.00    +0.012 C 
ATOM      6  C   LIG    1       20.401 -32.566   9.653  0.00  0.00    +0.019 C 
ATOM      7  C   LIG    1       19.479 -33.778   9.714  0.00  0.00    +0.010 C 
ATOM      8  C   LIG    1       19.644 -31.392  10.212  0.00  0.00    +0.140 C 
ATOM      9  C   LIG    1       19.897 -30.665  11.592  0.00  0.00    +0.004 C 
ATOM     10  C   LIG    1       20.941 -30.020  12.354  0.00  0.00    -0.002 C 
ATOM     11  C   LIG    1       21.201 -28.738  13.387  0.00  0.00    -0.004 C 
ATOM     12  C   LIG    1       22.107 -27.719  13.111  0.00  0.00    -0.023 C 
ATOM     13  C   LIG    1       22.492 -26.362  13.628  0.00  0.00    +0.071 C 
ATOM     14  C   LIG    1       23.950 -25.925  13.451  0.00  0.00    +0.177 C 
ATOM     15  C   LIG    1       24.388 -25.165  14.682  0.00  0.00    +0.052 C 
ATOM     16  O   LIG    1       24.846 -26.969  13.075  0.00  0.00    -0.461 OA
ATOM     17  C   LIG    1       24.866 -28.112  13.799  0.00  0.00    +0.311 C 
ATOM     18  O   LIG    1       24.132 -28.418  14.725  0.00  0.00    -0.251 OA
ATOM     19  C   LIG    1       26.024 -28.924  13.350  0.00  0.00    +0.168 C 
ATOM     20  C   LIG    1       25.889 -29.705  12.024  0.00  0.00    +0.218 C 
BRANCH   8  21
ATOM     21  O   LIG    1       18.170 -31.573  10.099  0.00  0.00    -0.388 OA
ATOM     22  H   LIG    1       17.805 -32.044  10.878  0.00  0.00    +0.210 HD
ENDBRANCH   8  21
BRANCH   2  24
ATOM     23  C   LIG    1       25.095 -31.973  14.142  0.00  0.00    +0.194 C 
ATOM     24  O   LIG    1       25.116 -31.909  12.709  0.00  0.00    -0.373 OA
ENDBRANCH   2  24
BRANCH   4  25
ATOM     25  C   LIG    1       22.431 -32.601  12.506  0.00  0.00    +0.077 C 
BRANCH  25  26
ATOM     26  C   LIG    1       21.665 -33.822  12.972  0.00  0.00    +0.223 C 
ATOM     27  O   LIG    1       20.438 -33.556  13.390  0.00  0.00    -0.301 OA
ENDBRANCH  25  26
ENDBRANCH   4  25
BRANCH  20  28
ATOM     28  O   LIG    1       27.202 -30.347  12.002  0.00  0.00    -0.458 OA
BRANCH  28  29
ATOM     29  C   LIG    1       28.333 -29.614  11.995  0.00  0.00    +0.304 C 
ATOM     30  O   LIG    1       28.724 -28.910  11.077  0.00  0.00    -0.251 OA
ATOM     31  C   LIG    1       28.952 -29.658  13.365  0.00  0.00    +0.136 C 
ENDBRANCH  28  29
ENDBRANCH  20  28
ENDBRANCH   1   3
BRANCH   1  32
ATOM     32  C   LIG    1       24.141 -29.009   8.937  0.00  0.00    +0.281 C 
ATOM     33  C   LIG    1       25.669 -29.214   8.698  0.00  0.00    +0.190 C 
ATOM     34  C   LIG    1       26.266 -28.835   7.084  0.00  0.00    +0.121 C 
ATOM     35  C   LIG    1       25.841 -27.411   6.549  0.00  0.00    +0.169 C 
ATOM     36  C   LIG    1       24.379 -27.484   6.789  0.00  0.00    +0.149 C 
ATOM     37  C   LIG    1       23.539 -26.541   5.566  0.00  0.00    +0.040 C 
ATOM     38  O   LIG    1       23.831 -28.764   7.555  0.00  0.00    -0.343 OA
BRANCH  34  39
ATOM     39  N   LIG    1       26.121 -29.771   5.851  0.00  0.00    -0.301 NA
ATOM     40  C   LIG    1       25.477 -29.202   4.676  0.00  0.00    +0.105 C 
ATOM     41  C   LIG    1       25.322 -30.955   6.085  0.00  0.00    +0.105 C 
ENDBRANCH  34  39
BRANCH  33  42
ATOM     42  O   LIG    1       26.327 -28.321   9.634  0.00  0.00    -0.385 OA
ATOM     43  H   LIG    1       25.744 -28.248  10.407  0.00  0.00    +0.210 HD
ENDBRANCH  33  42
BRANCH  35  44
ATOM     44  O   LIG    1       26.388 -26.176   7.186  0.00  0.00    -0.344 OA
BRANCH  44  45
ATOM     45  C   LIG    1       25.644 -24.909   6.904  0.00  0.00    +0.254 C 
ATOM     46  O   LIG    1       26.163 -24.303   5.735  0.00  0.00    -0.344 OA
ATOM     47  C   LIG    1       25.756 -22.969   5.415  0.00  0.00    +0.162 C 
ATOM     48  C   LIG    1       24.385 -22.831   4.736  0.00  0.00    +0.042 C 
ATOM     49  C   LIG    1       25.950 -22.016   6.606  0.00  0.00    +0.236 C 
ATOM     50  C   LIG    1       25.180 -22.530   7.840  0.00  0.00    +0.107 C 
ATOM     51  C   LIG    1       23.661 -22.446   7.814  0.00  0.00    +0.045 C 
ATOM     52  C   LIG    1       25.565 -23.957   8.122  0.00  0.00    +0.099 C 
BRANCH  50  53
ATOM     53  O   LIG    1       25.457 -21.771   9.019  0.00  0.00    -0.385 OA
ATOM     54  H   LIG    1       25.961 -22.327   9.650  0.00  0.00    +0.210 HD
ENDBRANCH  50  53
BRANCH  49  55
ATOM     55  O   LIG    1       27.395 -22.002   6.876  0.00  0.00    -0.456 OA
BRANCH  55  56
ATOM     56  C   LIG    1       28.061 -20.823   6.757  0.00  0.00    +0.308 C 
ATOM     57  O   LIG    1       27.881 -20.035   5.832  0.00  0.00    -0.251 OA
BRANCH  56  58
ATOM     58  C   LIG    1       28.903 -20.507   7.984  0.00  0.00    +0.123 C 
BRANCH  58  59
ATOM     59  C   LIG    1       30.419 -20.612   7.730  0.00  0.00    -0.007 C 
ATOM     60  C   LIG    1       31.110 -21.352   8.862  0.00  0.00    +0.007 C 
ATOM     61  C   LIG    1       31.038 -19.241   7.421  0.00  0.00    +0.007 C 
ENDBRANCH  58  59
ENDBRANCH  56  58
ENDBRANCH  55  56
ENDBRANCH  49  55
ENDBRANCH  44  45
ENDBRANCH  35  44
ENDBRANCH   1  32
TORSDOF 17
ENDMDL
MODEL 5
REMARK VINA RESULT:      -2.6      2.176      3.776
REMARK  Name = *****
REMARK                            x       y       z     vdW  Elec       q    Type
REMARK                         _______ _______ _______ _____ _____    ______ ____
ROOT
ATOM      1  O   LIG    1       24.010 -29.216   9.707  0.00  0.00    -0.343 OA
ENDROOT
BRANCH   1   3
ATOM      2  C   LIG    1       25.674 -30.017  11.840  0.00  0.00    +0.188 C 
ATOM      3  C   LIG    1       24.687 -30.310  10.548  0.00  0.00    +0.157 C 
ATOM      4  C   LIG    1       23.721 -31.579  10.994  0.00  0.00    +0.028 C 
ATOM      5  C   LIG    1       22.680 -32.096   9.930  0.00  0.00    +0.012 C 
ATOM      6  C   LIG    1       21.174 -31.845   9.849  0.00  0.00    +0.019 C 
ATOM      7  C   LIG    1       20.284 -33.079   9.937  0.00  0.00    +0.010 C 
ATOM      8  C   LIG    1       20.471 -30.727  10.573  0.00  0.00    +0.140 C 
ATOM      9  C   LIG    1       20.877 -30.087  11.959  0.00  0.00    +0.004 C 
ATOM     10  C   LIG    1       21.994 -29.470  12.634  0.00  0.00    -0.002 C 
ATOM     11  C   LIG    1       22.356 -28.253  13.714  0.00  0.00    -0.004 C 
ATOM     12  C   LIG    1       23.207 -27.198  13.402  0.00  0.00    -0.023 C 
ATOM     13  C   LIG    1       23.631 -25.869  13.962  0.00  0.00    +0.071 C 
ATOM     14  C   LIG    1       25.051 -25.388  13.643  0.00  0.00    +0.177 C 
ATOM     15  C   LIG    1       25.622 -24.701  14.863  0.00  0.00    +0.052 C 
ATOM     16  O   LIG    1       25.911 -26.384  13.094  0.00  0.00    -0.461 OA
ATOM     17  C   LIG    1       26.035 -27.571  13.731  0.00  0.00    +0.311 C 
ATOM     18  O   LIG    1       25.421 -27.954  14.714  0.00  0.00    -0.251 OA
ATOM     19  C   LIG    1       27.143 -28.326  13.095  0.00  0.00    +0.168 C 
ATOM     20  C   LIG    1       26.862 -29.020  11.743  0.00  0.00    +0.218 C 
BRANCH   8  21
ATOM     21  O   LIG    1       18.997 -30.935  10.623  0.00  0.00    -0.388 OA
ATOM     22  H   LIG    1       18.520 -30.092  10.779  0.00  0.00    +0.210 HD
ENDBRANCH   8  21
BRANCH   2  24
ATOM     23  C   LIG    1       26.116 -31.548  13.770  0.00  0.00    +0.194 C 
ATOM     24  O   LIG    1       26.209 -31.281  12.364  0.00  0.00    -0.373 OA
ENDBRANCH   2  24
BRANCH   4  25
ATOM     25  C   LIG    1       23.530 -32.021  12.433  0.00  0.00    +0.077 C 
BRANCH  25  26
ATOM     26  C   LIG    1       22.937 -33.334  12.900  0.00  0.00    +0.223 C 
ATOM     27  O   LIG    1       21.664 -33.250  13.253  0.00  0.00    -0.301 OA
ENDBRANCH  25  26
ENDBRANCH   4  25
BRANCH  20  28
ATOM     28  O   LIG    1       28.172 -29.630  11.523  0.00  0.00    -0.458 OA
BRANCH  28  29
ATOM     29  C   LIG    1       29.067 -29.731  12.526  0.00  0.00    +0.304 C 
ATOM     30  O   LIG    1       28.862 -30.228  13.622  0.00  0.00    -0.251 OA
ATOM     31  C   LIG    1       30.416 -29.294  12.023  0.00  0.00    +0.136 C 
ENDBRANCH  28  29
ENDBRANCH  20  28
ENDBRANCH   1   3
BRANCH   1  32
ATOM     32  C   LIG    1       24.700 -28.422   8.641  0.00  0.00    +0.281 C 
ATOM     33  C   LIG    1       26.137 -28.752   8.136  0.00  0.00    +0.190 C 
ATOM     34  C   LIG    1       26.387 -28.692   6.392  0.00  0.00    +0.121 C 
ATOM     35  C   LIG    1       25.885 -27.361   5.706  0.00  0.00    +0.169 C 
ATOM     36  C   LIG    1       24.507 -27.309   6.250  0.00  0.00    +0.149 C 
ATOM     37  C   LIG    1       23.444 -26.546   5.074  0.00  0.00    +0.040 C 
ATOM     38  O   LIG    1       24.108 -28.403   7.331  0.00  0.00    -0.343 OA
BRANCH  34  39
ATOM     39  N   LIG    1       25.967 -29.819   5.406  0.00  0.00    -0.301 NA
ATOM     40  C   LIG    1       24.670 -29.668   4.762  0.00  0.00    +0.105 C 
ATOM     41  C   LIG    1       25.851 -31.131   6.006  0.00  0.00    +0.105 C 
ENDBRANCH  34  39
BRANCH  33  42
ATOM     42  O   LIG    1       26.996 -27.748   8.739  0.00  0.00    -0.385 OA
ATOM     43  H   LIG    1       26.889 -27.832   9.701  0.00  0.00    +0.210 HD
ENDBRANCH  33  42
BRANCH  35  44
ATOM     44  O   LIG    1       26.578 -26.068   5.983  0.00  0.00    -0.344 OA
BRANCH  44  45
ATOM     45  C   LIG    1       25.740 -24.996   6.606  0.00  0.00    +0.254 C 
ATOM     46  O   LIG    1       24.717 -24.610   5.708  0.00  0.00    -0.344 OA
ATOM     47  C   LIG    1       23.946 -23.442   6.007  0.00  0.00    +0.162 C 
ATOM     48  C   LIG    1       22.816 -23.627   7.030  0.00  0.00    +0.042 C 
ATOM     49  C   LIG    1       24.846 -22.229   6.300  0.00  0.00    +0.236 C 
ATOM     50  C   LIG    1       25.815 -22.542   7.457  0.00  0.00    +0.107 C 
ATOM     51  C   LIG    1       25.235 -22.652   8.860  0.00  0.00    +0.045 C 
ATOM     52  C   LIG    1       26.567 -23.812   7.162  0.00  0.00    +0.099 C 
BRANCH  50  53
ATOM     53  O   LIG    1       26.782 -21.511   7.663  0.00  0.00    -0.385 OA
ATOM     54  H   LIG    1       27.485 -21.841   8.262  0.00  0.00    +0.210 HD
ENDBRANCH  50  53
BRANCH  49  55
ATOM     55  O   LIG    1       25.596 -21.979   5.060  0.00  0.00    -0.456 OA
BRANCH  55  56
ATOM     56  C   LIG    1       25.620 -20.713   4.566  0.00  0.00    +0.308 C 
ATOM     57  O   LIG    1       26.484 -19.891   4.857  0.00  0.00    -0.251 OA
BRANCH  56  58
ATOM     58  C   LIG    1       24.579 -20.495   3.478  0.00  0.00    +0.123 C 
BRANCH  58  59
ATOM     59  C   LIG    1       23.486 -19.482   3.871  0.00  0.00    -0.007 C 
ATOM     60  C   LIG    1       24.018 -18.061   3.821  0.00  0.00    +0.007 C 
ATOM     61  C   LIG    1       22.831 -19.848   5.211  0.00  0.00    +0.007 C 
ENDBRANCH  58  59
ENDBRANCH  56  58
ENDBRANCH  55  56
ENDBRANCH  49  55
ENDBRANCH  44  45
ENDBRANCH  35  44
ENDBRANCH   1  32
TORSDOF 17
ENDMDL
