MODEL 1
REMARK VINA RESULT:      -8.0      0.000      0.000
REMARK  Name = *****
REMARK                            x       y       z     vdW  Elec       q    Type
REMARK                         _______ _______ _______ _____ _____    ______ ____
ROOT
ATOM      1  C   LIG    1       29.174 -20.055   6.797  0.00  0.00    +0.119 C 
ATOM      2  N   LIG    1       28.059 -20.073   7.770  0.00  0.00    -0.330 N 
ATOM      3  H   LIG    1       28.244 -20.452   8.697  0.00  0.00    +0.147 HD
ATOM      4  C   LIG    1       26.764 -20.368   7.326  0.00  0.00    +0.133 C 
ATOM      5  C   LIG    1       26.388 -20.364   6.023  0.00  0.00    +0.149 C 
ATOM      6  N   LIG    1       25.094 -20.563   5.608  0.00  0.00    -0.199 NA
ATOM      7  C   LIG    1       24.189 -20.792   6.502  0.00  0.00    +0.195 C 
ATOM      8  N   LIG    1       24.455 -20.866   7.828  0.00  0.00    -0.294 N 
ATOM      9  H   LIG    1       23.743 -21.142   8.482  0.00  0.00    +0.172 HD
ATOM     10  N   LIG    1       27.367 -20.129   5.059  0.00  0.00    -0.326 N 
ATOM     11  H   LIG    1       26.943 -19.810   4.194  0.00  0.00    +0.148 HD
ATOM     12  C   LIG    1       25.719 -20.736   8.327  0.00  0.00    +0.276 C 
ATOM     13  O   LIG    1       25.983 -20.924   9.507  0.00  0.00    -0.266 OA
ATOM     14  C   LIG    1       28.655 -19.523   5.421  0.00  0.00    +0.128 C 
ENDROOT
BRANCH   7  15
ATOM     15  N   LIG    1       22.894 -20.960   6.135  0.00  0.00    -0.329 N 
ATOM     16  H   LIG    1       22.356 -21.616   6.687  0.00  0.00    +0.145 HD
ATOM     17  H   LIG    1       22.422 -20.067   6.026  0.00  0.00    +0.145 HD
ENDBRANCH   7  15
BRANCH   1  18
ATOM     18  C   LIG    1       30.371 -19.254   7.397  0.00  0.00    +0.164 C 
BRANCH  18  20
ATOM     19  C   LIG    1       30.732 -17.420   9.127  0.00  0.00    +0.040 C 
ATOM     20  C   LIG    1       30.139 -18.802   8.852  0.00  0.00    +0.142 C 
BRANCH  20  21
ATOM     21  O   LIG    1       30.752 -19.727   9.754  0.00  0.00    -0.389 OA
ATOM     22  H   LIG    1       30.533 -19.427  10.655  0.00  0.00    +0.210 HD
ENDBRANCH  20  21
ENDBRANCH  18  20
BRANCH  18  23
ATOM     23  O   LIG    1       31.618 -19.970   7.343  0.00  0.00    -0.387 OA
ATOM     24  H   LIG    1       32.084 -19.717   6.529  0.00  0.00    +0.210 HD
ENDBRANCH  18  23
ENDBRANCH   1  18
TORSDOF 5
ENDMDL
MODEL 2
REMARK VINA RESULT:      -7.1      2.204      3.043
REMARK  Name = *****
REMARK                            x       y       z     vdW  Elec       q    Type
REMARK                         _______ _______ _______ _____ _____    ______ ____
ROOT
ATOM      1  C   LIG    1       27.854 -20.142   6.703  0.00  0.00    +0.119 C 
ATOM      2  N   LIG    1       27.171 -20.135   5.389  0.00  0.00    -0.330 N 
ATOM      3  H   LIG    1       27.466 -19.441   4.705  0.00  0.00    +0.147 HD
ATOM      4  C   LIG    1       25.795 -20.388   5.329  0.00  0.00    +0.133 C 
ATOM      5  C   LIG    1       25.075 -20.921   6.347  0.00  0.00    +0.149 C 
ATOM      6  N   LIG    1       23.746 -21.250   6.243  0.00  0.00    -0.199 NA
ATOM      7  C   LIG    1       23.140 -21.017   5.125  0.00  0.00    +0.195 C 
ATOM      8  N   LIG    1       23.744 -20.445   4.056  0.00  0.00    -0.294 N 
ATOM      9  H   LIG    1       23.215 -20.192   3.239  0.00  0.00    +0.172 HD
ATOM     10  N   LIG    1       25.727 -21.160   7.556  0.00  0.00    -0.326 N 
ATOM     11  H   LIG    1       25.219 -21.850   8.101  0.00  0.00    +0.148 HD
ATOM     12  C   LIG    1       25.046 -20.036   4.087  0.00  0.00    +0.276 C 
ATOM     13  O   LIG    1       25.560 -19.409   3.170  0.00  0.00    -0.266 OA
ATOM     14  C   LIG    1       27.193 -21.217   7.628  0.00  0.00    +0.128 C 
ENDROOT
BRANCH   7  15
ATOM     15  N   LIG    1       21.836 -21.359   4.970  0.00  0.00    -0.329 N 
ATOM     16  H   LIG    1       21.175 -20.594   4.949  0.00  0.00    +0.145 HD
ATOM     17  H   LIG    1       21.712 -22.001   4.192  0.00  0.00    +0.145 HD
ENDBRANCH   7  15
BRANCH   1  18
ATOM     18  C   LIG    1       29.389 -20.323   6.486  0.00  0.00    +0.164 C 
BRANCH  18  20
ATOM     19  C   LIG    1       30.127 -18.298   7.843  0.00  0.00    +0.040 C 
ATOM     20  C   LIG    1       30.170 -18.995   6.483  0.00  0.00    +0.142 C 
BRANCH  20  21
ATOM     21  O   LIG    1       29.608 -18.102   5.517  0.00  0.00    -0.389 OA
ATOM     22  H   LIG    1       30.290 -17.962   4.834  0.00  0.00    +0.210 HD
ENDBRANCH  20  21
ENDBRANCH  18  20
BRANCH  18  23
ATOM     23  O   LIG    1       29.999 -21.201   7.450  0.00  0.00    -0.387 OA
ATOM     24  H   LIG    1       30.735 -21.666   7.020  0.00  0.00    +0.210 HD
ENDBRANCH  18  23
ENDBRANCH   1  18
TORSDOF 5
ENDMDL
MODEL 3
REMARK VINA RESULT:      -7.0      2.855      5.986
REMARK  Name = *****
REMARK                            x       y       z     vdW  Elec       q    Type
REMARK                         _______ _______ _______ _____ _____    ______ ____
ROOT
ATOM      1  C   LIG    1       26.064 -21.264   5.770  0.00  0.00    +0.119 C 
ATOM      2  N   LIG    1       27.038 -20.149   5.762  0.00  0.00    -0.330 N 
ATOM      3  H   LIG    1       27.204 -19.669   4.879  0.00  0.00    +0.147 HD
ATOM      4  C   LIG    1       28.199 -20.245   6.538  0.00  0.00    +0.133 C 
ATOM      5  C   LIG    1       28.380 -21.157   7.526  0.00  0.00    +0.149 C 
ATOM      6  N   LIG    1       29.484 -21.180   8.342  0.00  0.00    -0.199 NA
ATOM      7  C   LIG    1       30.414 -20.304   8.144  0.00  0.00    +0.195 C 
ATOM      8  N   LIG    1       30.365 -19.375   7.160  0.00  0.00    -0.294 N 
ATOM      9  H   LIG    1       31.151 -18.776   6.977  0.00  0.00    +0.172 HD
ATOM     10  N   LIG    1       27.381 -22.108   7.730  0.00  0.00    -0.326 N 
ATOM     11  H   LIG    1       27.446 -22.494   8.667  0.00  0.00    +0.148 HD
ATOM     12  C   LIG    1       29.333 -19.312   6.268  0.00  0.00    +0.276 C 
ATOM     13  O   LIG    1       29.342 -18.558   5.304  0.00  0.00    -0.266 OA
ATOM     14  C   LIG    1       26.029 -21.914   7.192  0.00  0.00    +0.128 C 
ENDROOT
BRANCH   7  15
ATOM     15  N   LIG    1       31.505 -20.273   8.950  0.00  0.00    -0.329 N 
ATOM     16  H   LIG    1       31.613 -19.445   9.521  0.00  0.00    +0.145 HD
ATOM     17  H   LIG    1       31.591 -21.129   9.491  0.00  0.00    +0.145 HD
ENDBRANCH   7  15
BRANCH   1  18
ATOM     18  C   LIG    1       24.685 -20.750   5.252  0.00  0.00    +0.164 C 
BRANCH  18  20
ATOM     19  C   LIG    1       23.429 -19.054   3.826  0.00  0.00    +0.040 C 
ATOM     20  C   LIG    1       24.795 -19.521   4.328  0.00  0.00    +0.142 C 
BRANCH  20  21
ATOM     21  O   LIG    1       25.595 -19.841   3.186  0.00  0.00    -0.389 OA
ATOM     22  H   LIG    1       25.718 -20.809   3.194  0.00  0.00    +0.210 HD
ENDBRANCH  20  21
ENDBRANCH  18  20
BRANCH  18  23
ATOM     23  O   LIG    1       23.922 -21.760   4.568  0.00  0.00    -0.387 OA
ATOM     24  H   LIG    1       24.538 -22.357   4.114  0.00  0.00    +0.210 HD
ENDBRANCH  18  23
ENDBRANCH   1  18
TORSDOF 5
ENDMDL
MODEL 4
REMARK VINA RESULT:      -7.0      2.675      5.890
REMARK  Name = *****
REMARK                            x       y       z     vdW  Elec       q    Type
REMARK                         _______ _______ _______ _____ _____    ______ ____
ROOT
ATOM      1  C   LIG    1       25.235 -20.540   5.636  0.00  0.00    +0.119 C 
ATOM      2  N   LIG    1       26.182 -21.190   6.570  0.00  0.00    -0.330 N 
ATOM      3  H   LIG    1       25.813 -21.545   7.451  0.00  0.00    +0.147 HD
ATOM      4  C   LIG    1       27.476 -20.672   6.709  0.00  0.00    +0.133 C 
ATOM      5  C   LIG    1       28.036 -19.787   5.847  0.00  0.00    +0.149 C 
ATOM      6  N   LIG    1       29.338 -19.360   5.942  0.00  0.00    -0.199 NA
ATOM      7  C   LIG    1       30.062 -19.801   6.918  0.00  0.00    +0.195 C 
ATOM      8  N   LIG    1       29.596 -20.650   7.865  0.00  0.00    -0.294 N 
ATOM      9  H   LIG    1       30.160 -20.894   8.661  0.00  0.00    +0.172 HD
ATOM     10  N   LIG    1       27.251 -19.303   4.803  0.00  0.00    -0.326 N 
ATOM     11  H   LIG    1       27.838 -18.947   4.055  0.00  0.00    +0.148 HD
ATOM     12  C   LIG    1       28.302 -21.085   7.882  0.00  0.00    +0.276 C 
ATOM     13  O   LIG    1       27.844 -21.752   8.801  0.00  0.00    -0.266 OA
ATOM     14  C   LIG    1       26.019 -19.992   4.399  0.00  0.00    +0.128 C 
ENDROOT
BRANCH   7  15
ATOM     15  N   LIG    1       31.362 -19.428   7.028  0.00  0.00    -0.329 N 
ATOM     16  H   LIG    1       31.728 -19.360   7.968  0.00  0.00    +0.145 HD
ATOM     17  H   LIG    1       31.958 -19.983   6.420  0.00  0.00    +0.145 HD
ENDBRANCH   7  15
BRANCH   1  18
ATOM     18  C   LIG    1       24.084 -21.535   5.292  0.00  0.00    +0.164 C 
BRANCH  18  20
ATOM     19  C   LIG    1       22.564 -19.491   5.328  0.00  0.00    +0.040 C 
ATOM     20  C   LIG    1       22.842 -20.852   4.688  0.00  0.00    +0.142 C 
BRANCH  20  21
ATOM     21  O   LIG    1       21.688 -21.672   4.891  0.00  0.00    -0.389 OA
ATOM     22  H   LIG    1       21.826 -22.483   4.367  0.00  0.00    +0.210 HD
ENDBRANCH  20  21
ENDBRANCH  18  20
BRANCH  18  23
ATOM     23  O   LIG    1       24.492 -22.591   4.404  0.00  0.00    -0.387 OA
ATOM     24  H   LIG    1       23.880 -23.338   4.511  0.00  0.00    +0.210 HD
ENDBRANCH  18  23
ENDBRANCH   1  18
TORSDOF 5
ENDMDL
MODEL 5
REMARK VINA RESULT:      -6.9      2.505      6.195
REMARK  Name = *****
REMARK                            x       y       z     vdW  Elec       q    Type
REMARK                         _______ _______ _______ _____ _____    ______ ____
ROOT
ATOM      1  C   LIG    1       25.382 -21.339   6.935  0.00  0.00    +0.119 C 
ATOM      2  N   LIG    1       26.332 -20.289   6.504  0.00  0.00    -0.330 N 
ATOM      3  H   LIG    1       26.208 -19.888   5.576  0.00  0.00    +0.147 HD
ATOM      4  C   LIG    1       27.682 -20.396   6.858  0.00  0.00    +0.133 C 
ATOM      5  C   LIG    1       28.154 -21.240   7.809  0.00  0.00    +0.149 C 
ATOM      6  N   LIG    1       29.466 -21.268   8.213  0.00  0.00    -0.199 NA
ATOM      7  C   LIG    1       30.304 -20.468   7.640  0.00  0.00    +0.195 C 
ATOM      8  N   LIG    1       29.958 -19.615   6.647  0.00  0.00    -0.294 N 
ATOM      9  H   LIG    1       30.656 -19.079   6.161  0.00  0.00    +0.172 HD
ATOM     10  N   LIG    1       27.251 -22.111   8.418  0.00  0.00    -0.326 N 
ATOM     11  H   LIG    1       27.614 -22.428   9.311  0.00  0.00    +0.148 HD
ATOM     12  C   LIG    1       28.690 -19.557   6.145  0.00  0.00    +0.276 C 
ATOM     13  O   LIG    1       28.400 -18.879   5.167  0.00  0.00    -0.266 OA
ATOM     14  C   LIG    1       25.804 -21.876   8.342  0.00  0.00    +0.128 C 
ENDROOT
BRANCH   7  15
ATOM     15  N   LIG    1       31.602 -20.442   8.034  0.00  0.00    -0.329 N 
ATOM     16  H   LIG    1       32.006 -19.526   8.177  0.00  0.00    +0.145 HD
ATOM     17  H   LIG    1       31.762 -21.063   8.822  0.00  0.00    +0.145 HD
ENDBRANCH   7  15
BRANCH   1  18
ATOM     18  C   LIG    1       23.927 -20.783   6.857  0.00  0.00    +0.164 C 
BRANCH  18  20
ATOM     19  C   LIG    1       22.618 -19.556   5.049  0.00  0.00    +0.040 C 
ATOM     20  C   LIG    1       23.315 -20.858   5.445  0.00  0.00    +0.142 C 
BRANCH  20  21
ATOM     21  O   LIG    1       22.344 -21.907   5.390  0.00  0.00    -0.389 OA
ATOM     22  H   LIG    1       22.663 -22.614   5.981  0.00  0.00    +0.210 HD
ENDBRANCH  20  21
ENDBRANCH  18  20
BRANCH  18  23
ATOM     23  O   LIG    1       23.023 -21.426   7.774  0.00  0.00    -0.387 OA
ATOM     24  H   LIG    1       23.422 -21.417   8.659  0.00  0.00    +0.210 HD
ENDBRANCH  18  23
ENDBRANCH   1  18
TORSDOF 5
ENDMDL
MODEL 6
REMARK VINA RESULT:      -6.7      4.867      6.161
REMARK  Name = *****
REMARK                            x       y       z     vdW  Elec       q    Type
REMARK                         _______ _______ _______ _____ _____    ______ ____
ROOT
ATOM      1  C   LIG    1       25.420 -22.973   6.471  0.00  0.00    +0.119 C 
ATOM      2  N   LIG    1       26.227 -24.214   6.463  0.00  0.00    -0.330 N 
ATOM      3  H   LIG    1       27.193 -24.150   6.146  0.00  0.00    +0.147 HD
ATOM      4  C   LIG    1       25.626 -25.422   6.091  0.00  0.00    +0.133 C 
ATOM      5  C   LIG    1       24.286 -25.610   6.005  0.00  0.00    +0.149 C 
ATOM      6  N   LIG    1       23.707 -26.825   5.731  0.00  0.00    -0.199 NA
ATOM      7  C   LIG    1       24.478 -27.839   5.516  0.00  0.00    +0.195 C 
ATOM      8  N   LIG    1       25.831 -27.762   5.528  0.00  0.00    -0.294 N 
ATOM      9  H   LIG    1       26.395 -28.550   5.261  0.00  0.00    +0.172 HD
ATOM     10  N   LIG    1       23.455 -24.512   6.225  0.00  0.00    -0.326 N 
ATOM     11  H   LIG    1       22.521 -24.820   6.476  0.00  0.00    +0.148 HD
ATOM     12  C   LIG    1       26.492 -26.587   5.738  0.00  0.00    +0.276 C 
ATOM     13  O   LIG    1       27.707 -26.487   5.629  0.00  0.00    -0.266 OA
ATOM     14  C   LIG    1       23.955 -23.308   6.902  0.00  0.00    +0.128 C 
ENDROOT
BRANCH   7  15
ATOM     15  N   LIG    1       23.946 -29.064   5.274  0.00  0.00    -0.329 N 
ATOM     16  H   LIG    1       24.383 -29.602   4.539  0.00  0.00    +0.145 HD
ATOM     17  H   LIG    1       23.839 -29.596   6.133  0.00  0.00    +0.145 HD
ENDBRANCH   7  15
BRANCH   1  18
ATOM     18  C   LIG    1       26.131 -21.900   7.353  0.00  0.00    +0.164 C 
BRANCH  18  20
ATOM     19  C   LIG    1       25.653 -20.396   5.353  0.00  0.00    +0.040 C 
ATOM     20  C   LIG    1       26.546 -20.638   6.570  0.00  0.00    +0.142 C 
BRANCH  20  21
ATOM     21  O   LIG    1       27.891 -20.774   6.106  0.00  0.00    -0.389 OA
ATOM     22  H   LIG    1       27.970 -20.217   5.309  0.00  0.00    +0.210 HD
ENDBRANCH  20  21
ENDBRANCH  18  20
BRANCH  18  23
ATOM     23  O   LIG    1       25.348 -21.488   8.488  0.00  0.00    -0.387 OA
ATOM     24  H   LIG    1       25.315 -20.517   8.504  0.00  0.00    +0.210 HD
ENDBRANCH  18  23
ENDBRANCH   1  18
TORSDOF 5
ENDMDL
MODEL 7
REMARK VINA RESULT:      -6.7      5.402      6.478
REMARK  Name = *****
REMARK                            x       y       z     vdW  Elec       q    Type
REMARK                         _______ _______ _______ _____ _____    ______ ____
ROOT
ATOM      1  C   LIG    1       24.882 -23.265   5.930  0.00  0.00    +0.119 C 
ATOM      2  N   LIG    1       24.849 -22.408   4.724  0.00  0.00    -0.330 N 
ATOM      3  H   LIG    1       25.697 -22.342   4.165  0.00  0.00    +0.147 HD
ATOM      4  C   LIG    1       24.143 -21.199   4.759  0.00  0.00    +0.133 C 
ATOM      5  C   LIG    1       23.243 -20.872   5.720  0.00  0.00    +0.149 C 
ATOM      6  N   LIG    1       22.489 -19.725   5.692  0.00  0.00    -0.199 NA
ATOM      7  C   LIG    1       22.662 -18.898   4.714  0.00  0.00    +0.195 C 
ATOM      8  N   LIG    1       23.565 -19.095   3.723  0.00  0.00    -0.294 N 
ATOM      9  H   LIG    1       23.738 -18.384   3.034  0.00  0.00    +0.172 HD
ATOM     10  N   LIG    1       23.066 -21.759   6.781  0.00  0.00    -0.326 N 
ATOM     11  H   LIG    1       22.168 -21.602   7.227  0.00  0.00    +0.148 HD
ATOM     12  C   LIG    1       24.394 -20.179   3.698  0.00  0.00    +0.276 C 
ATOM     13  O   LIG    1       25.293 -20.300   2.876  0.00  0.00    -0.266 OA
ATOM     14  C   LIG    1       23.516 -23.154   6.685  0.00  0.00    +0.128 C 
ENDROOT
BRANCH   7  15
ATOM     15  N   LIG    1       21.913 -17.770   4.632  0.00  0.00    -0.329 N 
ATOM     16  H   LIG    1       22.140 -17.138   3.876  0.00  0.00    +0.145 HD
ATOM     17  H   LIG    1       20.920 -17.982   4.674  0.00  0.00    +0.145 HD
ENDBRANCH   7  15
BRANCH   1  18
ATOM     18  C   LIG    1       25.285 -24.716   5.521  0.00  0.00    +0.164 C 
BRANCH  18  20
ATOM     19  C   LIG    1       25.876 -26.724   6.973  0.00  0.00    +0.040 C 
ATOM     20  C   LIG    1       24.762 -25.795   6.489  0.00  0.00    +0.142 C 
BRANCH  20  21
ATOM     21  O   LIG    1       23.776 -26.599   5.836  0.00  0.00    -0.389 OA
ATOM     22  H   LIG    1       23.324 -26.021   5.194  0.00  0.00    +0.210 HD
ENDBRANCH  20  21
ENDBRANCH  18  20
BRANCH  18  23
ATOM     23  O   LIG    1       24.868 -25.068   4.189  0.00  0.00    -0.387 OA
ATOM     24  H   LIG    1       23.953 -24.769   4.063  0.00  0.00    +0.210 HD
ENDBRANCH  18  23
ENDBRANCH   1  18
TORSDOF 5
ENDMDL
MODEL 8
REMARK VINA RESULT:      -6.5      2.065      2.859
REMARK  Name = *****
REMARK                            x       y       z     vdW  Elec       q    Type
REMARK                         _______ _______ _______ _____ _____    ______ ____
ROOT
ATOM      1  C   LIG    1       27.538 -20.207   7.246  0.00  0.00    +0.119 C 
ATOM      2  N   LIG    1       26.696 -20.502   6.064  0.00  0.00    -0.330 N 
ATOM      3  H   LIG    1       26.615 -19.782   5.348  0.00  0.00    +0.147 HD
ATOM      4  C   LIG    1       25.507 -21.221   6.229  0.00  0.00    +0.133 C 
ATOM      5  C   LIG    1       25.191 -21.923   7.346  0.00  0.00    +0.149 C 
ATOM      6  N   LIG    1       24.065 -22.700   7.459  0.00  0.00    -0.199 NA
ATOM      7  C   LIG    1       23.246 -22.746   6.460  0.00  0.00    +0.195 C 
ATOM      8  N   LIG    1       23.432 -22.051   5.312  0.00  0.00    -0.294 N 
ATOM      9  H   LIG    1       22.726 -22.037   4.597  0.00  0.00    +0.172 HD
ATOM     10  N   LIG    1       26.069 -21.862   8.427  0.00  0.00    -0.326 N 
ATOM     11  H   LIG    1       25.930 -22.658   9.041  0.00  0.00    +0.148 HD
ATOM     12  C   LIG    1       24.494 -21.212   5.132  0.00  0.00    +0.276 C 
ATOM     13  O   LIG    1       24.602 -20.490   4.149  0.00  0.00    -0.266 OA
ATOM     14  C   LIG    1       27.452 -21.400   8.255  0.00  0.00    +0.128 C 
ENDROOT
BRANCH   7  15
ATOM     15  N   LIG    1       22.139 -23.529   6.519  0.00  0.00    -0.329 N 
ATOM     16  H   LIG    1       21.384 -23.280   5.894  0.00  0.00    +0.145 HD
ATOM     17  H   LIG    1       22.380 -24.514   6.463  0.00  0.00    +0.145 HD
ENDBRANCH   7  15
BRANCH   1  18
ATOM     18  C   LIG    1       28.982 -19.852   6.776  0.00  0.00    +0.164 C 
BRANCH  18  20
ATOM     19  C   LIG    1       30.109 -18.506   8.622  0.00  0.00    +0.040 C 
ATOM     20  C   LIG    1       30.019 -19.859   7.917  0.00  0.00    +0.142 C 
BRANCH  20  21
ATOM     21  O   LIG    1       31.314 -20.168   7.395  0.00  0.00    -0.389 OA
ATOM     22  H   LIG    1       31.237 -21.031   6.947  0.00  0.00    +0.210 HD
ENDBRANCH  20  21
ENDBRANCH  18  20
BRANCH  18  23
ATOM     23  O   LIG    1       29.465 -20.708   5.725  0.00  0.00    -0.387 OA
ATOM     24  H   LIG    1       28.704 -21.144   5.309  0.00  0.00    +0.210 HD
ENDBRANCH  18  23
ENDBRANCH   1  18
TORSDOF 5
ENDMDL
MODEL 9
REMARK VINA RESULT:      -6.3      4.440      6.396
REMARK  Name = *****
REMARK                            x       y       z     vdW  Elec       q    Type
REMARK                         _______ _______ _______ _____ _____    ______ ____
ROOT
ATOM      1  C   LIG    1       25.194 -24.955   6.830  0.00  0.00    +0.119 C 
ATOM      2  N   LIG    1       25.747 -23.693   6.287  0.00  0.00    -0.330 N 
ATOM      3  H   LIG    1       26.687 -23.425   6.573  0.00  0.00    +0.147 HD
ATOM      4  C   LIG    1       24.905 -22.586   6.130  0.00  0.00    +0.133 C 
ATOM      5  C   LIG    1       23.550 -22.649   6.167  0.00  0.00    +0.149 C 
ATOM      6  N   LIG    1       22.735 -21.572   5.918  0.00  0.00    -0.199 NA
ATOM      7  C   LIG    1       23.284 -20.431   5.660  0.00  0.00    +0.195 C 
ATOM      8  N   LIG    1       24.625 -20.237   5.641  0.00  0.00    -0.294 N 
ATOM      9  H   LIG    1       25.011 -19.316   5.532  0.00  0.00    +0.172 HD
ATOM     10  N   LIG    1       22.960 -23.878   6.458  0.00  0.00    -0.326 N 
ATOM     11  H   LIG    1       22.000 -23.896   6.128  0.00  0.00    +0.148 HD
ATOM     12  C   LIG    1       25.510 -21.236   5.929  0.00  0.00    +0.276 C 
ATOM     13  O   LIG    1       26.713 -21.038   6.035  0.00  0.00    -0.266 OA
ATOM     14  C   LIG    1       23.719 -25.129   6.341  0.00  0.00    +0.128 C 
ENDROOT
BRANCH   7  15
ATOM     15  N   LIG    1       22.514 -19.351   5.375  0.00  0.00    -0.329 N 
ATOM     16  H   LIG    1       21.736 -19.182   5.998  0.00  0.00    +0.145 HD
ATOM     17  H   LIG    1       23.081 -18.521   5.229  0.00  0.00    +0.145 HD
ENDBRANCH   7  15
BRANCH   1  18
ATOM     18  C   LIG    1       26.147 -26.135   6.466  0.00  0.00    +0.164 C 
BRANCH  18  20
ATOM     19  C   LIG    1       26.259 -27.978   8.221  0.00  0.00    +0.040 C 
ATOM     20  C   LIG    1       25.618 -27.512   6.913  0.00  0.00    +0.142 C 
BRANCH  20  21
ATOM     21  O   LIG    1       25.906 -28.493   5.913  0.00  0.00    -0.389 OA
ATOM     22  H   LIG    1       25.632 -29.354   6.278  0.00  0.00    +0.210 HD
ENDBRANCH  20  21
ENDBRANCH  18  20
BRANCH  18  23
ATOM     23  O   LIG    1       26.453 -26.206   5.061  0.00  0.00    -0.387 OA
ATOM     24  H   LIG    1       25.800 -26.783   4.632  0.00  0.00    +0.210 HD
ENDBRANCH  18  23
ENDBRANCH   1  18
TORSDOF 5
ENDMDL
