MODEL 1
REMARK VINA RESULT:      10.2      0.000      0.000
REMARK  Name = *****
REMARK                            x       y       z     vdW  Elec       q    Type
REMARK                         _______ _______ _______ _____ _____    ______ ____
ROOT
ATOM      1  C   LIG    1       24.881 -13.452   4.068  0.00  0.00    +0.176 C 
ATOM      2  C   LIG    1       24.314 -14.814   4.641  0.00  0.00    +0.018 C 
ATOM      3  C   LIG    1       23.773 -14.592   6.089  0.00  0.00    +0.016 C 
ATOM      4  C   LIG    1       25.563 -15.742   4.747  0.00  0.00    +0.003 C 
ATOM      5  C   LIG    1       25.795 -16.782   3.624  0.00  0.00    -0.003 C 
ATOM      6  C   LIG    1       24.537 -17.491   3.093  0.00  0.00    +0.002 C 
ATOM      7  C   LIG    1       23.497 -16.420   2.724  0.00  0.00    +0.005 C 
ATOM      8  C   LIG    1       24.024 -18.764   3.878  0.00  0.00    -0.007 C 
ATOM      9  C   LIG    1       23.164 -19.596   2.877  0.00  0.00    +0.016 C 
ATOM     10  C   LIG    1       25.190 -19.615   4.420  0.00  0.00    -0.057 C 
ATOM     11  C   LIG    1       24.928 -20.856   4.890  0.00  0.00    +0.046 C 
ATOM     12  C   LIG    1       23.975 -20.745   6.057  0.00  0.00    +0.156 C 
ATOM     13  O   LIG    1       24.039 -21.572   6.963  0.00  0.00    -0.293 OA
ATOM     14  C   LIG    1       22.855 -19.712   5.983  0.00  0.00    +0.080 C 
ATOM     15  C   LIG    1       26.365 -18.848   5.020  0.00  0.00    +0.013 C 
ATOM     16  C   LIG    1       27.536 -19.739   5.462  0.00  0.00    +0.012 C 
ATOM     17  C   LIG    1       23.167 -18.468   5.130  0.00  0.00    +0.019 C 
ATOM     18  C   LIG    1       26.872 -17.813   4.009  0.00  0.00    +0.012 C 
ATOM     19  C   LIG    1       26.780 -14.792   4.835  0.00  0.00    +0.009 C 
ATOM     20  C   LIG    1       23.148 -15.421   3.822  0.00  0.00    +0.011 C 
ATOM     21  C   LIG    1       26.260 -13.363   4.747  0.00  0.00    +0.057 C 
ENDROOT
BRANCH   1  22
ATOM     22  C   LIG    1       23.923 -12.262   4.403  0.00  0.00    +0.174 C 
ATOM     23  O   LIG    1       23.160 -11.795   3.552  0.00  0.00    -0.293 OA
ATOM     24  C   LIG    1       23.931 -11.687   5.803  0.00  0.00    +0.090 C 
ENDBRANCH   1  22
BRANCH   1  25
ATOM     25  O   LIG    1       25.083 -13.605   2.644  0.00  0.00    -0.450 OA
BRANCH  25  27
ATOM     26  C   LIG    1       26.419 -11.792   1.945  0.00  0.00    +0.136 C 
ATOM     27  C   LIG    1       26.312 -13.273   2.151  0.00  0.00    +0.305 C 
ATOM     28  O   LIG    1       27.176 -14.062   1.812  0.00  0.00    -0.251 OA
ENDBRANCH  25  27
ENDBRANCH   1  25
TORSDOF 3
ENDMDL
MODEL 2
REMARK VINA RESULT:      12.0      1.135      1.360
REMARK  Name = *****
REMARK                            x       y       z     vdW  Elec       q    Type
REMARK                         _______ _______ _______ _____ _____    ______ ____
ROOT
ATOM      1  C   LIG    1       25.551 -13.575   4.053  0.00  0.00    +0.176 C 
ATOM      2  C   LIG    1       24.857 -14.808   4.762  0.00  0.00    +0.018 C 
ATOM      3  C   LIG    1       24.884 -14.609   6.310  0.00  0.00    +0.016 C 
ATOM      4  C   LIG    1       25.784 -16.019   4.432  0.00  0.00    +0.003 C 
ATOM      5  C   LIG    1       25.364 -16.965   3.281  0.00  0.00    -0.003 C 
ATOM      6  C   LIG    1       23.863 -17.288   3.190  0.00  0.00    +0.002 C 
ATOM      7  C   LIG    1       23.080 -15.964   3.204  0.00  0.00    +0.005 C 
ATOM      8  C   LIG    1       23.309 -18.470   4.082  0.00  0.00    -0.007 C 
ATOM      9  C   LIG    1       21.988 -18.962   3.412  0.00  0.00    +0.016 C 
ATOM     10  C   LIG    1       24.319 -19.630   4.192  0.00  0.00    -0.057 C 
ATOM     11  C   LIG    1       23.902 -20.810   4.704  0.00  0.00    +0.046 C 
ATOM     12  C   LIG    1       23.435 -20.589   6.124  0.00  0.00    +0.156 C 
ATOM     13  O   LIG    1       23.563 -21.494   6.944  0.00  0.00    -0.293 OA
ATOM     14  C   LIG    1       22.663 -19.312   6.441  0.00  0.00    +0.080 C 
ATOM     15  C   LIG    1       25.782 -19.238   4.376  0.00  0.00    +0.013 C 
ATOM     16  C   LIG    1       26.754 -20.428   4.390  0.00  0.00    +0.012 C 
ATOM     17  C   LIG    1       23.004 -18.102   5.552  0.00  0.00    +0.019 C 
ATOM     18  C   LIG    1       26.196 -18.261   3.270  0.00  0.00    +0.012 C 
ATOM     19  C   LIG    1       27.171 -15.408   4.123  0.00  0.00    +0.009 C 
ATOM     20  C   LIG    1       23.376 -15.027   4.370  0.00  0.00    +0.011 C 
ATOM     21  C   LIG    1       27.046 -13.894   4.234  0.00  0.00    +0.057 C 
ENDROOT
BRANCH   1  22
ATOM     22  C   LIG    1       25.099 -12.227   4.705  0.00  0.00    +0.174 C 
ATOM     23  O   LIG    1       25.896 -11.521   5.331  0.00  0.00    -0.293 OA
ATOM     24  C   LIG    1       23.661 -11.783   4.550  0.00  0.00    +0.090 C 
ENDBRANCH   1  22
BRANCH   1  25
ATOM     25  O   LIG    1       25.243 -13.627   2.641  0.00  0.00    -0.450 OA
BRANCH  25  27
ATOM     26  C   LIG    1       25.587 -11.448   1.812  0.00  0.00    +0.136 C 
ATOM     27  C   LIG    1       24.608 -12.546   2.101  0.00  0.00    +0.305 C 
ATOM     28  O   LIG    1       23.404 -12.425   1.968  0.00  0.00    -0.251 OA
ENDBRANCH  25  27
ENDBRANCH   1  25
TORSDOF 3
ENDMDL
