MODEL 1
REMARK VINA RESULT:      -5.6      0.000      0.000
REMARK  Name = *****
REMARK                            x       y       z     vdW  Elec       q    Type
REMARK                         _______ _______ _______ _____ _____    ______ ____
ROOT
ATOM      1  CA  LIG    1       25.524 -30.988  11.126  0.00  0.00    +0.191 C 
ATOM      2  C   LIG    1       24.526 -31.609  10.088  0.00  0.00    +0.169 C 
ATOM      3  N   LIG    1       25.656 -31.808   9.175  0.00  0.00    -0.249 N 
ATOM      4  CA  LIG    1       25.571 -31.656   7.812  0.00  0.00    +0.123 C 
ATOM      5  C   LIG    1       24.832 -30.677   7.243  0.00  0.00    -0.021 C 
ATOM      6  C   LIG    1       24.012 -29.751   8.099  0.00  0.00    +0.104 C 
ATOM      7  S   LIG    1       23.182 -30.569   9.474  0.00  0.00    -0.131 S 
ATOM      8  C   LIG    1       26.490 -30.955   9.895  0.00  0.00    +0.244 C 
ATOM      9  O   LIG    1       27.480 -30.385   9.537  0.00  0.00    -0.273 OA
ENDROOT
BRANCH   1  11
ATOM     10  C   LIG    1       24.598 -29.681  13.056  0.00  0.00    +0.268 C 
ATOM     11  N   LIG    1       25.176 -29.691  11.791  0.00  0.00    -0.296 N 
ATOM     12  H   LIG    1       24.895 -28.879  11.219  0.00  0.00    +0.150 HD
ATOM     13  O   LIG    1       24.414 -30.690  13.719  0.00  0.00    -0.268 OA
BRANCH  10  15
ATOM     14  N   LIG    1       25.010 -27.340  13.834  0.00  0.00    -0.078 NA
ATOM     15  C   LIG    1       24.165 -28.309  13.605  0.00  0.00    +0.190 C 
BRANCH  15  16
ATOM     16  C   LIG    1       22.745 -28.009  13.861  0.00  0.00    +0.107 A 
ATOM     17  N   LIG    1       22.004 -27.177  13.008  0.00  0.00    -0.223 NA
ATOM     18  C   LIG    1       20.747 -27.127  13.375  0.00  0.00    +0.156 A 
ATOM     19  S   LIG    1       20.355 -28.039  14.770  0.00  0.00    -0.060 S 
ATOM     20  C   LIG    1       21.985 -28.550  14.885  0.00  0.00    +0.078 A 
BRANCH  18  21
ATOM     21  N   LIG    1       19.803 -26.450  12.701  0.00  0.00    -0.338 N 
ATOM     22  H   LIG    1       20.147 -25.696  12.117  0.00  0.00    +0.144 HD
ATOM     23  H   LIG    1       19.054 -26.986  12.279  0.00  0.00    +0.144 HD
ENDBRANCH  18  21
ENDBRANCH  15  16
BRANCH  14  25
ATOM     24  C   LIG    1       26.839 -26.530  12.730  0.00  0.00    +0.313 C 
ATOM     25  O   LIG    1       26.326 -27.640  13.463  0.00  0.00    -0.396 OA
ENDBRANCH  14  25
ENDBRANCH  10  15
ENDBRANCH   1  11
BRANCH   4  26
ATOM     26  C   LIG    1       26.464 -32.571   7.015  0.00  0.00    +0.351 C 
ATOM     27  O   LIG    1       26.151 -33.538   6.351  0.00  0.00    -0.244 OA
BRANCH  26  28
ATOM     28  OXT LIG    1       27.763 -32.225   7.159  0.00  0.00    -0.476 OA
ATOM     29  HXT LIG    1       28.155 -32.968   7.663  0.00  0.00    +0.295 HD
ENDBRANCH  26  28
ENDBRANCH   4  26
BRANCH   5  30
ATOM     30  C   LIG    1       24.927 -30.239   5.794  0.00  0.00    +0.111 C 
BRANCH  30  31
ATOM     31  S   LIG    1       23.977 -28.731   5.453  0.00  0.00    -0.080 S 
BRANCH  31  32
ATOM     32  C   LIG    1       25.273 -27.580   5.478  0.00  0.00    +0.209 A 
ATOM     33  N   LIG    1       25.142 -26.265   5.814  0.00  0.00    -0.223 N 
ATOM     34  C   LIG    1       23.980 -25.521   6.208  0.00  0.00    +0.177 C 
ATOM     35  N   LIG    1       26.339 -25.656   5.722  0.00  0.00    -0.043 NA
ATOM     36  N   LIG    1       27.181 -26.606   5.335  0.00  0.00    -0.022 NA
ATOM     37  N   LIG    1       26.532 -27.808   5.182  0.00  0.00    -0.102 NA
ENDBRANCH  31  32
ENDBRANCH  30  31
ENDBRANCH   5  30
TORSDOF 10
ENDMDL
MODEL 2
REMARK VINA RESULT:      -5.6      2.828      7.857
REMARK  Name = *****
REMARK                            x       y       z     vdW  Elec       q    Type
REMARK                         _______ _______ _______ _____ _____    ______ ____
ROOT
ATOM      1  CA  LIG    1       25.071 -31.136   9.656  0.00  0.00    +0.191 C 
ATOM      2  C   LIG    1       25.967 -30.908  10.922  0.00  0.00    +0.169 C 
ATOM      3  N   LIG    1       24.754 -30.584  11.678  0.00  0.00    -0.249 N 
ATOM      4  CA  LIG    1       24.700 -29.616  12.652  0.00  0.00    +0.123 C 
ATOM      5  C   LIG    1       25.363 -28.444  12.539  0.00  0.00    -0.021 C 
ATOM      6  C   LIG    1       26.252 -28.187  11.353  0.00  0.00    +0.104 C 
ATOM      7  S   LIG    1       27.227 -29.615  10.848  0.00  0.00    -0.131 S 
ATOM      8  C   LIG    1       23.985 -30.421  10.528  0.00  0.00    +0.244 C 
ATOM      9  O   LIG    1       22.956 -29.827  10.384  0.00  0.00    -0.273 OA
ENDROOT
BRANCH   1  11
ATOM     10  C   LIG    1       24.604 -30.544   7.264  0.00  0.00    +0.268 C 
ATOM     11  N   LIG    1       25.465 -30.506   8.355  0.00  0.00    -0.296 N 
ATOM     12  H   LIG    1       26.459 -30.480   8.076  0.00  0.00    +0.150 HD
ATOM     13  O   LIG    1       23.476 -31.008   7.314  0.00  0.00    -0.268 OA
BRANCH  10  15
ATOM     14  N   LIG    1       25.581 -30.738   4.970  0.00  0.00    -0.078 NA
ATOM     15  C   LIG    1       25.146 -29.978   5.938  0.00  0.00    +0.190 C 
BRANCH  15  16
ATOM     16  C   LIG    1       25.158 -28.527   5.683  0.00  0.00    +0.107 A 
ATOM     17  N   LIG    1       24.136 -27.688   6.156  0.00  0.00    -0.223 NA
ATOM     18  C   LIG    1       24.401 -26.432   5.894  0.00  0.00    +0.156 A 
ATOM     19  S   LIG    1       25.863 -26.152   5.047  0.00  0.00    -0.060 S 
ATOM     20  C   LIG    1       26.173 -27.836   5.041  0.00  0.00    +0.078 A 
BRANCH  18  21
ATOM     21  N   LIG    1       23.619 -25.412   6.284  0.00  0.00    -0.338 N 
ATOM     22  H   LIG    1       23.863 -24.509   5.895  0.00  0.00    +0.144 HD
ATOM     23  H   LIG    1       22.621 -25.581   6.335  0.00  0.00    +0.144 HD
ENDBRANCH  18  21
ENDBRANCH  15  16
BRANCH  14  25
ATOM     24  C   LIG    1       26.741 -32.676   5.321  0.00  0.00    +0.313 C 
ATOM     25  O   LIG    1       25.437 -32.108   5.220  0.00  0.00    -0.396 OA
ENDBRANCH  14  25
ENDBRANCH  10  15
ENDBRANCH   1  11
BRANCH   4  26
ATOM     26  C   LIG    1       23.744 -29.906  13.781  0.00  0.00    +0.351 C 
ATOM     27  O   LIG    1       24.002 -30.251  14.916  0.00  0.00    -0.244 OA
BRANCH  26  28
ATOM     28  OXT LIG    1       22.461 -29.792  13.370  0.00  0.00    -0.476 OA
ATOM     29  HXT LIG    1       22.233 -30.686  13.043  0.00  0.00    +0.295 HD
ENDBRANCH  26  28
ENDBRANCH   4  26
BRANCH   5  30
ATOM     30  C   LIG    1       25.117 -27.213  13.390  0.00  0.00    +0.111 C 
BRANCH  30  31
ATOM     31  S   LIG    1       26.268 -27.082  14.787  0.00  0.00    -0.080 S 
BRANCH  31  32
ATOM     32  C   LIG    1       26.461 -25.359  14.821  0.00  0.00    +0.209 A 
ATOM     33  N   LIG    1       27.618 -24.710  15.135  0.00  0.00    -0.223 N 
ATOM     34  C   LIG    1       28.903 -25.233  15.499  0.00  0.00    +0.177 C 
ATOM     35  N   LIG    1       27.419 -23.380  15.072  0.00  0.00    -0.043 NA
ATOM     36  N   LIG    1       26.147 -23.237  14.720  0.00  0.00    -0.022 NA
ATOM     37  N   LIG    1       25.539 -24.460  14.558  0.00  0.00    -0.102 NA
ENDBRANCH  31  32
ENDBRANCH  30  31
ENDBRANCH   5  30
TORSDOF 10
ENDMDL
MODEL 3
REMARK VINA RESULT:      -5.6      2.622      4.120
REMARK  Name = *****
REMARK                            x       y       z     vdW  Elec       q    Type
REMARK                         _______ _______ _______ _____ _____    ______ ____
ROOT
ATOM      1  CA  LIG    1       23.321 -30.610  12.865  0.00  0.00    +0.191 C 
ATOM      2  C   LIG    1       24.140 -31.400  11.786  0.00  0.00    +0.169 C 
ATOM      3  N   LIG    1       25.105 -30.298  11.763  0.00  0.00    -0.249 N 
ATOM      4  CA  LIG    1       25.739 -29.864  10.624  0.00  0.00    +0.123 C 
ATOM      5  C   LIG    1       25.108 -29.799   9.431  0.00  0.00    -0.021 C 
ATOM      6  C   LIG    1       23.686 -30.273   9.298  0.00  0.00    +0.104 C 
ATOM      7  S   LIG    1       23.330 -31.781  10.217  0.00  0.00    -0.131 S 
ATOM      8  C   LIG    1       24.244 -29.425  12.425  0.00  0.00    +0.244 C 
ATOM      9  O   LIG    1       24.258 -28.228  12.458  0.00  0.00    -0.273 OA
ENDROOT
BRANCH   1  11
ATOM     10  C   LIG    1       20.990 -30.571  13.790  0.00  0.00    +0.268 C 
ATOM     11  N   LIG    1       21.840 -30.458  12.695  0.00  0.00    -0.296 N 
ATOM     12  H   LIG    1       21.391 -30.748  11.812  0.00  0.00    +0.150 HD
ATOM     13  O   LIG    1       21.385 -30.717  14.935  0.00  0.00    -0.268 OA
BRANCH  10  15
ATOM     14  N   LIG    1       18.857 -31.456  12.830  0.00  0.00    -0.078 NA
ATOM     15  C   LIG    1       19.479 -30.521  13.497  0.00  0.00    +0.190 C 
BRANCH  15  16
ATOM     16  C   LIG    1       18.645 -29.416  14.002  0.00  0.00    +0.107 A 
ATOM     17  N   LIG    1       19.164 -28.124  14.177  0.00  0.00    -0.223 NA
ATOM     18  C   LIG    1       18.226 -27.286  14.543  0.00  0.00    +0.156 A 
ATOM     19  S   LIG    1       16.667 -27.969  14.733  0.00  0.00    -0.060 S 
ATOM     20  C   LIG    1       17.290 -29.499  14.279  0.00  0.00    +0.078 A 
BRANCH  18  21
ATOM     21  N   LIG    1       18.434 -25.972  14.726  0.00  0.00    -0.338 N 
ATOM     22  H   LIG    1       18.480 -25.673  15.693  0.00  0.00    +0.144 HD
ATOM     23  H   LIG    1       19.111 -25.518  14.124  0.00  0.00    +0.144 HD
ENDBRANCH  18  21
ENDBRANCH  15  16
BRANCH  14  25
ATOM     24  C   LIG    1       19.200 -33.059  11.238  0.00  0.00    +0.313 C 
ATOM     25  O   LIG    1       19.674 -32.536  12.477  0.00  0.00    -0.396 OA
ENDBRANCH  14  25
ENDBRANCH  10  15
ENDBRANCH   1  11
BRANCH   4  26
ATOM     26  C   LIG    1       27.137 -29.344  10.836  0.00  0.00    +0.351 C 
ATOM     27  O   LIG    1       28.187 -29.949  10.754  0.00  0.00    -0.244 OA
BRANCH  26  28
ATOM     28  OXT LIG    1       27.119 -28.044  11.210  0.00  0.00    -0.476 OA
ATOM     29  HXT LIG    1       27.256 -27.552  10.375  0.00  0.00    +0.295 HD
ENDBRANCH  26  28
ENDBRANCH   4  26
BRANCH   5  30
ATOM     30  C   LIG    1       25.614 -29.051   8.212  0.00  0.00    +0.111 C 
BRANCH  30  31
ATOM     31  S   LIG    1       24.316 -28.756   6.979  0.00  0.00    -0.080 S 
BRANCH  31  32
ATOM     32  C   LIG    1       25.189 -27.710   5.907  0.00  0.00    +0.209 A 
ATOM     33  N   LIG    1       24.938 -26.379   5.741  0.00  0.00    -0.223 N 
ATOM     34  C   LIG    1       23.954 -25.538   6.359  0.00  0.00    +0.177 C 
ATOM     35  N   LIG    1       25.793 -25.871   4.834  0.00  0.00    -0.043 NA
ATOM     36  N   LIG    1       26.551 -26.895   4.461  0.00  0.00    -0.022 NA
ATOM     37  N   LIG    1       26.188 -28.044   5.123  0.00  0.00    -0.102 NA
ENDBRANCH  31  32
ENDBRANCH  30  31
ENDBRANCH   5  30
TORSDOF 10
ENDMDL
MODEL 4
REMARK VINA RESULT:      -5.6      8.013     10.878
REMARK  Name = *****
REMARK                            x       y       z     vdW  Elec       q    Type
REMARK                         _______ _______ _______ _____ _____    ______ ____
ROOT
ATOM      1  CA  LIG    1       27.620 -19.423   7.689  0.00  0.00    +0.191 C 
ATOM      2  C   LIG    1       27.519 -20.433   6.494  0.00  0.00    +0.169 C 
ATOM      3  N   LIG    1       26.158 -20.759   6.931  0.00  0.00    -0.249 N 
ATOM      4  CA  LIG    1       25.620 -22.022   6.868  0.00  0.00    +0.123 C 
ATOM      5  C   LIG    1       26.347 -23.128   7.139  0.00  0.00    -0.021 C 
ATOM      6  C   LIG    1       27.813 -23.013   7.457  0.00  0.00    +0.104 C 
ATOM      7  S   LIG    1       28.689 -21.809   6.443  0.00  0.00    -0.131 S 
ATOM      8  C   LIG    1       26.333 -20.167   8.180  0.00  0.00    +0.244 C 
ATOM      9  O   LIG    1       25.724 -20.346   9.195  0.00  0.00    -0.273 OA
ENDROOT
BRANCH   1  11
ATOM     10  C   LIG    1       29.988 -18.767   8.193  0.00  0.00    +0.268 C 
ATOM     11  N   LIG    1       28.834 -19.448   8.568  0.00  0.00    -0.296 N 
ATOM     12  H   LIG    1       29.032 -20.277   9.149  0.00  0.00    +0.150 HD
ATOM     13  O   LIG    1       30.061 -18.065   7.198  0.00  0.00    -0.268 OA
BRANCH  10  15
ATOM     14  N   LIG    1       31.873 -20.079   9.185  0.00  0.00    -0.078 NA
ATOM     15  C   LIG    1       31.220 -18.951   9.099  0.00  0.00    +0.190 C 
BRANCH  15  16
ATOM     16  C   LIG    1       31.751 -17.829   9.893  0.00  0.00    +0.107 A 
ATOM     17  N   LIG    1       31.595 -17.776  11.287  0.00  0.00    -0.223 NA
ATOM     18  C   LIG    1       32.225 -16.743  11.791  0.00  0.00    +0.156 A 
ATOM     19  S   LIG    1       33.024 -15.745  10.652  0.00  0.00    -0.060 S 
ATOM     20  C   LIG    1       32.500 -16.778   9.390  0.00  0.00    +0.078 A 
BRANCH  18  21
ATOM     21  N   LIG    1       32.289 -16.483  13.107  0.00  0.00    -0.338 N 
ATOM     22  H   LIG    1       33.177 -16.695  13.546  0.00  0.00    +0.144 HD
ATOM     23  H   LIG    1       31.866 -15.622  13.434  0.00  0.00    +0.144 HD
ENDBRANCH  18  21
ENDBRANCH  15  16
BRANCH  14  25
ATOM     24  C   LIG    1       31.148 -22.244   9.097  0.00  0.00    +0.313 C 
ATOM     25  O   LIG    1       31.397 -21.073   8.323  0.00  0.00    -0.396 OA
ENDBRANCH  14  25
ENDBRANCH  10  15
ENDBRANCH   1  11
BRANCH   4  26
ATOM     26  C   LIG    1       24.136 -22.065   6.608  0.00  0.00    +0.351 C 
ATOM     27  O   LIG    1       23.229 -21.830   7.380  0.00  0.00    -0.244 OA
BRANCH  26  28
ATOM     28  OXT LIG    1       23.878 -22.478   5.346  0.00  0.00    -0.476 OA
ATOM     29  HXT LIG    1       23.082 -21.970   5.086  0.00  0.00    +0.295 HD
ENDBRANCH  26  28
ENDBRANCH   4  26
BRANCH   5  30
ATOM     30  C   LIG    1       25.777 -24.509   7.401  0.00  0.00    +0.111 C 
BRANCH  30  31
ATOM     31  S   LIG    1       25.902 -25.606   5.962  0.00  0.00    -0.080 S 
BRANCH  31  32
ATOM     32  C   LIG    1       25.721 -27.132   6.766  0.00  0.00    +0.209 A 
ATOM     33  N   LIG    1       25.041 -28.202   6.263  0.00  0.00    -0.223 N 
ATOM     34  C   LIG    1       24.337 -28.352   5.022  0.00  0.00    +0.177 C 
ATOM     35  N   LIG    1       25.091 -29.219   7.144  0.00  0.00    -0.043 NA
ATOM     36  N   LIG    1       25.799 -28.757   8.167  0.00  0.00    -0.022 NA
ATOM     37  N   LIG    1       26.199 -27.461   7.944  0.00  0.00    -0.102 NA
ENDBRANCH  31  32
ENDBRANCH  30  31
ENDBRANCH   5  30
TORSDOF 10
ENDMDL
MODEL 5
REMARK VINA RESULT:      -5.5      1.778      3.027
REMARK  Name = *****
REMARK                            x       y       z     vdW  Elec       q    Type
REMARK                         _______ _______ _______ _____ _____    ______ ____
ROOT
ATOM      1  CA  LIG    1       25.686 -30.596  11.260  0.00  0.00    +0.191 C 
ATOM      2  C   LIG    1       24.646 -31.288  10.312  0.00  0.00    +0.169 C 
ATOM      3  N   LIG    1       25.745 -31.606   9.396  0.00  0.00    -0.249 N 
ATOM      4  CA  LIG    1       25.626 -31.585   8.027  0.00  0.00    +0.123 C 
ATOM      5  C   LIG    1       24.897 -30.646   7.383  0.00  0.00    -0.021 C 
ATOM      6  C   LIG    1       24.124 -29.619   8.165  0.00  0.00    +0.104 C 
ATOM      7  S   LIG    1       23.312 -30.276   9.633  0.00  0.00    -0.131 S 
ATOM      8  C   LIG    1       26.619 -30.710  10.007  0.00  0.00    +0.244 C 
ATOM      9  O   LIG    1       27.613 -30.205   9.571  0.00  0.00    -0.273 OA
ENDROOT
BRANCH   1  11
ATOM     10  C   LIG    1       24.843 -29.083  13.073  0.00  0.00    +0.268 C 
ATOM     11  N   LIG    1       25.389 -29.232  11.803  0.00  0.00    -0.296 N 
ATOM     12  H   LIG    1       25.115 -28.471  11.161  0.00  0.00    +0.150 HD
ATOM     13  O   LIG    1       24.651 -30.017  13.836  0.00  0.00    -0.268 OA
BRANCH  10  15
ATOM     14  N   LIG    1       23.268 -27.155  13.305  0.00  0.00    -0.078 NA
ATOM     15  C   LIG    1       24.460 -27.653  13.495  0.00  0.00    +0.190 C 
BRANCH  15  16
ATOM     16  C   LIG    1       25.428 -26.781  14.183  0.00  0.00    +0.107 A 
ATOM     17  N   LIG    1       26.805 -27.054  14.167  0.00  0.00    -0.223 NA
ATOM     18  C   LIG    1       27.480 -26.100  14.759  0.00  0.00    +0.156 A 
ATOM     19  S   LIG    1       26.536 -24.823  15.400  0.00  0.00    -0.060 S 
ATOM     20  C   LIG    1       25.118 -25.597  14.833  0.00  0.00    +0.078 A 
BRANCH  18  21
ATOM     21  N   LIG    1       28.821 -26.078  14.837  0.00  0.00    -0.338 N 
ATOM     22  H   LIG    1       29.202 -26.267  15.757  0.00  0.00    +0.144 HD
ATOM     23  H   LIG    1       29.340 -26.511  14.082  0.00  0.00    +0.144 HD
ENDBRANCH  18  21
ENDBRANCH  15  16
BRANCH  14  25
ATOM     24  C   LIG    1       21.044 -27.547  12.953  0.00  0.00    +0.313 C 
ATOM     25  O   LIG    1       22.357 -28.065  12.756  0.00  0.00    -0.396 OA
ENDBRANCH  14  25
ENDBRANCH  10  15
ENDBRANCH   1  11
BRANCH   4  26
ATOM     26  C   LIG    1       26.474 -32.597   7.302  0.00  0.00    +0.351 C 
ATOM     27  O   LIG    1       27.654 -32.530   7.024  0.00  0.00    -0.244 OA
BRANCH  26  28
ATOM     28  OXT LIG    1       25.732 -33.655   6.904  0.00  0.00    -0.476 OA
ATOM     29  HXT LIG    1       24.823 -33.434   7.197  0.00  0.00    +0.295 HD
ENDBRANCH  26  28
ENDBRANCH   4  26
BRANCH   5  30
ATOM     30  C   LIG    1       24.963 -30.354   5.897  0.00  0.00    +0.111 C 
BRANCH  30  31
ATOM     31  S   LIG    1       24.014 -28.880   5.428  0.00  0.00    -0.080 S 
BRANCH  31  32
ATOM     32  C   LIG    1       25.302 -27.720   5.412  0.00  0.00    +0.209 A 
ATOM     33  N   LIG    1       25.171 -26.405   5.751  0.00  0.00    -0.223 N 
ATOM     34  C   LIG    1       24.017 -25.671   6.183  0.00  0.00    +0.177 C 
ATOM     35  N   LIG    1       26.360 -25.788   5.622  0.00  0.00    -0.043 NA
ATOM     36  N   LIG    1       27.197 -26.731   5.209  0.00  0.00    -0.022 NA
ATOM     37  N   LIG    1       26.553 -27.939   5.075  0.00  0.00    -0.102 NA
ENDBRANCH  31  32
ENDBRANCH  30  31
ENDBRANCH   5  30
TORSDOF 10
ENDMDL
MODEL 6
REMARK VINA RESULT:      -5.3      3.089      4.850
REMARK  Name = *****
REMARK                            x       y       z     vdW  Elec       q    Type
REMARK                         _______ _______ _______ _____ _____    ______ ____
ROOT
ATOM      1  CA  LIG    1       23.533 -29.508  14.031  0.00  0.00    +0.191 C 
ATOM      2  C   LIG    1       24.432 -30.685  13.517  0.00  0.00    +0.169 C 
ATOM      3  N   LIG    1       25.472 -29.703  13.195  0.00  0.00    -0.249 N 
ATOM      4  CA  LIG    1       26.289 -29.791  12.094  0.00  0.00    +0.123 C 
ATOM      5  C   LIG    1       25.837 -30.224  10.896  0.00  0.00    -0.021 C 
ATOM      6  C   LIG    1       24.416 -30.696  10.747  0.00  0.00    +0.104 C 
ATOM      7  S   LIG    1       23.823 -31.678  12.136  0.00  0.00    -0.131 S 
ATOM      8  C   LIG    1       24.595 -28.624  13.295  0.00  0.00    +0.244 C 
ATOM      9  O   LIG    1       24.694 -27.524  12.834  0.00  0.00    -0.273 OA
ENDROOT
BRANCH   1  11
ATOM     10  C   LIG    1       21.093 -29.994  14.347  0.00  0.00    +0.268 C 
ATOM     11  N   LIG    1       22.106 -29.426  13.582  0.00  0.00    -0.296 N 
ATOM     12  H   LIG    1       21.884 -29.413  12.574  0.00  0.00    +0.150 HD
ATOM     13  O   LIG    1       21.283 -30.511  15.436  0.00  0.00    -0.268 OA
BRANCH  10  15
ATOM     14  N   LIG    1       19.328 -30.699  12.720  0.00  0.00    -0.078 NA
ATOM     15  C   LIG    1       19.676 -29.966  13.744  0.00  0.00    +0.190 C 
BRANCH  15  16
ATOM     16  C   LIG    1       18.619 -29.125  14.333  0.00  0.00    +0.107 A 
ATOM     17  N   LIG    1       18.660 -27.724  14.246  0.00  0.00    -0.223 NA
ATOM     18  C   LIG    1       17.576 -27.191  14.753  0.00  0.00    +0.156 A 
ATOM     19  S   LIG    1       16.442 -28.302  15.393  0.00  0.00    -0.060 S 
ATOM     20  C   LIG    1       17.471 -29.597  14.947  0.00  0.00    +0.078 A 
BRANCH  18  21
ATOM     21  N   LIG    1       17.327 -25.871  14.750  0.00  0.00    -0.338 N 
ATOM     22  H   LIG    1       17.409 -25.419  13.846  0.00  0.00    +0.144 HD
ATOM     23  H   LIG    1       16.545 -25.541  15.304  0.00  0.00    +0.144 HD
ENDBRANCH  18  21
ENDBRANCH  15  16
BRANCH  14  25
ATOM     24  C   LIG    1       20.192 -31.717  10.867  0.00  0.00    +0.313 C 
ATOM     25  O   LIG    1       20.335 -31.563  12.277  0.00  0.00    -0.396 OA
ENDBRANCH  14  25
ENDBRANCH  10  15
ENDBRANCH   1  11
BRANCH   4  26
ATOM     26  C   LIG    1       27.679 -29.244  12.291  0.00  0.00    +0.351 C 
ATOM     27  O   LIG    1       28.681 -29.839  12.633  0.00  0.00    -0.244 OA
BRANCH  26  28
ATOM     28  OXT LIG    1       27.706 -27.907  12.091  0.00  0.00    -0.476 OA
ATOM     29  HXT LIG    1       28.607 -27.641  12.370  0.00  0.00    +0.295 HD
ENDBRANCH  26  28
ENDBRANCH   4  26
BRANCH   5  30
ATOM     30  C   LIG    1       26.563 -30.059   9.575  0.00  0.00    +0.111 C 
BRANCH  30  31
ATOM     31  S   LIG    1       26.080 -31.305   8.347  0.00  0.00    -0.080 S 
BRANCH  31  32
ATOM     32  C   LIG    1       25.100 -30.310   7.319  0.00  0.00    +0.209 A 
ATOM     33  N   LIG    1       24.147 -30.775   6.462  0.00  0.00    -0.223 N 
ATOM     34  C   LIG    1       23.722 -32.118   6.191  0.00  0.00    +0.177 C 
ATOM     35  N   LIG    1       23.583 -29.740   5.813  0.00  0.00    -0.043 NA
ATOM     36  N   LIG    1       24.196 -28.661   6.283  0.00  0.00    -0.022 NA
ATOM     37  N   LIG    1       25.142 -29.001   7.222  0.00  0.00    -0.102 NA
ENDBRANCH  31  32
ENDBRANCH  30  31
ENDBRANCH   5  30
TORSDOF 10
ENDMDL
MODEL 7
REMARK VINA RESULT:      -5.3      2.818      7.015
REMARK  Name = *****
REMARK                            x       y       z     vdW  Elec       q    Type
REMARK                         _______ _______ _______ _____ _____    ______ ____
ROOT
ATOM      1  CA  LIG    1       25.460 -30.096   7.652  0.00  0.00    +0.191 C 
ATOM      2  C   LIG    1       26.221 -30.884   8.775  0.00  0.00    +0.169 C 
ATOM      3  N   LIG    1       24.922 -31.288   9.321  0.00  0.00    -0.249 N 
ATOM      4  CA  LIG    1       24.664 -31.405  10.665  0.00  0.00    +0.123 C 
ATOM      5  C   LIG    1       25.169 -30.539  11.572  0.00  0.00    -0.021 C 
ATOM      6  C   LIG    1       26.101 -29.441  11.136  0.00  0.00    +0.104 C 
ATOM      7  S   LIG    1       27.296 -29.951   9.887  0.00  0.00    -0.131 S 
ATOM      8  C   LIG    1       24.226 -30.331   8.585  0.00  0.00    +0.244 C 
ATOM      9  O   LIG    1       23.139 -29.869   8.782  0.00  0.00    -0.273 OA
ENDROOT
BRANCH   1  11
ATOM     10  C   LIG    1       25.174 -27.949   6.388  0.00  0.00    +0.268 C 
ATOM     11  N   LIG    1       25.862 -28.685   7.347  0.00  0.00    -0.296 N 
ATOM     12  H   LIG    1       26.851 -28.402   7.432  0.00  0.00    +0.150 HD
ATOM     13  O   LIG    1       24.183 -28.361   5.807  0.00  0.00    -0.268 OA
BRANCH  10  15
ATOM     14  N   LIG    1       26.830 -26.377   5.367  0.00  0.00    -0.078 NA
ATOM     15  C   LIG    1       25.736 -26.554   6.057  0.00  0.00    +0.190 C 
BRANCH  15  16
ATOM     16  C   LIG    1       25.026 -25.333   6.478  0.00  0.00    +0.107 A 
ATOM     17  N   LIG    1       25.709 -24.244   7.043  0.00  0.00    -0.223 NA
ATOM     18  C   LIG    1       24.897 -23.238   7.252  0.00  0.00    +0.156 A 
ATOM     19  S   LIG    1       23.263 -23.513   6.820  0.00  0.00    -0.060 S 
ATOM     20  C   LIG    1       23.674 -25.093   6.303  0.00  0.00    +0.078 A 
BRANCH  18  21
ATOM     21  N   LIG    1       25.296 -22.048   7.732  0.00  0.00    -0.338 N 
ATOM     22  H   LIG    1       25.021 -21.855   8.688  0.00  0.00    +0.144 HD
ATOM     23  H   LIG    1       26.237 -21.746   7.507  0.00  0.00    +0.144 HD
ENDBRANCH  18  21
ENDBRANCH  15  16
BRANCH  14  25
ATOM     24  C   LIG    1       28.699 -27.265   4.398  0.00  0.00    +0.313 C 
ATOM     25  O   LIG    1       27.397 -27.566   4.894  0.00  0.00    -0.396 OA
ENDBRANCH  14  25
ENDBRANCH  10  15
ENDBRANCH   1  11
BRANCH   4  26
ATOM     26  C   LIG    1       23.675 -32.482  11.030  0.00  0.00    +0.351 C 
ATOM     27  O   LIG    1       23.898 -33.628  11.361  0.00  0.00    -0.244 OA
BRANCH  26  28
ATOM     28  OXT LIG    1       22.405 -32.039  10.891  0.00  0.00    -0.476 OA
ATOM     29  HXT LIG    1       22.476 -31.068  10.998  0.00  0.00    +0.295 HD
ENDBRANCH  26  28
ENDBRANCH   4  26
BRANCH   5  30
ATOM     30  C   LIG    1       24.695 -30.397  13.006  0.00  0.00    +0.111 C 
BRANCH  30  31
ATOM     31  S   LIG    1       25.074 -28.770  13.714  0.00  0.00    -0.080 S 
BRANCH  31  32
ATOM     32  C   LIG    1       23.573 -27.970  13.378  0.00  0.00    +0.209 A 
ATOM     33  N   LIG    1       23.362 -26.628  13.494  0.00  0.00    -0.223 N 
ATOM     34  C   LIG    1       24.256 -25.581  13.897  0.00  0.00    +0.177 C 
ATOM     35  N   LIG    1       22.088 -26.343  13.165  0.00  0.00    -0.043 NA
ATOM     36  N   LIG    1       21.542 -27.512  12.852  0.00  0.00    -0.022 NA
ATOM     37  N   LIG    1       22.455 -28.533  12.979  0.00  0.00    -0.102 NA
ENDBRANCH  31  32
ENDBRANCH  30  31
ENDBRANCH   5  30
TORSDOF 10
ENDMDL
MODEL 8
REMARK VINA RESULT:      -5.1      3.799      7.995
REMARK  Name = *****
REMARK                            x       y       z     vdW  Elec       q    Type
REMARK                         _______ _______ _______ _____ _____    ______ ____
ROOT
ATOM      1  CA  LIG    1       21.705 -32.523  10.529  0.00  0.00    +0.191 C 
ATOM      2  C   LIG    1       20.957 -33.190  11.735  0.00  0.00    +0.169 C 
ATOM      3  N   LIG    1       19.761 -32.423  11.371  0.00  0.00    -0.249 N 
ATOM      4  CA  LIG    1       18.889 -31.890  12.290  0.00  0.00    +0.123 C 
ATOM      5  C   LIG    1       19.313 -31.344  13.451  0.00  0.00    -0.021 C 
ATOM      6  C   LIG    1       20.774 -31.365  13.810  0.00  0.00    +0.104 C 
ATOM      7  S   LIG    1       21.606 -32.909  13.397  0.00  0.00    -0.131 S 
ATOM      8  C   LIG    1       20.472 -31.558  10.541  0.00  0.00    +0.244 C 
ATOM      9  O   LIG    1       20.178 -30.462  10.160  0.00  0.00    -0.273 OA
ENDROOT
BRANCH   1  11
ATOM     10  C   LIG    1       23.691 -31.215   9.734  0.00  0.00    +0.268 C 
ATOM     11  N   LIG    1       23.067 -31.939  10.745  0.00  0.00    -0.296 N 
ATOM     12  H   LIG    1       23.740 -32.417  11.364  0.00  0.00    +0.150 HD
ATOM     13  O   LIG    1       23.157 -30.949   8.670  0.00  0.00    -0.268 OA
BRANCH  10  15
ATOM     14  N   LIG    1       26.175 -31.345   9.473  0.00  0.00    -0.078 NA
ATOM     15  C   LIG    1       25.137 -30.759  10.006  0.00  0.00    +0.190 C 
BRANCH  15  16
ATOM     16  C   LIG    1       25.416 -29.593  10.862  0.00  0.00    +0.107 A 
ATOM     17  N   LIG    1       24.532 -29.200  11.880  0.00  0.00    -0.223 NA
ATOM     18  C   LIG    1       25.025 -28.202  12.571  0.00  0.00    +0.156 A 
ATOM     19  S   LIG    1       26.556 -27.637  12.052  0.00  0.00    -0.060 S 
ATOM     20  C   LIG    1       26.568 -28.825  10.818  0.00  0.00    +0.078 A 
BRANCH  18  21
ATOM     21  N   LIG    1       24.413 -27.665  13.640  0.00  0.00    -0.338 N 
ATOM     22  H   LIG    1       23.598 -28.169  13.968  0.00  0.00    +0.144 HD
ATOM     23  H   LIG    1       25.001 -27.308  14.384  0.00  0.00    +0.144 HD
ENDBRANCH  18  21
ENDBRANCH  15  16
BRANCH  14  25
ATOM     24  C   LIG    1       26.455 -32.069   7.324  0.00  0.00    +0.313 C 
ATOM     25  O   LIG    1       25.847 -32.369   8.578  0.00  0.00    -0.396 OA
ENDBRANCH  14  25
ENDBRANCH  10  15
ENDBRANCH   1  11
BRANCH   4  26
ATOM     26  C   LIG    1       17.451 -31.841  11.843  0.00  0.00    +0.351 C 
ATOM     27  O   LIG    1       16.546 -32.596  12.134  0.00  0.00    -0.244 OA
BRANCH  26  28
ATOM     28  OXT LIG    1       17.249 -30.826  10.973  0.00  0.00    -0.476 OA
ATOM     29  HXT LIG    1       17.685 -30.057  11.395  0.00  0.00    +0.295 HD
ENDBRANCH  26  28
ENDBRANCH   4  26
BRANCH   5  30
ATOM     30  C   LIG    1       18.478 -30.465  14.362  0.00  0.00    +0.111 C 
BRANCH  30  31
ATOM     31  S   LIG    1       19.467 -29.220  15.237  0.00  0.00    -0.080 S 
BRANCH  31  32
ATOM     32  C   LIG    1       18.659 -27.790  14.680  0.00  0.00    +0.209 A 
ATOM     33  N   LIG    1       19.220 -26.843  13.874  0.00  0.00    -0.223 N 
ATOM     34  C   LIG    1       20.536 -26.769  13.307  0.00  0.00    +0.177 C 
ATOM     35  N   LIG    1       18.324 -25.865  13.640  0.00  0.00    -0.043 NA
ATOM     36  N   LIG    1       17.233 -26.230  14.302  0.00  0.00    -0.022 NA
ATOM     37  N   LIG    1       17.427 -27.427  14.952  0.00  0.00    -0.102 NA
ENDBRANCH  31  32
ENDBRANCH  30  31
ENDBRANCH   5  30
TORSDOF 10
ENDMDL
MODEL 9
REMARK VINA RESULT:      -5.1      3.304      7.490
REMARK  Name = *****
REMARK                            x       y       z     vdW  Elec       q    Type
REMARK                         _______ _______ _______ _____ _____    ______ ____
ROOT
ATOM      1  CA  LIG    1       25.843 -29.789   8.182  0.00  0.00    +0.191 C 
ATOM      2  C   LIG    1       26.482 -30.240   9.541  0.00  0.00    +0.169 C 
ATOM      3  N   LIG    1       25.176 -30.775   9.936  0.00  0.00    -0.249 N 
ATOM      4  CA  LIG    1       24.686 -30.719  11.219  0.00  0.00    +0.123 C 
ATOM      5  C   LIG    1       24.878 -29.644  12.015  0.00  0.00    -0.021 C 
ATOM      6  C   LIG    1       25.707 -28.483  11.536  0.00  0.00    +0.104 C 
ATOM      7  S   LIG    1       27.178 -28.966  10.616  0.00  0.00    -0.131 S 
ATOM      8  C   LIG    1       24.501 -30.086   8.930  0.00  0.00    +0.244 C 
ATOM      9  O   LIG    1       23.341 -29.798   8.858  0.00  0.00    -0.273 OA
ENDROOT
BRANCH   1  11
ATOM     10  C   LIG    1       25.394 -27.913   6.579  0.00  0.00    +0.268 C 
ATOM     11  N   LIG    1       26.086 -28.397   7.684  0.00  0.00    -0.296 N 
ATOM     12  H   LIG    1       27.020 -27.969   7.787  0.00  0.00    +0.150 HD
ATOM     13  O   LIG    1       24.516 -28.540   6.008  0.00  0.00    -0.268 OA
BRANCH  10  15
ATOM     14  N   LIG    1       26.783 -26.328   5.232  0.00  0.00    -0.078 NA
ATOM     15  C   LIG    1       25.799 -26.517   6.070  0.00  0.00    +0.190 C 
BRANCH  15  16
ATOM     16  C   LIG    1       25.053 -25.315   6.481  0.00  0.00    +0.107 A 
ATOM     17  N   LIG    1       25.699 -24.210   7.059  0.00  0.00    -0.223 NA
ATOM     18  C   LIG    1       24.859 -23.225   7.256  0.00  0.00    +0.156 A 
ATOM     19  S   LIG    1       23.239 -23.539   6.797  0.00  0.00    -0.060 S 
ATOM     20  C   LIG    1       23.697 -25.108   6.284  0.00  0.00    +0.078 A 
BRANCH  18  21
ATOM     21  N   LIG    1       25.221 -22.027   7.744  0.00  0.00    -0.338 N 
ATOM     22  H   LIG    1       26.025 -21.603   7.296  0.00  0.00    +0.144 HD
ATOM     23  H   LIG    1       24.482 -21.370   7.966  0.00  0.00    +0.144 HD
ENDBRANCH  18  21
ENDBRANCH  15  16
BRANCH  14  25
ATOM     24  C   LIG    1       28.744 -27.232   4.484  0.00  0.00    +0.313 C 
ATOM     25  O   LIG    1       27.379 -27.513   4.786  0.00  0.00    -0.396 OA
ENDBRANCH  14  25
ENDBRANCH  10  15
ENDBRANCH   1  11
BRANCH   4  26
ATOM     26  C   LIG    1       23.813 -31.881  11.615  0.00  0.00    +0.351 C 
ATOM     27  O   LIG    1       22.649 -32.078  11.334  0.00  0.00    -0.244 OA
BRANCH  26  28
ATOM     28  OXT LIG    1       24.480 -32.733  12.427  0.00  0.00    -0.476 OA
ATOM     29  HXT LIG    1       24.273 -33.620  12.067  0.00  0.00    +0.295 HD
ENDBRANCH  26  28
ENDBRANCH   4  26
BRANCH   5  30
ATOM     30  C   LIG    1       24.124 -29.360  13.301  0.00  0.00    +0.111 C 
BRANCH  30  31
ATOM     31  S   LIG    1       25.208 -28.788  14.639  0.00  0.00    -0.080 S 
BRANCH  31  32
ATOM     32  C   LIG    1       26.352 -30.091  14.639  0.00  0.00    +0.209 A 
ATOM     33  N   LIG    1       27.704 -29.941  14.535  0.00  0.00    -0.223 N 
ATOM     34  C   LIG    1       28.497 -28.753  14.403  0.00  0.00    +0.177 C 
ATOM     35  N   LIG    1       28.293 -31.151  14.561  0.00  0.00    -0.043 NA
ATOM     36  N   LIG    1       27.296 -32.019  14.683  0.00  0.00    -0.022 NA
ATOM     37  N   LIG    1       26.083 -31.373  14.735  0.00  0.00    -0.102 NA
ENDBRANCH  31  32
ENDBRANCH  30  31
ENDBRANCH   5  30
TORSDOF 10
ENDMDL
