MODEL 1
REMARK VINA RESULT:      -9.0      0.000      0.000
REMARK  Name = *****
REMARK                            x       y       z     vdW  Elec       q    Type
REMARK                         _______ _______ _______ _____ _____    ______ ____
ROOT
ATOM      1  N   UNK A  1       28.522 -19.963   8.237  0.00  0.00    -0.294 NA
ATOM      2  H   UNK A  1       28.329 -19.043   8.650  0.00  0.00    +0.123 HD
ENDROOT
BRANCH   1   4
ATOM      3  C   UNK A  1       28.214 -19.934   5.762  0.00  0.00    +0.034 C 
ATOM      4  C   UNK A  1       27.531 -20.133   7.119  0.00  0.00    +0.138 C 
BRANCH   4   5
ATOM      5  C   UNK A  1       26.884 -21.539   7.160  0.00  0.00    +0.233 C 
ATOM      6  N   PRO A  2       25.566 -21.701   6.797  0.00  0.00    -0.287 N 
ATOM      7  CA  PRO A  2       24.809 -22.928   7.144  0.00  0.00    +0.184 C 
ATOM      8  CB  PRO A  2       23.337 -22.549   6.888  0.00  0.00    +0.035 C 
ATOM      9  CG  PRO A  2       23.327 -21.035   6.987  0.00  0.00    +0.021 C 
ATOM     10  CD  PRO A  2       24.644 -20.666   6.335  0.00  0.00    +0.109 C 
ATOM     11  O   UNK A  1       27.542 -22.524   7.515  0.00  0.00    -0.274 OA
BRANCH   7  12
ATOM     12  C   PRO A  2       25.154 -24.215   6.368  0.00  0.00    +0.326 C 
ATOM     13  O   PRO A  2       25.597 -25.226   6.899  0.00  0.00    -0.249 OA
BRANCH  12  14
ATOM     14  OXT PRO A  2       25.054 -24.124   5.024  0.00  0.00    -0.479 OA
ATOM     15  HXT PRO A  2       25.217 -23.207   4.698  0.00  0.00    +0.295 HD
ENDBRANCH  12  14
ENDBRANCH   7  12
ENDBRANCH   4   5
ENDBRANCH   1   4
BRANCH   1  16
ATOM     16  C   UNK A  1       29.940 -19.943   7.759  0.00  0.00    +0.164 C 
BRANCH  16  17
ATOM     17  C   UNK A  1       30.827 -20.771   8.724  0.00  0.00    +0.322 C 
ATOM     18  O   UNK A  1       31.942 -20.469   9.071  0.00  0.00    -0.249 OA
BRANCH  17  19
ATOM     19  O   UNK A  1       30.219 -21.929   9.116  0.00  0.00    -0.479 OA
ATOM     20  H   UNK A  1       30.420 -22.647   8.484  0.00  0.00    +0.295 HD
ENDBRANCH  17  19
ENDBRANCH  16  17
BRANCH  16  21
ATOM     21  C   UNK A  1       30.487 -18.494   7.718  0.00  0.00    +0.035 C 
BRANCH  21  22
ATOM     22  C   UNK A  1       29.939 -17.564   8.824  0.00  0.00    +0.037 C 
BRANCH  22  23
ATOM     23  C   UNK A  1       30.979 -17.100   9.811  0.00  0.00    -0.047 A 
ATOM     24  C   UNK A  1       32.111 -16.400   9.371  0.00  0.00    +0.003 A 
ATOM     25  C   UNK A  1       33.024 -15.873  10.283  0.00  0.00    +0.000 A 
ATOM     26  C   UNK A  1       32.840 -16.078  11.647  0.00  0.00    +0.000 A 
ATOM     27  C   UNK A  1       31.754 -16.828  12.096  0.00  0.00    +0.000 A 
ATOM     28  C   UNK A  1       30.822 -17.332  11.184  0.00  0.00    +0.003 A 
ENDBRANCH  22  23
ENDBRANCH  21  22
ENDBRANCH  16  21
ENDBRANCH   1  16
TORSDOF 10
ENDMDL
MODEL 2
REMARK VINA RESULT:      -8.4      2.199      7.733
REMARK  Name = *****
REMARK                            x       y       z     vdW  Elec       q    Type
REMARK                         _______ _______ _______ _____ _____    ______ ____
ROOT
ATOM      1  N   UNK A  1       26.917 -23.084   6.779  0.00  0.00    -0.294 NA
ATOM      2  H   UNK A  1       27.213 -22.897   5.814  0.00  0.00    +0.123 HD
ENDROOT
BRANCH   1   4
ATOM      3  C   UNK A  1       25.923 -21.812   8.679  0.00  0.00    +0.034 C 
ATOM      4  C   UNK A  1       26.852 -21.747   7.463  0.00  0.00    +0.138 C 
BRANCH   4   5
ATOM      5  C   UNK A  1       28.258 -21.289   7.921  0.00  0.00    +0.233 C 
ATOM      6  N   PRO A  2       28.845 -20.186   7.344  0.00  0.00    -0.287 N 
ATOM      7  CA  PRO A  2       30.296 -19.914   7.485  0.00  0.00    +0.184 C 
ATOM      8  CB  PRO A  2       30.584 -18.838   6.420  0.00  0.00    +0.035 C 
ATOM      9  CG  PRO A  2       29.463 -19.012   5.412  0.00  0.00    +0.021 C 
ATOM     10  CD  PRO A  2       28.281 -19.327   6.305  0.00  0.00    +0.109 C 
ATOM     11  O   UNK A  1       28.862 -21.905   8.809  0.00  0.00    -0.274 OA
BRANCH   7  12
ATOM     12  C   PRO A  2       30.794 -19.426   8.861  0.00  0.00    +0.326 C 
ATOM     13  O   PRO A  2       30.181 -18.628   9.557  0.00  0.00    -0.249 OA
BRANCH  12  14
ATOM     14  OXT PRO A  2       32.030 -19.845   9.209  0.00  0.00    -0.479 OA
ATOM     15  HXT PRO A  2       32.617 -19.972   8.426  0.00  0.00    +0.295 HD
ENDBRANCH  12  14
ENDBRANCH   7  12
ENDBRANCH   4   5
ENDBRANCH   1   4
BRANCH   1  16
ATOM     16  C   UNK A  1       25.587 -23.767   6.708  0.00  0.00    +0.164 C 
BRANCH  16  17
ATOM     17  C   UNK A  1       25.790 -25.277   6.417  0.00  0.00    +0.322 C 
ATOM     18  O   UNK A  1       25.970 -26.125   7.255  0.00  0.00    -0.249 OA
BRANCH  17  19
ATOM     19  O   UNK A  1       25.788 -25.547   5.078  0.00  0.00    -0.479 OA
ATOM     20  H   UNK A  1       26.704 -25.609   4.745  0.00  0.00    +0.295 HD
ENDBRANCH  17  19
ENDBRANCH  16  17
BRANCH  16  21
ATOM     21  C   UNK A  1       24.720 -23.164   5.574  0.00  0.00    +0.035 C 
BRANCH  21  22
ATOM     22  C   UNK A  1       23.629 -22.179   6.049  0.00  0.00    +0.037 C 
BRANCH  22  23
ATOM     23  C   UNK A  1       23.602 -20.875   5.293  0.00  0.00    -0.047 A 
ATOM     24  C   UNK A  1       24.693 -20.495   4.498  0.00  0.00    +0.003 A 
ATOM     25  C   UNK A  1       24.637 -19.347   3.710  0.00  0.00    +0.000 A 
ATOM     26  C   UNK A  1       23.507 -18.536   3.743  0.00  0.00    +0.000 A 
ATOM     27  C   UNK A  1       22.441 -18.867   4.579  0.00  0.00    +0.000 A 
ATOM     28  C   UNK A  1       22.484 -20.033   5.347  0.00  0.00    +0.003 A 
ENDBRANCH  22  23
ENDBRANCH  21  22
ENDBRANCH  16  21
ENDBRANCH   1  16
TORSDOF 10
ENDMDL
MODEL 3
REMARK VINA RESULT:      -8.2      1.833      2.203
REMARK  Name = *****
REMARK                            x       y       z     vdW  Elec       q    Type
REMARK                         _______ _______ _______ _____ _____    ______ ____
ROOT
ATOM      1  N   UNK A  1       29.617 -20.510   6.879  0.00  0.00    -0.294 NA
ATOM      2  H   UNK A  1       29.066 -21.177   7.432  0.00  0.00    +0.123 HD
ENDROOT
BRANCH   1   4
ATOM      3  C   UNK A  1       29.307 -18.499   5.437  0.00  0.00    +0.034 C 
ATOM      4  C   UNK A  1       28.674 -19.402   6.501  0.00  0.00    +0.138 C 
BRANCH   4   5
ATOM      5  C   UNK A  1       27.340 -19.969   5.957  0.00  0.00    +0.233 C 
ATOM      6  N   PRO A  2       26.393 -20.455   6.830  0.00  0.00    -0.287 N 
ATOM      7  CA  PRO A  2       25.275 -21.313   6.365  0.00  0.00    +0.184 C 
ATOM      8  CB  PRO A  2       24.696 -21.913   7.660  0.00  0.00    +0.035 C 
ATOM      9  CG  PRO A  2       25.843 -21.826   8.650  0.00  0.00    +0.021 C 
ATOM     10  CD  PRO A  2       26.473 -20.496   8.288  0.00  0.00    +0.109 C 
ATOM     11  O   UNK A  1       27.114 -19.988   4.741  0.00  0.00    -0.274 OA
BRANCH   7  12
ATOM     12  C   PRO A  2       24.149 -20.633   5.560  0.00  0.00    +0.326 C 
ATOM     13  O   PRO A  2       23.135 -20.175   6.070  0.00  0.00    -0.249 OA
BRANCH  12  14
ATOM     14  OXT PRO A  2       24.290 -20.680   4.217  0.00  0.00    -0.479 OA
ATOM     15  HXT PRO A  2       23.459 -20.437   3.745  0.00  0.00    +0.295 HD
ENDBRANCH  12  14
ENDBRANCH   7  12
ENDBRANCH   4   5
ENDBRANCH   1   4
BRANCH   1  16
ATOM     16  C   UNK A  1       30.745 -20.044   7.746  0.00  0.00    +0.164 C 
BRANCH  16  17
ATOM     17  C   UNK A  1       31.070 -21.128   8.806  0.00  0.00    +0.322 C 
ATOM     18  O   UNK A  1       32.174 -21.380   9.222  0.00  0.00    -0.249 OA
BRANCH  17  19
ATOM     19  O   UNK A  1       29.957 -21.815   9.197  0.00  0.00    -0.479 OA
ATOM     20  H   UNK A  1       29.263 -21.195   9.492  0.00  0.00    +0.295 HD
ENDBRANCH  17  19
ENDBRANCH  16  17
BRANCH  16  21
ATOM     21  C   UNK A  1       30.366 -18.737   8.486  0.00  0.00    +0.035 C 
BRANCH  21  22
ATOM     22  C   UNK A  1       31.463 -17.648   8.478  0.00  0.00    +0.037 C 
BRANCH  22  23
ATOM     23  C   UNK A  1       31.820 -17.122   9.844  0.00  0.00    -0.047 A 
ATOM     24  C   UNK A  1       32.765 -16.095   9.982  0.00  0.00    +0.003 A 
ATOM     25  C   UNK A  1       33.025 -15.526  11.228  0.00  0.00    +0.000 A 
ATOM     26  C   UNK A  1       32.376 -16.007  12.360  0.00  0.00    +0.000 A 
ATOM     27  C   UNK A  1       31.482 -17.071  12.247  0.00  0.00    +0.000 A 
ATOM     28  C   UNK A  1       31.199 -17.623  10.996  0.00  0.00    +0.003 A 
ENDBRANCH  22  23
ENDBRANCH  21  22
ENDBRANCH  16  21
ENDBRANCH   1  16
TORSDOF 10
ENDMDL
MODEL 4
REMARK VINA RESULT:      -8.0      2.136      7.705
REMARK  Name = *****
REMARK                            x       y       z     vdW  Elec       q    Type
REMARK                         _______ _______ _______ _____ _____    ______ ____
ROOT
ATOM      1  N   UNK A  1       26.190 -21.722   6.329  0.00  0.00    -0.294 NA
ATOM      2  H   UNK A  1       25.806 -21.175   5.550  0.00  0.00    +0.123 HD
ENDROOT
BRANCH   1   4
ATOM      3  C   UNK A  1       26.141 -20.542   8.525  0.00  0.00    +0.034 C 
ATOM      4  C   UNK A  1       26.907 -20.741   7.214  0.00  0.00    +0.138 C 
BRANCH   4   5
ATOM      5  C   UNK A  1       28.342 -21.226   7.532  0.00  0.00    +0.233 C 
ATOM      6  N   PRO A  2       29.261 -20.353   8.070  0.00  0.00    -0.287 N 
ATOM      7  CA  PRO A  2       30.713 -20.653   8.068  0.00  0.00    +0.184 C 
ATOM      8  CB  PRO A  2       31.378 -19.306   8.410  0.00  0.00    +0.035 C 
ATOM      9  CG  PRO A  2       30.340 -18.274   8.009  0.00  0.00    +0.021 C 
ATOM     10  CD  PRO A  2       29.047 -18.950   8.417  0.00  0.00    +0.109 C 
ATOM     11  O   UNK A  1       28.674 -22.397   7.310  0.00  0.00    -0.274 OA
BRANCH   7  12
ATOM     12  C   PRO A  2       31.212 -21.739   9.043  0.00  0.00    +0.326 C 
ATOM     13  O   PRO A  2       30.835 -21.831  10.203  0.00  0.00    -0.249 OA
BRANCH  12  14
ATOM     14  OXT PRO A  2       32.202 -22.528   8.570  0.00  0.00    -0.479 OA
ATOM     15  HXT PRO A  2       32.108 -23.464   8.865  0.00  0.00    +0.295 HD
ENDBRANCH  12  14
ENDBRANCH   7  12
ENDBRANCH   4   5
ENDBRANCH   1   4
BRANCH   1  16
ATOM     16  C   UNK A  1       25.035 -22.386   7.013  0.00  0.00    +0.164 C 
BRANCH  16  17
ATOM     17  C   UNK A  1       25.159 -23.925   6.870  0.00  0.00    +0.322 C 
ATOM     18  O   UNK A  1       26.199 -24.531   6.783  0.00  0.00    -0.249 OA
BRANCH  17  19
ATOM     19  O   UNK A  1       23.940 -24.536   6.808  0.00  0.00    -0.479 OA
ATOM     20  H   UNK A  1       23.703 -24.907   7.679  0.00  0.00    +0.295 HD
ENDBRANCH  17  19
ENDBRANCH  16  17
BRANCH  16  21
ATOM     21  C   UNK A  1       23.692 -21.944   6.379  0.00  0.00    +0.035 C 
BRANCH  21  22
ATOM     22  C   UNK A  1       23.760 -21.644   4.865  0.00  0.00    +0.037 C 
BRANCH  22  23
ATOM     23  C   UNK A  1       23.528 -20.197   4.511  0.00  0.00    -0.047 A 
ATOM     24  C   UNK A  1       22.309 -19.578   4.825  0.00  0.00    +0.003 A 
ATOM     25  C   UNK A  1       22.123 -18.215   4.601  0.00  0.00    +0.000 A 
ATOM     26  C   UNK A  1       23.137 -17.462   4.017  0.00  0.00    +0.000 A 
ATOM     27  C   UNK A  1       24.329 -18.078   3.640  0.00  0.00    +0.000 A 
ATOM     28  C   UNK A  1       24.529 -19.438   3.891  0.00  0.00    +0.003 A 
ENDBRANCH  22  23
ENDBRANCH  21  22
ENDBRANCH  16  21
ENDBRANCH   1  16
TORSDOF 10
ENDMDL
MODEL 5
REMARK VINA RESULT:      -7.9      2.474      3.159
REMARK  Name = *****
REMARK                            x       y       z     vdW  Elec       q    Type
REMARK                         _______ _______ _______ _____ _____    ______ ____
ROOT
ATOM      1  N   UNK A  1       28.346 -21.029   6.393  0.00  0.00    -0.294 NA
ATOM      2  H   UNK A  1       28.877 -21.870   6.646  0.00  0.00    +0.123 HD
ENDROOT
BRANCH   1   4
ATOM      3  C   UNK A  1       26.821 -20.373   8.253  0.00  0.00    +0.034 C 
ATOM      4  C   UNK A  1       26.974 -21.209   6.979  0.00  0.00    +0.138 C 
BRANCH   4   5
ATOM      5  C   UNK A  1       25.879 -20.795   5.966  0.00  0.00    +0.233 C 
ATOM      6  N   PRO A  2       24.562 -21.121   6.204  0.00  0.00    -0.287 N 
ATOM      7  CA  PRO A  2       23.541 -21.066   5.130  0.00  0.00    +0.184 C 
ATOM      8  CB  PRO A  2       22.339 -21.835   5.711  0.00  0.00    +0.035 C 
ATOM      9  CG  PRO A  2       22.955 -22.731   6.769  0.00  0.00    +0.021 C 
ATOM     10  CD  PRO A  2       24.024 -21.834   7.360  0.00  0.00    +0.109 C 
ATOM     11  O   UNK A  1       26.174 -20.169   4.941  0.00  0.00    -0.274 OA
BRANCH   7  12
ATOM     12  C   PRO A  2       23.084 -19.670   4.660  0.00  0.00    +0.326 C 
ATOM     13  O   PRO A  2       22.194 -19.031   5.205  0.00  0.00    -0.249 OA
BRANCH  12  14
ATOM     14  OXT PRO A  2       23.650 -19.233   3.513  0.00  0.00    -0.479 OA
ATOM     15  HXT PRO A  2       24.145 -19.946   3.045  0.00  0.00    +0.295 HD
ENDBRANCH  12  14
ENDBRANCH   7  12
ENDBRANCH   4   5
ENDBRANCH   1   4
BRANCH   1  16
ATOM     16  C   UNK A  1       29.076 -19.857   6.971  0.00  0.00    +0.164 C 
BRANCH  16  17
ATOM     17  C   UNK A  1       29.429 -18.853   5.842  0.00  0.00    +0.322 C 
ATOM     18  O   UNK A  1       30.479 -18.268   5.739  0.00  0.00    -0.249 OA
BRANCH  17  19
ATOM     19  O   UNK A  1       28.387 -18.661   4.981  0.00  0.00    -0.479 OA
ATOM     20  H   UNK A  1       27.552 -18.566   5.477  0.00  0.00    +0.295 HD
ENDBRANCH  17  19
ENDBRANCH  16  17
BRANCH  16  21
ATOM     21  C   UNK A  1       30.394 -20.309   7.650  0.00  0.00    +0.035 C 
BRANCH  21  22
ATOM     22  C   UNK A  1       30.457 -20.054   9.172  0.00  0.00    +0.037 C 
BRANCH  22  23
ATOM     23  C   UNK A  1       30.952 -18.681   9.548  0.00  0.00    -0.047 A 
ATOM     24  C   UNK A  1       31.975 -18.069   8.808  0.00  0.00    +0.003 A 
ATOM     25  C   UNK A  1       32.366 -16.759   9.078  0.00  0.00    +0.000 A 
ATOM     26  C   UNK A  1       31.772 -16.058  10.123  0.00  0.00    +0.000 A 
ATOM     27  C   UNK A  1       30.799 -16.676  10.908  0.00  0.00    +0.000 A 
ATOM     28  C   UNK A  1       30.385 -17.979  10.620  0.00  0.00    +0.003 A 
ENDBRANCH  22  23
ENDBRANCH  21  22
ENDBRANCH  16  21
ENDBRANCH   1  16
TORSDOF 10
ENDMDL
MODEL 6
REMARK VINA RESULT:      -7.8      6.796     10.060
REMARK  Name = *****
REMARK                            x       y       z     vdW  Elec       q    Type
REMARK                         _______ _______ _______ _____ _____    ______ ____
ROOT
ATOM      1  N   UNK A  1       25.915 -28.887   7.733  0.00  0.00    -0.294 NA
ATOM      2  H   UNK A  1       26.544 -28.104   7.945  0.00  0.00    +0.123 HD
ENDROOT
BRANCH   1   4
ATOM      3  C   UNK A  1       24.965 -30.850   8.943  0.00  0.00    +0.034 C 
ATOM      4  C   UNK A  1       25.417 -29.391   9.059  0.00  0.00    +0.138 C 
BRANCH   4   5
ATOM      5  C   UNK A  1       26.517 -29.285  10.143  0.00  0.00    +0.233 C 
ATOM      6  N   PRO A  2       26.172 -29.037  11.452  0.00  0.00    -0.287 N 
ATOM      7  CA  PRO A  2       27.173 -28.584  12.448  0.00  0.00    +0.184 C 
ATOM      8  CB  PRO A  2       26.328 -28.088  13.637  0.00  0.00    +0.035 C 
ATOM      9  CG  PRO A  2       24.982 -27.759  13.016  0.00  0.00    +0.021 C 
ATOM     10  CD  PRO A  2       24.826 -28.867  11.994  0.00  0.00    +0.109 C 
ATOM     11  O   UNK A  1       27.710 -29.423   9.844  0.00  0.00    -0.274 OA
BRANCH   7  12
ATOM     12  C   PRO A  2       28.200 -29.624  12.942  0.00  0.00    +0.326 C 
ATOM     13  O   PRO A  2       28.016 -30.349  13.910  0.00  0.00    -0.249 OA
BRANCH  12  14
ATOM     14  OXT PRO A  2       29.392 -29.605  12.306  0.00  0.00    -0.479 OA
ATOM     15  HXT PRO A  2       29.693 -28.688  12.102  0.00  0.00    +0.295 HD
ENDBRANCH  12  14
ENDBRANCH   7  12
ENDBRANCH   4   5
ENDBRANCH   1   4
BRANCH   1  16
ATOM     16  C   UNK A  1       24.819 -28.352   6.865  0.00  0.00    +0.164 C 
BRANCH  16  17
ATOM     17  C   UNK A  1       24.523 -29.355   5.721  0.00  0.00    +0.322 C 
ATOM     18  O   UNK A  1       25.358 -29.977   5.112  0.00  0.00    -0.249 OA
BRANCH  17  19
ATOM     19  O   UNK A  1       23.190 -29.431   5.435  0.00  0.00    -0.479 OA
ATOM     20  H   UNK A  1       22.820 -30.270   5.770  0.00  0.00    +0.295 HD
ENDBRANCH  17  19
ENDBRANCH  16  17
BRANCH  16  21
ATOM     21  C   UNK A  1       25.230 -26.998   6.233  0.00  0.00    +0.035 C 
BRANCH  21  22
ATOM     22  C   UNK A  1       24.056 -26.036   5.946  0.00  0.00    +0.037 C 
BRANCH  22  23
ATOM     23  C   UNK A  1       24.221 -24.663   6.546  0.00  0.00    -0.047 A 
ATOM     24  C   UNK A  1       25.481 -24.227   6.981  0.00  0.00    +0.003 A 
ATOM     25  C   UNK A  1       25.667 -22.923   7.437  0.00  0.00    +0.000 A 
ATOM     26  C   UNK A  1       24.585 -22.051   7.508  0.00  0.00    +0.000 A 
ATOM     27  C   UNK A  1       23.314 -22.492   7.141  0.00  0.00    +0.000 A 
ATOM     28  C   UNK A  1       23.131 -23.789   6.656  0.00  0.00    +0.003 A 
ENDBRANCH  22  23
ENDBRANCH  21  22
ENDBRANCH  16  21
ENDBRANCH   1  16
TORSDOF 10
ENDMDL
MODEL 7
REMARK VINA RESULT:      -7.8      2.238      3.072
REMARK  Name = *****
REMARK                            x       y       z     vdW  Elec       q    Type
REMARK                         _______ _______ _______ _____ _____    ______ ____
ROOT
ATOM      1  N   UNK A  1       28.397 -21.196   6.678  0.00  0.00    -0.294 NA
ATOM      2  H   UNK A  1       29.116 -21.911   6.840  0.00  0.00    +0.123 HD
ENDROOT
BRANCH   1   4
ATOM      3  C   UNK A  1       27.097 -20.356   8.633  0.00  0.00    +0.034 C 
ATOM      4  C   UNK A  1       27.280 -21.504   7.635  0.00  0.00    +0.138 C 
BRANCH   4   5
ATOM      5  C   UNK A  1       25.949 -21.736   6.879  0.00  0.00    +0.233 C 
ATOM      6  N   PRO A  2       25.439 -23.009   6.758  0.00  0.00    -0.287 N 
ATOM      7  CA  PRO A  2       24.383 -23.333   5.769  0.00  0.00    +0.184 C 
ATOM      8  CB  PRO A  2       24.375 -24.872   5.714  0.00  0.00    +0.035 C 
ATOM      9  CG  PRO A  2       25.758 -25.263   6.200  0.00  0.00    +0.021 C 
ATOM     10  CD  PRO A  2       26.010 -24.244   7.292  0.00  0.00    +0.109 C 
ATOM     11  O   UNK A  1       25.334 -20.785   6.383  0.00  0.00    -0.274 OA
BRANCH   7  12
ATOM     12  C   PRO A  2       22.959 -22.818   6.061  0.00  0.00    +0.326 C 
ATOM     13  O   PRO A  2       22.595 -21.671   5.835  0.00  0.00    -0.249 OA
BRANCH  12  14
ATOM     14  OXT PRO A  2       22.152 -23.687   6.708  0.00  0.00    -0.479 OA
ATOM     15  HXT PRO A  2       22.466 -23.880   7.623  0.00  0.00    +0.295 HD
ENDBRANCH  12  14
ENDBRANCH   7  12
ENDBRANCH   4   5
ENDBRANCH   1   4
BRANCH   1  16
ATOM     16  C   UNK A  1       29.034 -19.866   6.936  0.00  0.00    +0.164 C 
BRANCH  16  17
ATOM     17  C   UNK A  1       28.914 -18.977   5.671  0.00  0.00    +0.322 C 
ATOM     18  O   UNK A  1       29.657 -18.069   5.390  0.00  0.00    -0.249 OA
BRANCH  17  19
ATOM     19  O   UNK A  1       27.827 -19.305   4.912  0.00  0.00    -0.479 OA
ATOM     20  H   UNK A  1       27.107 -19.640   5.481  0.00  0.00    +0.295 HD
ENDBRANCH  17  19
ENDBRANCH  16  17
BRANCH  16  21
ATOM     21  C   UNK A  1       30.536 -20.031   7.275  0.00  0.00    +0.035 C 
BRANCH  21  22
ATOM     22  C   UNK A  1       30.865 -20.005   8.784  0.00  0.00    +0.037 C 
BRANCH  22  23
ATOM     23  C   UNK A  1       31.126 -18.627   9.336  0.00  0.00    -0.047 A 
ATOM     24  C   UNK A  1       30.400 -18.156  10.440  0.00  0.00    +0.003 A 
ATOM     25  C   UNK A  1       30.706 -16.929  11.026  0.00  0.00    +0.000 A 
ATOM     26  C   UNK A  1       31.713 -16.134  10.487  0.00  0.00    +0.000 A 
ATOM     27  C   UNK A  1       32.399 -16.560   9.350  0.00  0.00    +0.000 A 
ATOM     28  C   UNK A  1       32.113 -17.802   8.780  0.00  0.00    +0.003 A 
ENDBRANCH  22  23
ENDBRANCH  21  22
ENDBRANCH  16  21
ENDBRANCH   1  16
TORSDOF 10
ENDMDL
MODEL 8
REMARK VINA RESULT:      -7.7      2.595      8.894
REMARK  Name = *****
REMARK                            x       y       z     vdW  Elec       q    Type
REMARK                         _______ _______ _______ _____ _____    ______ ____
ROOT
ATOM      1  N   UNK A  1       26.030 -22.556   7.576  0.00  0.00    -0.294 NA
ATOM      2  H   UNK A  1       26.816 -23.191   7.394  0.00  0.00    +0.123 HD
ENDROOT
BRANCH   1   4
ATOM      3  C   UNK A  1       25.881 -20.328   8.685  0.00  0.00    +0.034 C 
ATOM      4  C   UNK A  1       26.617 -21.174   7.641  0.00  0.00    +0.138 C 
BRANCH   4   5
ATOM      5  C   UNK A  1       28.122 -21.226   8.000  0.00  0.00    +0.233 C 
ATOM      6  N   PRO A  2       28.972 -20.241   7.549  0.00  0.00    -0.287 N 
ATOM      7  CA  PRO A  2       30.444 -20.419   7.560  0.00  0.00    +0.184 C 
ATOM      8  CB  PRO A  2       30.969 -19.281   6.663  0.00  0.00    +0.035 C 
ATOM      9  CG  PRO A  2       29.784 -18.934   5.781  0.00  0.00    +0.021 C 
ATOM     10  CD  PRO A  2       28.622 -19.074   6.743  0.00  0.00    +0.109 C 
ATOM     11  O   UNK A  1       28.572 -22.147   8.693  0.00  0.00    -0.274 OA
BRANCH   7  12
ATOM     12  C   PRO A  2       31.152 -20.369   8.928  0.00  0.00    +0.326 C 
ATOM     13  O   PRO A  2       31.906 -19.466   9.267  0.00  0.00    -0.249 OA
BRANCH  12  14
ATOM     14  OXT PRO A  2       30.988 -21.463   9.704  0.00  0.00    -0.479 OA
ATOM     15  HXT PRO A  2       30.037 -21.693   9.830  0.00  0.00    +0.295 HD
ENDBRANCH  12  14
ENDBRANCH   7  12
ENDBRANCH   4   5
ENDBRANCH   1   4
BRANCH   1  16
ATOM     16  C   UNK A  1       25.059 -22.723   6.449  0.00  0.00    +0.164 C 
BRANCH  16  17
ATOM     17  C   UNK A  1       23.609 -22.659   6.996  0.00  0.00    +0.322 C 
ATOM     18  O   UNK A  1       23.194 -21.824   7.762  0.00  0.00    -0.249 OA
BRANCH  17  19
ATOM     19  O   UNK A  1       22.843 -23.696   6.546  0.00  0.00    -0.479 OA
ATOM     20  H   UNK A  1       22.040 -23.785   7.095  0.00  0.00    +0.295 HD
ENDBRANCH  17  19
ENDBRANCH  16  17
BRANCH  16  21
ATOM     21  C   UNK A  1       25.256 -24.092   5.751  0.00  0.00    +0.035 C 
BRANCH  21  22
ATOM     22  C   UNK A  1       26.062 -25.125   6.569  0.00  0.00    +0.037 C 
BRANCH  22  23
ATOM     23  C   UNK A  1       25.479 -26.515   6.554  0.00  0.00    -0.047 A 
ATOM     24  C   UNK A  1       24.575 -26.893   5.551  0.00  0.00    +0.003 A 
ATOM     25  C   UNK A  1       24.113 -28.206   5.463  0.00  0.00    +0.000 A 
ATOM     26  C   UNK A  1       24.515 -29.147   6.405  0.00  0.00    +0.000 A 
ATOM     27  C   UNK A  1       25.363 -28.770   7.446  0.00  0.00    +0.000 A 
ATOM     28  C   UNK A  1       25.849 -27.462   7.518  0.00  0.00    +0.003 A 
ENDBRANCH  22  23
ENDBRANCH  21  22
ENDBRANCH  16  21
ENDBRANCH   1  16
TORSDOF 10
ENDMDL
MODEL 9
REMARK VINA RESULT:      -7.7      2.612      8.379
REMARK  Name = *****
REMARK                            x       y       z     vdW  Elec       q    Type
REMARK                         _______ _______ _______ _____ _____    ______ ____
ROOT
ATOM      1  N   UNK A  1       26.523 -22.248   6.660  0.00  0.00    -0.294 NA
ATOM      2  H   UNK A  1       27.243 -22.287   5.928  0.00  0.00    +0.123 HD
ENDROOT
BRANCH   1   4
ATOM      3  C   UNK A  1       25.874 -20.924   8.670  0.00  0.00    +0.034 C 
ATOM      4  C   UNK A  1       26.810 -21.008   7.460  0.00  0.00    +0.138 C 
BRANCH   4   5
ATOM      5  C   UNK A  1       28.277 -20.991   7.952  0.00  0.00    +0.233 C 
ATOM      6  N   PRO A  2       29.149 -20.034   7.484  0.00  0.00    -0.287 N 
ATOM      7  CA  PRO A  2       30.617 -20.176   7.640  0.00  0.00    +0.184 C 
ATOM      8  CB  PRO A  2       31.203 -19.117   6.687  0.00  0.00    +0.035 C 
ATOM      9  CG  PRO A  2       30.096 -18.882   5.675  0.00  0.00    +0.021 C 
ATOM     10  CD  PRO A  2       28.855 -18.957   6.541  0.00  0.00    +0.109 C 
ATOM     11  O   UNK A  1       28.678 -21.831   8.767  0.00  0.00    -0.274 OA
BRANCH   7  12
ATOM     12  C   PRO A  2       31.200 -19.979   9.054  0.00  0.00    +0.326 C 
ATOM     13  O   PRO A  2       30.830 -19.101   9.822  0.00  0.00    -0.249 OA
BRANCH  12  14
ATOM     14  OXT PRO A  2       32.252 -20.771   9.360  0.00  0.00    -0.479 OA
ATOM     15  HXT PRO A  2       31.998 -21.517   9.953  0.00  0.00    +0.295 HD
ENDBRANCH  12  14
ENDBRANCH   7  12
ENDBRANCH   4   5
ENDBRANCH   1   4
BRANCH   1  16
ATOM     16  C   UNK A  1       25.195 -22.202   5.971  0.00  0.00    +0.164 C 
BRANCH  16  17
ATOM     17  C   UNK A  1       24.894 -20.750   5.517  0.00  0.00    +0.322 C 
ATOM     18  O   UNK A  1       25.621 -20.073   4.833  0.00  0.00    -0.249 OA
BRANCH  17  19
ATOM     19  O   UNK A  1       23.710 -20.289   6.019  0.00  0.00    -0.479 OA
ATOM     20  H   UNK A  1       23.602 -19.341   5.811  0.00  0.00    +0.295 HD
ENDBRANCH  17  19
ENDBRANCH  16  17
BRANCH  16  21
ATOM     21  C   UNK A  1       24.064 -22.659   6.925  0.00  0.00    +0.035 C 
BRANCH  21  22
ATOM     22  C   UNK A  1       23.501 -24.068   6.633  0.00  0.00    +0.037 C 
BRANCH  22  23
ATOM     23  C   UNK A  1       24.535 -25.064   6.175  0.00  0.00    -0.047 A 
ATOM     24  C   UNK A  1       25.452 -25.604   7.088  0.00  0.00    +0.003 A 
ATOM     25  C   UNK A  1       26.341 -26.604   6.701  0.00  0.00    +0.000 A 
ATOM     26  C   UNK A  1       26.357 -27.046   5.381  0.00  0.00    +0.000 A 
ATOM     27  C   UNK A  1       25.496 -26.472   4.447  0.00  0.00    +0.000 A 
ATOM     28  C   UNK A  1       24.584 -25.490   4.841  0.00  0.00    +0.003 A 
ENDBRANCH  22  23
ENDBRANCH  21  22
ENDBRANCH  16  21
ENDBRANCH   1  16
TORSDOF 10
ENDMDL
