MODEL 1
REMARK VINA RESULT:      -8.2      0.000      0.000
REMARK  Name = *****
REMARK                            x       y       z     vdW  Elec       q    Type
REMARK                         _______ _______ _______ _____ _____    ______ ____
ROOT
ATOM      1  C   LIG    1       24.218 -23.922   6.655  0.00  0.00    +0.258 C 
ATOM      2  C   LIG    1       24.875 -22.760   7.523  0.00  0.00    +0.274 C 
ATOM      3  N   LIG    1       24.740 -21.886   6.358  0.00  0.00    -0.230 N 
ATOM      4  C   LIG    1       25.679 -20.895   6.146  0.00  0.00    +0.125 C 
ATOM      5  C   LIG    1       26.765 -20.785   6.948  0.00  0.00    -0.005 C 
ATOM      6  C   LIG    1       26.966 -21.722   8.121  0.00  0.00    +0.196 C 
ATOM      7  O   LIG    1       26.231 -22.926   7.972  0.00  0.00    -0.349 OA
ATOM      8  C   LIG    1       24.492 -22.899   5.484  0.00  0.00    +0.277 C 
ATOM      9  O   LIG    1       24.563 -22.990   4.264  0.00  0.00    -0.270 OA
ENDROOT
BRANCH   1  10
ATOM     10  N   LIG    1       25.031 -25.175   6.548  0.00  0.00    -0.276 N 
ATOM     11  H   LIG    1       25.861 -25.249   7.125  0.00  0.00    +0.152 HD
ATOM     12  C   LIG    1       24.603 -26.268   5.818  0.00  0.00    +0.234 C 
ATOM     13  O   LIG    1       23.542 -26.265   5.195  0.00  0.00    -0.275 OA
BRANCH  12  14
ATOM     14  C   LIG    1       25.528 -27.487   5.870  0.00  0.00    +0.213 C 
BRANCH  14  15
ATOM     15  C   LIG    1       25.433 -28.251   7.201  0.00  0.00    -0.025 A 
ATOM     16  C   LIG    1       24.448 -29.240   7.393  0.00  0.00    +0.008 A 
ATOM     17  C   LIG    1       24.401 -29.997   8.573  0.00  0.00    +0.045 A 
ATOM     18  C   LIG    1       25.326 -29.765   9.580  0.00  0.00    +0.117 A 
ATOM     19  C   LIG    1       26.286 -28.770   9.436  0.00  0.00    +0.045 A 
ATOM     20  C   LIG    1       26.339 -28.018   8.253  0.00  0.00    +0.008 A 
BRANCH  18  21
ATOM     21  O   LIG    1       25.259 -30.541  10.699  0.00  0.00    -0.507 OA
ATOM     22  H   LIG    1       24.961 -29.991  11.443  0.00  0.00    +0.292 HD
ENDBRANCH  18  21
ENDBRANCH  14  15
BRANCH  14  23
ATOM     23  C   LIG    1       26.950 -27.079   5.504  0.00  0.00    +0.321 C 
ATOM     24  O   LIG    1       27.665 -26.270   6.077  0.00  0.00    -0.250 OA
BRANCH  23  25
ATOM     25  O   LIG    1       27.466 -27.797   4.480  0.00  0.00    -0.480 OA
ATOM     26  H   LIG    1       27.492 -27.181   3.718  0.00  0.00    +0.295 HD
ENDBRANCH  23  25
ENDBRANCH  14  23
ENDBRANCH  12  14
ENDBRANCH   1  10
BRANCH   1  28
ATOM     27  C   LIG    1       21.922 -23.096   6.604  0.00  0.00    +0.197 C 
ATOM     28  O   LIG    1       22.803 -24.178   6.882  0.00  0.00    -0.348 OA
ENDBRANCH   1  28
BRANCH   4  29
ATOM     29  C   LIG    1       25.414 -19.932   5.023  0.00  0.00    +0.351 C 
ATOM     30  O   LIG    1       24.390 -19.301   4.818  0.00  0.00    -0.244 OA
BRANCH  29  31
ATOM     31  O   LIG    1       26.412 -19.884   4.126  0.00  0.00    -0.476 OA
ATOM     32  H   LIG    1       26.148 -20.545   3.454  0.00  0.00    +0.295 HD
ENDBRANCH  29  31
ENDBRANCH   4  29
BRANCH   5  33
ATOM     33  C   LIG    1       27.857 -19.747   6.814  0.00  0.00    +0.112 C 
BRANCH  33  34
ATOM     34  S   LIG    1       29.468 -20.449   6.314  0.00  0.00    -0.080 S 
BRANCH  34  35
ATOM     35  C   LIG    1       30.582 -19.658   7.371  0.00  0.00    +0.209 A 
ATOM     36  N   LIG    1       31.175 -20.216   8.469  0.00  0.00    -0.223 N 
ATOM     37  C   LIG    1       31.101 -21.546   9.002  0.00  0.00    +0.177 C 
ATOM     38  N   LIG    1       31.919 -19.283   9.097  0.00  0.00    -0.043 NA
ATOM     39  N   LIG    1       31.787 -18.184   8.366  0.00  0.00    -0.022 NA
ATOM     40  N   LIG    1       30.974 -18.408   7.278  0.00  0.00    -0.102 NA
ENDBRANCH  34  35
ENDBRANCH  33  34
ENDBRANCH   5  33
TORSDOF 12
ENDMDL
MODEL 2
REMARK VINA RESULT:      -7.5      4.122      9.748
REMARK  Name = *****
REMARK                            x       y       z     vdW  Elec       q    Type
REMARK                         _______ _______ _______ _____ _____    ______ ____
ROOT
ATOM      1  C   LIG    1       26.229 -26.611   6.394  0.00  0.00    +0.258 C 
ATOM      2  C   LIG    1       26.550 -27.785   7.420  0.00  0.00    +0.274 C 
ATOM      3  N   LIG    1       25.636 -28.633   6.655  0.00  0.00    -0.230 N 
ATOM      4  C   LIG    1       24.909 -29.607   7.311  0.00  0.00    +0.125 C 
ATOM      5  C   LIG    1       24.964 -29.722   8.659  0.00  0.00    -0.005 C 
ATOM      6  C   LIG    1       25.849 -28.811   9.485  0.00  0.00    +0.196 C 
ATOM      7  O   LIG    1       26.170 -27.613   8.796  0.00  0.00    -0.349 OA
ATOM      8  C   LIG    1       25.078 -27.602   5.962  0.00  0.00    +0.277 C 
ATOM      9  O   LIG    1       24.030 -27.481   5.340  0.00  0.00    -0.270 OA
ENDROOT
BRANCH   1  10
ATOM     10  N   LIG    1       25.720 -25.345   7.012  0.00  0.00    -0.276 N 
ATOM     11  H   LIG    1       25.859 -25.219   8.008  0.00  0.00    +0.152 HD
ATOM     12  C   LIG    1       25.221 -24.305   6.251  0.00  0.00    +0.234 C 
ATOM     13  O   LIG    1       25.143 -24.369   5.025  0.00  0.00    -0.275 OA
BRANCH  12  14
ATOM     14  C   LIG    1       24.805 -23.062   7.043  0.00  0.00    +0.213 C 
BRANCH  14  15
ATOM     15  C   LIG    1       24.247 -21.945   6.147  0.00  0.00    -0.025 A 
ATOM     16  C   LIG    1       22.860 -21.702   6.080  0.00  0.00    +0.008 A 
ATOM     17  C   LIG    1       22.346 -20.636   5.328  0.00  0.00    +0.045 A 
ATOM     18  C   LIG    1       23.209 -19.810   4.621  0.00  0.00    +0.117 A 
ATOM     19  C   LIG    1       24.578 -20.047   4.637  0.00  0.00    +0.045 A 
ATOM     20  C   LIG    1       25.093 -21.109   5.395  0.00  0.00    +0.008 A 
BRANCH  18  21
ATOM     21  O   LIG    1       22.668 -18.770   3.924  0.00  0.00    -0.507 OA
ATOM     22  H   LIG    1       21.703 -18.786   4.039  0.00  0.00    +0.292 HD
ENDBRANCH  18  21
ENDBRANCH  14  15
BRANCH  14  23
ATOM     23  C   LIG    1       25.949 -22.608   7.940  0.00  0.00    +0.321 C 
ATOM     24  O   LIG    1       27.141 -22.584   7.675  0.00  0.00    -0.250 OA
BRANCH  23  25
ATOM     25  O   LIG    1       25.531 -22.089   9.118  0.00  0.00    -0.480 OA
ATOM     26  H   LIG    1       24.821 -22.688   9.429  0.00  0.00    +0.295 HD
ENDBRANCH  23  25
ENDBRANCH  14  23
ENDBRANCH  12  14
ENDBRANCH   1  10
BRANCH   1  28
ATOM     27  C   LIG    1       27.388 -27.433   4.409  0.00  0.00    +0.197 C 
ATOM     28  O   LIG    1       27.215 -26.378   5.348  0.00  0.00    -0.348 OA
ENDBRANCH   1  28
BRANCH   4  29
ATOM     29  C   LIG    1       24.100 -30.545   6.460  0.00  0.00    +0.351 C 
ATOM     30  O   LIG    1       24.267 -31.746   6.323  0.00  0.00    -0.244 OA
BRANCH  29  31
ATOM     31  O   LIG    1       23.175 -29.915   5.718  0.00  0.00    -0.476 OA
ATOM     32  H   LIG    1       23.701 -29.477   5.020  0.00  0.00    +0.295 HD
ENDBRANCH  29  31
ENDBRANCH   4  29
BRANCH   5  33
ATOM     33  C   LIG    1       24.214 -30.743   9.487  0.00  0.00    +0.112 C 
BRANCH  33  34
ATOM     34  S   LIG    1       23.464 -30.043  10.998  0.00  0.00    -0.080 S 
BRANCH  34  35
ATOM     35  C   LIG    1       21.801 -30.482  10.847  0.00  0.00    +0.209 A 
ATOM     36  N   LIG    1       20.804 -30.147  11.719  0.00  0.00    -0.223 N 
ATOM     37  C   LIG    1       20.826 -29.340  12.906  0.00  0.00    +0.177 C 
ATOM     38  N   LIG    1       19.652 -30.729  11.327  0.00  0.00    -0.043 NA
ATOM     39  N   LIG    1       19.957 -31.387  10.216  0.00  0.00    -0.022 NA
ATOM     40  N   LIG    1       21.287 -31.227   9.895  0.00  0.00    -0.102 NA
ENDBRANCH  34  35
ENDBRANCH  33  34
ENDBRANCH   5  33
TORSDOF 12
ENDMDL
MODEL 3
REMARK VINA RESULT:      -7.3      4.179      9.423
REMARK  Name = *****
REMARK                            x       y       z     vdW  Elec       q    Type
REMARK                         _______ _______ _______ _____ _____    ______ ____
ROOT
ATOM      1  C   LIG    1       26.230 -26.626   6.421  0.00  0.00    +0.258 C 
ATOM      2  C   LIG    1       26.506 -27.808   7.451  0.00  0.00    +0.274 C 
ATOM      3  N   LIG    1       25.579 -28.631   6.674  0.00  0.00    -0.230 N 
ATOM      4  C   LIG    1       24.817 -29.585   7.320  0.00  0.00    +0.125 C 
ATOM      5  C   LIG    1       24.851 -29.701   8.669  0.00  0.00    -0.005 C 
ATOM      6  C   LIG    1       25.749 -28.814   9.507  0.00  0.00    +0.196 C 
ATOM      7  O   LIG    1       26.111 -27.625   8.822  0.00  0.00    -0.349 OA
ATOM      8  C   LIG    1       25.058 -27.585   5.974  0.00  0.00    +0.277 C 
ATOM      9  O   LIG    1       24.023 -27.436   5.338  0.00  0.00    -0.270 OA
ENDROOT
BRANCH   1  10
ATOM     10  N   LIG    1       25.747 -25.347   7.033  0.00  0.00    -0.276 N 
ATOM     11  H   LIG    1       25.899 -25.213   8.026  0.00  0.00    +0.152 HD
ATOM     12  C   LIG    1       25.255 -24.307   6.266  0.00  0.00    +0.234 C 
ATOM     13  O   LIG    1       25.162 -24.381   5.042  0.00  0.00    -0.275 OA
BRANCH  12  14
ATOM     14  C   LIG    1       24.866 -23.050   7.051  0.00  0.00    +0.213 C 
BRANCH  14  15
ATOM     15  C   LIG    1       24.287 -21.944   6.154  0.00  0.00    -0.025 A 
ATOM     16  C   LIG    1       22.896 -21.731   6.083  0.00  0.00    +0.008 A 
ATOM     17  C   LIG    1       22.361 -20.676   5.331  0.00  0.00    +0.045 A 
ATOM     18  C   LIG    1       23.207 -19.831   4.627  0.00  0.00    +0.117 A 
ATOM     19  C   LIG    1       24.581 -20.039   4.645  0.00  0.00    +0.045 A 
ATOM     20  C   LIG    1       25.117 -21.090   5.404  0.00  0.00    +0.008 A 
BRANCH  18  21
ATOM     21  O   LIG    1       22.646 -18.803   3.928  0.00  0.00    -0.507 OA
ATOM     22  H   LIG    1       22.921 -18.871   2.999  0.00  0.00    +0.292 HD
ENDBRANCH  18  21
ENDBRANCH  14  15
BRANCH  14  23
ATOM     23  C   LIG    1       26.037 -22.587   7.908  0.00  0.00    +0.321 C 
ATOM     24  O   LIG    1       27.221 -22.567   7.606  0.00  0.00    -0.250 OA
BRANCH  23  25
ATOM     25  O   LIG    1       25.655 -22.054   9.092  0.00  0.00    -0.480 OA
ATOM     26  H   LIG    1       25.668 -21.084   8.957  0.00  0.00    +0.295 HD
ENDBRANCH  23  25
ENDBRANCH  14  23
ENDBRANCH  12  14
ENDBRANCH   1  10
BRANCH   1  28
ATOM     27  C   LIG    1       27.260 -27.383   4.342  0.00  0.00    +0.197 C 
ATOM     28  O   LIG    1       27.236 -26.420   5.388  0.00  0.00    -0.348 OA
ENDBRANCH   1  28
BRANCH   4  29
ATOM     29  C   LIG    1       23.995 -30.501   6.459  0.00  0.00    +0.351 C 
ATOM     30  O   LIG    1       24.092 -31.715   6.370  0.00  0.00    -0.244 OA
BRANCH  29  31
ATOM     31  O   LIG    1       23.151 -29.843   5.647  0.00  0.00    -0.476 OA
ATOM     32  H   LIG    1       23.133 -30.395   4.840  0.00  0.00    +0.295 HD
ENDBRANCH  29  31
ENDBRANCH   4  29
BRANCH   5  33
ATOM     33  C   LIG    1       24.063 -30.701   9.486  0.00  0.00    +0.112 C 
BRANCH  33  34
ATOM     34  S   LIG    1       23.738 -30.146  11.195  0.00  0.00    -0.080 S 
BRANCH  34  35
ATOM     35  C   LIG    1       24.896 -31.032  12.120  0.00  0.00    +0.209 A 
ATOM     36  N   LIG    1       24.824 -32.360  12.431  0.00  0.00    -0.223 N 
ATOM     37  C   LIG    1       23.864 -33.360  12.061  0.00  0.00    +0.177 C 
ATOM     38  N   LIG    1       25.858 -32.689  13.232  0.00  0.00    -0.043 NA
ATOM     39  N   LIG    1       26.553 -31.569  13.378  0.00  0.00    -0.022 NA
ATOM     40  N   LIG    1       25.977 -30.533  12.677  0.00  0.00    -0.102 NA
ENDBRANCH  34  35
ENDBRANCH  33  34
ENDBRANCH   5  33
TORSDOF 12
ENDMDL
MODEL 4
REMARK VINA RESULT:      -7.3      4.751      8.425
REMARK  Name = *****
REMARK                            x       y       z     vdW  Elec       q    Type
REMARK                         _______ _______ _______ _____ _____    ______ ____
ROOT
ATOM      1  C   LIG    1       25.890 -29.942   8.417  0.00  0.00    +0.258 C 
ATOM      2  C   LIG    1       26.697 -30.408   9.708  0.00  0.00    +0.274 C 
ATOM      3  N   LIG    1       25.421 -30.457  10.423  0.00  0.00    -0.230 N 
ATOM      4  C   LIG    1       25.391 -30.166  11.772  0.00  0.00    +0.125 C 
ATOM      5  C   LIG    1       26.507 -29.748  12.417  0.00  0.00    -0.005 C 
ATOM      6  C   LIG    1       27.828 -29.621  11.685  0.00  0.00    +0.196 C 
ATOM      7  O   LIG    1       27.651 -29.498  10.283  0.00  0.00    -0.349 OA
ATOM      8  C   LIG    1       24.735 -29.758   9.477  0.00  0.00    +0.277 C 
ATOM      9  O   LIG    1       23.677 -29.140   9.495  0.00  0.00    -0.270 OA
ENDROOT
BRANCH   1  10
ATOM     10  N   LIG    1       26.348 -28.651   7.811  0.00  0.00    -0.276 N 
ATOM     11  H   LIG    1       27.309 -28.371   7.969  0.00  0.00    +0.152 HD
ATOM     12  C   LIG    1       25.559 -27.932   6.932  0.00  0.00    +0.234 C 
ATOM     13  O   LIG    1       24.427 -28.298   6.618  0.00  0.00    -0.275 OA
BRANCH  12  14
ATOM     14  C   LIG    1       26.210 -26.670   6.359  0.00  0.00    +0.213 C 
BRANCH  14  15
ATOM     15  C   LIG    1       25.355 -25.411   6.570  0.00  0.00    -0.025 A 
ATOM     16  C   LIG    1       23.962 -25.444   6.357  0.00  0.00    +0.008 A 
ATOM     17  C   LIG    1       23.162 -24.323   6.622  0.00  0.00    +0.045 A 
ATOM     18  C   LIG    1       23.743 -23.153   7.088  0.00  0.00    +0.117 A 
ATOM     19  C   LIG    1       25.119 -23.077   7.271  0.00  0.00    +0.045 A 
ATOM     20  C   LIG    1       25.920 -24.200   7.014  0.00  0.00    +0.008 A 
BRANCH  18  21
ATOM     21  O   LIG    1       22.924 -22.096   7.356  0.00  0.00    -0.507 OA
ATOM     22  H   LIG    1       22.361 -22.323   8.116  0.00  0.00    +0.292 HD
ENDBRANCH  18  21
ENDBRANCH  14  15
BRANCH  14  23
ATOM     23  C   LIG    1       26.604 -26.901   4.905  0.00  0.00    +0.321 C 
ATOM     24  O   LIG    1       25.949 -26.648   3.905  0.00  0.00    -0.250 OA
BRANCH  23  25
ATOM     25  O   LIG    1       27.874 -27.345   4.759  0.00  0.00    -0.480 OA
ATOM     26  H   LIG    1       27.897 -27.784   3.883  0.00  0.00    +0.295 HD
ENDBRANCH  23  25
ENDBRANCH  14  23
ENDBRANCH  12  14
ENDBRANCH   1  10
BRANCH   1  28
ATOM     27  C   LIG    1       26.555 -32.027   7.337  0.00  0.00    +0.197 C 
ATOM     28  O   LIG    1       25.608 -30.970   7.425  0.00  0.00    -0.348 OA
ENDBRANCH   1  28
BRANCH   4  29
ATOM     29  C   LIG    1       24.086 -30.375  12.488  0.00  0.00    +0.351 C 
ATOM     30  O   LIG    1       23.272 -29.522  12.802  0.00  0.00    -0.244 OA
BRANCH  29  31
ATOM     31  O   LIG    1       23.905 -31.644  12.889  0.00  0.00    -0.476 OA
ATOM     32  H   LIG    1       23.037 -31.619  13.340  0.00  0.00    +0.295 HD
ENDBRANCH  29  31
ENDBRANCH   4  29
BRANCH   5  33
ATOM     33  C   LIG    1       26.597 -29.398  13.886  0.00  0.00    +0.112 C 
BRANCH  33  34
ATOM     34  S   LIG    1       27.608 -27.914  14.217  0.00  0.00    -0.080 S 
BRANCH  34  35
ATOM     35  C   LIG    1       26.490 -26.619  13.979  0.00  0.00    +0.209 A 
ATOM     36  N   LIG    1       26.782 -25.286  14.056  0.00  0.00    -0.223 N 
ATOM     37  C   LIG    1       28.026 -24.609  14.284  0.00  0.00    +0.177 C 
ATOM     38  N   LIG    1       25.650 -24.571  13.893  0.00  0.00    -0.043 NA
ATOM     39  N   LIG    1       24.696 -25.471  13.699  0.00  0.00    -0.022 NA
ATOM     40  N   LIG    1       25.207 -26.749  13.730  0.00  0.00    -0.102 NA
ENDBRANCH  34  35
ENDBRANCH  33  34
ENDBRANCH   5  33
TORSDOF 12
ENDMDL
MODEL 5
REMARK VINA RESULT:      -7.0      3.346      8.922
REMARK  Name = *****
REMARK                            x       y       z     vdW  Elec       q    Type
REMARK                         _______ _______ _______ _____ _____    ______ ____
ROOT
ATOM      1  C   LIG    1       26.352 -20.669   6.593  0.00  0.00    +0.258 C 
ATOM      2  C   LIG    1       26.254 -22.093   5.888  0.00  0.00    +0.274 C 
ATOM      3  N   LIG    1       24.812 -22.055   6.129  0.00  0.00    -0.230 N 
ATOM      4  C   LIG    1       24.135 -23.236   6.362  0.00  0.00    +0.125 C 
ATOM      5  C   LIG    1       24.803 -24.410   6.461  0.00  0.00    -0.005 C 
ATOM      6  C   LIG    1       26.307 -24.470   6.285  0.00  0.00    +0.196 C 
ATOM      7  O   LIG    1       26.918 -23.209   6.506  0.00  0.00    -0.349 OA
ATOM      8  C   LIG    1       24.872 -21.024   7.016  0.00  0.00    +0.277 C 
ATOM      9  O   LIG    1       24.104 -20.613   7.877  0.00  0.00    -0.270 OA
ENDROOT
BRANCH   1  10
ATOM     10  N   LIG    1       27.297 -20.596   7.754  0.00  0.00    -0.276 N 
ATOM     11  H   LIG    1       27.022 -21.054   8.615  0.00  0.00    +0.152 HD
ATOM     12  C   LIG    1       28.569 -20.070   7.632  0.00  0.00    +0.234 C 
ATOM     13  O   LIG    1       28.989 -19.609   6.571  0.00  0.00    -0.275 OA
BRANCH  12  14
ATOM     14  C   LIG    1       29.422 -20.133   8.902  0.00  0.00    +0.213 C 
BRANCH  14  15
ATOM     15  C   LIG    1       30.335 -18.908   9.068  0.00  0.00    -0.025 A 
ATOM     16  C   LIG    1       31.579 -18.844   8.408  0.00  0.00    +0.008 A 
ATOM     17  C   LIG    1       32.384 -17.698   8.489  0.00  0.00    +0.045 A 
ATOM     18  C   LIG    1       31.965 -16.610   9.241  0.00  0.00    +0.117 A 
ATOM     19  C   LIG    1       30.762 -16.659   9.935  0.00  0.00    +0.045 A 
ATOM     20  C   LIG    1       29.952 -17.801   9.848  0.00  0.00    +0.008 A 
BRANCH  18  21
ATOM     21  O   LIG    1       32.768 -15.508   9.272  0.00  0.00    -0.507 OA
ATOM     22  H   LIG    1       32.481 -14.895   8.574  0.00  0.00    +0.292 HD
ENDBRANCH  18  21
ENDBRANCH  14  15
BRANCH  14  23
ATOM     23  C   LIG    1       30.169 -21.460   8.964  0.00  0.00    +0.321 C 
ATOM     24  O   LIG    1       30.767 -21.936   9.917  0.00  0.00    -0.250 OA
BRANCH  23  25
ATOM     25  O   LIG    1       30.038 -22.201   7.839  0.00  0.00    -0.480 OA
ATOM     26  H   LIG    1       30.754 -21.897   7.243  0.00  0.00    +0.295 HD
ENDBRANCH  23  25
ENDBRANCH  14  23
ENDBRANCH  12  14
ENDBRANCH   1  10
BRANCH   1  28
ATOM     27  C   LIG    1       25.945 -19.699   4.391  0.00  0.00    +0.197 C 
ATOM     28  O   LIG    1       26.441 -19.514   5.711  0.00  0.00    -0.348 OA
ENDBRANCH   1  28
BRANCH   4  29
ATOM     29  C   LIG    1       22.637 -23.158   6.455  0.00  0.00    +0.351 C 
ATOM     30  O   LIG    1       21.891 -23.944   7.018  0.00  0.00    -0.244 OA
BRANCH  29  31
ATOM     31  O   LIG    1       22.117 -22.151   5.735  0.00  0.00    -0.476 OA
ATOM     32  H   LIG    1       22.883 -21.815   5.227  0.00  0.00    +0.295 HD
ENDBRANCH  29  31
ENDBRANCH   4  29
BRANCH   5  33
ATOM     33  C   LIG    1       24.174 -25.762   6.715  0.00  0.00    +0.112 C 
BRANCH  33  34
ATOM     34  S   LIG    1       24.810 -27.077   5.619  0.00  0.00    -0.080 S 
BRANCH  34  35
ATOM     35  C   LIG    1       24.547 -28.514   6.540  0.00  0.00    +0.209 A 
ATOM     36  N   LIG    1       25.220 -28.871   7.675  0.00  0.00    -0.223 N 
ATOM     37  C   LIG    1       26.233 -28.181   8.421  0.00  0.00    +0.177 C 
ATOM     38  N   LIG    1       24.806 -30.091   8.074  0.00  0.00    -0.043 NA
ATOM     39  N   LIG    1       23.879 -30.447   7.196  0.00  0.00    -0.022 NA
ATOM     40  N   LIG    1       23.693 -29.468   6.246  0.00  0.00    -0.102 NA
ENDBRANCH  34  35
ENDBRANCH  33  34
ENDBRANCH   5  33
TORSDOF 12
ENDMDL
MODEL 6
REMARK VINA RESULT:      -6.8      6.323     11.304
REMARK  Name = *****
REMARK                            x       y       z     vdW  Elec       q    Type
REMARK                         _______ _______ _______ _____ _____    ______ ____
ROOT
ATOM      1  C   LIG    1       26.361 -30.523  10.426  0.00  0.00    +0.258 C 
ATOM      2  C   LIG    1       25.416 -29.840  11.511  0.00  0.00    +0.274 C 
ATOM      3  N   LIG    1       25.396 -31.118  12.222  0.00  0.00    -0.230 N 
ATOM      4  C   LIG    1       24.265 -31.481  12.926  0.00  0.00    +0.125 C 
ATOM      5  C   LIG    1       23.149 -30.715  12.889  0.00  0.00    -0.005 C 
ATOM      6  C   LIG    1       23.118 -29.420  12.102  0.00  0.00    +0.196 C 
ATOM      7  O   LIG    1       24.117 -29.385  11.095  0.00  0.00    -0.349 OA
ATOM      8  C   LIG    1       25.910 -31.834  11.184  0.00  0.00    +0.277 C 
ATOM      9  O   LIG    1       25.916 -33.027  10.911  0.00  0.00    -0.270 OA
ENDROOT
BRANCH   1  10
ATOM     10  N   LIG    1       25.863 -30.456   9.015  0.00  0.00    -0.276 N 
ATOM     11  H   LIG    1       25.408 -31.278   8.636  0.00  0.00    +0.152 HD
ATOM     12  C   LIG    1       25.870 -29.279   8.290  0.00  0.00    +0.234 C 
ATOM     13  O   LIG    1       26.306 -28.226   8.753  0.00  0.00    -0.275 OA
BRANCH  12  14
ATOM     14  C   LIG    1       25.265 -29.378   6.886  0.00  0.00    +0.213 C 
BRANCH  14  15
ATOM     15  C   LIG    1       25.152 -28.013   6.189  0.00  0.00    -0.025 A 
ATOM     16  C   LIG    1       24.163 -27.087   6.578  0.00  0.00    +0.008 A 
ATOM     17  C   LIG    1       24.099 -25.810   6.004  0.00  0.00    +0.045 A 
ATOM     18  C   LIG    1       25.012 -25.446   5.024  0.00  0.00    +0.117 A 
ATOM     19  C   LIG    1       25.975 -26.350   4.592  0.00  0.00    +0.045 A 
ATOM     20  C   LIG    1       26.044 -27.626   5.171  0.00  0.00    +0.008 A 
BRANCH  18  21
ATOM     21  O   LIG    1       24.930 -24.185   4.511  0.00  0.00    -0.507 OA
ATOM     22  H   LIG    1       25.213 -23.552   5.193  0.00  0.00    +0.292 HD
ENDBRANCH  18  21
ENDBRANCH  14  15
BRANCH  14  23
ATOM     23  C   LIG    1       23.951 -30.146   6.937  0.00  0.00    +0.321 C 
ATOM     24  O   LIG    1       23.341 -30.517   7.929  0.00  0.00    -0.250 OA
BRANCH  23  25
ATOM     25  O   LIG    1       23.387 -30.323   5.719  0.00  0.00    -0.480 OA
ATOM     26  H   LIG    1       23.259 -31.291   5.631  0.00  0.00    +0.295 HD
ENDBRANCH  23  25
ENDBRANCH  14  23
ENDBRANCH  12  14
ENDBRANCH   1  10
BRANCH   1  28
ATOM     27  C   LIG    1       28.156 -29.292  11.529  0.00  0.00    +0.197 C 
ATOM     28  O   LIG    1       27.785 -30.248  10.543  0.00  0.00    -0.348 OA
ENDBRANCH   1  28
BRANCH   4  29
ATOM     29  C   LIG    1       24.350 -32.730  13.759  0.00  0.00    +0.351 C 
ATOM     30  O   LIG    1       24.832 -32.841  14.874  0.00  0.00    -0.244 OA
BRANCH  29  31
ATOM     31  O   LIG    1       23.927 -33.825  13.107  0.00  0.00    -0.476 OA
ATOM     32  H   LIG    1       24.752 -34.322  12.935  0.00  0.00    +0.295 HD
ENDBRANCH  29  31
ENDBRANCH   4  29
BRANCH   5  33
ATOM     33  C   LIG    1       21.854 -31.009  13.612  0.00  0.00    +0.112 C 
BRANCH  33  34
ATOM     34  S   LIG    1       20.598 -29.697  13.416  0.00  0.00    -0.080 S 
BRANCH  34  35
ATOM     35  C   LIG    1       19.237 -30.551  12.782  0.00  0.00    +0.209 A 
ATOM     36  N   LIG    1       19.161 -31.128  11.546  0.00  0.00    -0.223 N 
ATOM     37  C   LIG    1       20.137 -31.239  10.500  0.00  0.00    +0.177 C 
ATOM     38  N   LIG    1       17.924 -31.634  11.365  0.00  0.00    -0.043 NA
ATOM     39  N   LIG    1       17.277 -31.380  12.494  0.00  0.00    -0.022 NA
ATOM     40  N   LIG    1       18.087 -30.724  13.393  0.00  0.00    -0.102 NA
ENDBRANCH  34  35
ENDBRANCH  33  34
ENDBRANCH   5  33
TORSDOF 12
ENDMDL
MODEL 7
REMARK VINA RESULT:      -6.8      5.530      8.635
REMARK  Name = *****
REMARK                            x       y       z     vdW  Elec       q    Type
REMARK                         _______ _______ _______ _____ _____    ______ ____
ROOT
ATOM      1  C   LIG    1       23.547 -31.493  10.202  0.00  0.00    +0.258 C 
ATOM      2  C   LIG    1       24.294 -30.704  11.365  0.00  0.00    +0.274 C 
ATOM      3  N   LIG    1       22.979 -30.379  11.918  0.00  0.00    -0.230 N 
ATOM      4  C   LIG    1       22.801 -29.180  12.579  0.00  0.00    +0.125 C 
ATOM      5  C   LIG    1       23.801 -28.267  12.640  0.00  0.00    -0.005 C 
ATOM      6  C   LIG    1       25.152 -28.548  12.016  0.00  0.00    +0.196 C 
ATOM      7  O   LIG    1       25.078 -29.550  11.015  0.00  0.00    -0.349 OA
ATOM      8  C   LIG    1       22.293 -30.741  10.799  0.00  0.00    +0.277 C 
ATOM      9  O   LIG    1       21.170 -30.482  10.384  0.00  0.00    -0.270 OA
ENDROOT
BRANCH   1  10
ATOM     10  N   LIG    1       23.892 -31.055   8.811  0.00  0.00    -0.276 N 
ATOM     11  H   LIG    1       23.217 -30.483   8.316  0.00  0.00    +0.152 HD
ATOM     12  C   LIG    1       25.141 -31.274   8.262  0.00  0.00    +0.234 C 
ATOM     13  O   LIG    1       26.032 -31.862   8.873  0.00  0.00    -0.275 OA
BRANCH  12  14
ATOM     14  C   LIG    1       25.341 -30.704   6.855  0.00  0.00    +0.213 C 
BRANCH  14  15
ATOM     15  C   LIG    1       25.233 -29.171   6.813  0.00  0.00    -0.025 A 
ATOM     16  C   LIG    1       26.040 -28.371   7.646  0.00  0.00    +0.008 A 
ATOM     17  C   LIG    1       26.007 -26.972   7.560  0.00  0.00    +0.045 A 
ATOM     18  C   LIG    1       25.156 -26.355   6.654  0.00  0.00    +0.117 A 
ATOM     19  C   LIG    1       24.320 -27.116   5.847  0.00  0.00    +0.045 A 
ATOM     20  C   LIG    1       24.358 -28.516   5.926  0.00  0.00    +0.008 A 
BRANCH  18  21
ATOM     21  O   LIG    1       25.175 -24.993   6.587  0.00  0.00    -0.507 OA
ATOM     22  H   LIG    1       24.935 -24.722   5.685  0.00  0.00    +0.292 HD
ENDBRANCH  18  21
ENDBRANCH  14  15
BRANCH  14  23
ATOM     23  C   LIG    1       24.413 -31.406   5.871  0.00  0.00    +0.321 C 
ATOM     24  O   LIG    1       23.230 -31.673   6.022  0.00  0.00    -0.250 OA
BRANCH  23  25
ATOM     25  O   LIG    1       24.990 -31.650   4.672  0.00  0.00    -0.480 OA
ATOM     26  H   LIG    1       25.955 -31.580   4.829  0.00  0.00    +0.295 HD
ENDBRANCH  23  25
ENDBRANCH  14  23
ENDBRANCH  12  14
ENDBRANCH   1  10
BRANCH   1  28
ATOM     27  C   LIG    1       22.804 -33.635   9.300  0.00  0.00    +0.197 C 
ATOM     28  O   LIG    1       23.475 -32.940  10.343  0.00  0.00    -0.348 OA
ENDBRANCH   1  28
BRANCH   4  29
ATOM     29  C   LIG    1       21.477 -28.961  13.255  0.00  0.00    +0.351 C 
ATOM     30  O   LIG    1       21.133 -29.368  14.353  0.00  0.00    -0.244 OA
BRANCH  29  31
ATOM     31  O   LIG    1       20.586 -28.332  12.472  0.00  0.00    -0.476 OA
ATOM     32  H   LIG    1       19.912 -29.018  12.296  0.00  0.00    +0.295 HD
ENDBRANCH  29  31
ENDBRANCH   4  29
BRANCH   5  33
ATOM     33  C   LIG    1       23.725 -26.923  13.330  0.00  0.00    +0.112 C 
BRANCH  33  34
ATOM     34  S   LIG    1       24.689 -26.847  14.879  0.00  0.00    -0.080 S 
BRANCH  34  35
ATOM     35  C   LIG    1       25.568 -25.369  14.720  0.00  0.00    +0.209 A 
ATOM     36  N   LIG    1       26.928 -25.252  14.644  0.00  0.00    -0.223 N 
ATOM     37  C   LIG    1       27.956 -26.252  14.619  0.00  0.00    +0.177 C 
ATOM     38  N   LIG    1       27.262 -23.946  14.607  0.00  0.00    -0.043 NA
ATOM     39  N   LIG    1       26.109 -23.292  14.638  0.00  0.00    -0.022 NA
ATOM     40  N   LIG    1       25.045 -24.164  14.688  0.00  0.00    -0.102 NA
ENDBRANCH  34  35
ENDBRANCH  33  34
ENDBRANCH   5  33
TORSDOF 12
ENDMDL
MODEL 8
REMARK VINA RESULT:      -6.5      5.359      9.007
REMARK  Name = *****
REMARK                            x       y       z     vdW  Elec       q    Type
REMARK                         _______ _______ _______ _____ _____    ______ ____
ROOT
ATOM      1  C   LIG    1       24.219 -31.376  10.953  0.00  0.00    +0.258 C 
ATOM      2  C   LIG    1       24.991 -31.548  12.334  0.00  0.00    +0.274 C 
ATOM      3  N   LIG    1       23.998 -30.660  12.939  0.00  0.00    -0.230 N 
ATOM      4  C   LIG    1       24.376 -29.831  13.977  0.00  0.00    +0.125 C 
ATOM      5  C   LIG    1       25.670 -29.764  14.375  0.00  0.00    -0.005 C 
ATOM      6  C   LIG    1       26.733 -30.621  13.718  0.00  0.00    +0.196 C 
ATOM      7  O   LIG    1       26.341 -31.060  12.427  0.00  0.00    -0.349 OA
ATOM      8  C   LIG    1       23.503 -30.216  11.751  0.00  0.00    +0.277 C 
ATOM      9  O   LIG    1       22.846 -29.233  11.432  0.00  0.00    -0.270 OA
ENDROOT
BRANCH   1  10
ATOM     10  N   LIG    1       25.054 -30.880   9.812  0.00  0.00    -0.276 N 
ATOM     11  H   LIG    1       26.058 -31.000   9.877  0.00  0.00    +0.152 HD
ATOM     12  C   LIG    1       24.492 -30.420   8.636  0.00  0.00    +0.234 C 
ATOM     13  O   LIG    1       23.274 -30.368   8.468  0.00  0.00    -0.275 OA
BRANCH  12  14
ATOM     14  C   LIG    1       25.495 -30.014   7.552  0.00  0.00    +0.213 C 
BRANCH  14  15
ATOM     15  C   LIG    1       25.220 -28.613   6.982  0.00  0.00    -0.025 A 
ATOM     16  C   LIG    1       25.946 -27.495   7.442  0.00  0.00    +0.008 A 
ATOM     17  C   LIG    1       25.759 -26.227   6.874  0.00  0.00    +0.045 A 
ATOM     18  C   LIG    1       24.835 -26.056   5.852  0.00  0.00    +0.117 A 
ATOM     19  C   LIG    1       24.078 -27.131   5.405  0.00  0.00    +0.045 A 
ATOM     20  C   LIG    1       24.269 -28.402   5.967  0.00  0.00    +0.008 A 
BRANCH  18  21
ATOM     21  O   LIG    1       24.705 -24.810   5.312  0.00  0.00    -0.507 OA
ATOM     22  H   LIG    1       25.535 -24.576   4.865  0.00  0.00    +0.292 HD
ENDBRANCH  18  21
ENDBRANCH  14  15
BRANCH  14  23
ATOM     23  C   LIG    1       25.580 -31.098   6.486  0.00  0.00    +0.321 C 
ATOM     24  O   LIG    1       26.087 -31.017   5.377  0.00  0.00    -0.250 OA
BRANCH  23  25
ATOM     25  O   LIG    1       25.113 -32.298   6.904  0.00  0.00    -0.480 OA
ATOM     26  H   LIG    1       25.233 -32.299   7.876  0.00  0.00    +0.295 HD
ENDBRANCH  23  25
ENDBRANCH  14  23
ENDBRANCH  12  14
ENDBRANCH   1  10
BRANCH   1  28
ATOM     27  C   LIG    1       23.933 -33.719  10.332  0.00  0.00    +0.197 C 
ATOM     28  O   LIG    1       23.321 -32.458  10.574  0.00  0.00    -0.348 OA
ENDBRANCH   1  28
BRANCH   4  29
ATOM     29  C   LIG    1       23.289 -29.051  14.660  0.00  0.00    +0.351 C 
ATOM     30  O   LIG    1       22.503 -29.460  15.499  0.00  0.00    -0.244 OA
BRANCH  29  31
ATOM     31  O   LIG    1       23.153 -27.805  14.176  0.00  0.00    -0.476 OA
ATOM     32  H   LIG    1       24.053 -27.582  13.864  0.00  0.00    +0.295 HD
ENDBRANCH  29  31
ENDBRANCH   4  29
BRANCH   5  33
ATOM     33  C   LIG    1       26.204 -28.895  15.492  0.00  0.00    +0.112 C 
BRANCH  33  34
ATOM     34  S   LIG    1       27.765 -28.047  15.069  0.00  0.00    -0.080 S 
BRANCH  34  35
ATOM     35  C   LIG    1       27.225 -26.554  14.389  0.00  0.00    +0.209 A 
ATOM     36  N   LIG    1       26.856 -26.356  13.088  0.00  0.00    -0.223 N 
ATOM     37  C   LIG    1       26.756 -27.273  11.990  0.00  0.00    +0.177 C 
ATOM     38  N   LIG    1       26.571 -25.051  12.899  0.00  0.00    -0.043 NA
ATOM     39  N   LIG    1       26.748 -24.482  14.083  0.00  0.00    -0.022 NA
ATOM     40  N   LIG    1       27.137 -25.408  15.025  0.00  0.00    -0.102 NA
ENDBRANCH  34  35
ENDBRANCH  33  34
ENDBRANCH   5  33
TORSDOF 12
ENDMDL
MODEL 9
REMARK VINA RESULT:      -6.4      5.996      9.495
REMARK  Name = *****
REMARK                            x       y       z     vdW  Elec       q    Type
REMARK                         _______ _______ _______ _____ _____    ______ ____
ROOT
ATOM      1  C   LIG    1       25.138 -31.744  11.240  0.00  0.00    +0.258 C 
ATOM      2  C   LIG    1       24.312 -30.992  10.106  0.00  0.00    +0.274 C 
ATOM      3  N   LIG    1       24.574 -32.135   9.231  0.00  0.00    -0.230 N 
ATOM      4  C   LIG    1       24.711 -31.928   7.873  0.00  0.00    +0.125 C 
ATOM      5  C   LIG    1       24.698 -30.675   7.357  0.00  0.00    -0.005 C 
ATOM      6  C   LIG    1       24.498 -29.467   8.249  0.00  0.00    +0.196 C 
ATOM      7  O   LIG    1       24.822 -29.745   9.602  0.00  0.00    -0.349 OA
ATOM      8  C   LIG    1       25.547 -32.664  10.024  0.00  0.00    +0.277 C 
ATOM      9  O   LIG    1       26.450 -33.466   9.819  0.00  0.00    -0.270 OA
ENDROOT
BRANCH   1  10
ATOM     10  N   LIG    1       26.288 -30.971  11.810  0.00  0.00    -0.276 N 
ATOM     11  H   LIG    1       27.213 -31.166  11.445  0.00  0.00    +0.152 HD
ATOM     12  C   LIG    1       26.102 -29.916  12.684  0.00  0.00    +0.234 C 
ATOM     13  O   LIG    1       24.985 -29.568  13.063  0.00  0.00    -0.275 OA
BRANCH  12  14
ATOM     14  C   LIG    1       27.384 -29.198  13.116  0.00  0.00    +0.213 C 
BRANCH  14  15
ATOM     15  C   LIG    1       27.142 -27.732  13.507  0.00  0.00    -0.025 A 
ATOM     16  C   LIG    1       27.395 -27.287  14.820  0.00  0.00    +0.008 A 
ATOM     17  C   LIG    1       27.252 -25.936  15.168  0.00  0.00    +0.045 A 
ATOM     18  C   LIG    1       26.842 -25.016  14.214  0.00  0.00    +0.117 A 
ATOM     19  C   LIG    1       26.549 -25.431  12.921  0.00  0.00    +0.045 A 
ATOM     20  C   LIG    1       26.698 -26.781  12.570  0.00  0.00    +0.008 A 
BRANCH  18  21
ATOM     21  O   LIG    1       26.742 -23.709  14.590  0.00  0.00    -0.507 OA
ATOM     22  H   LIG    1       26.802 -23.658  15.559  0.00  0.00    +0.292 HD
ENDBRANCH  18  21
ENDBRANCH  14  15
BRANCH  14  23
ATOM     23  C   LIG    1       28.464 -29.375  12.056  0.00  0.00    +0.321 C 
ATOM     24  O   LIG    1       28.333 -29.325  10.842  0.00  0.00    -0.250 OA
BRANCH  23  25
ATOM     25  O   LIG    1       29.708 -29.498  12.574  0.00  0.00    -0.480 OA
ATOM     26  H   LIG    1       29.851 -30.462  12.679  0.00  0.00    +0.295 HD
ENDBRANCH  23  25
ENDBRANCH  14  23
ENDBRANCH  12  14
ENDBRANCH   1  10
BRANCH   1  28
ATOM     27  C   LIG    1       25.064 -33.401  13.031  0.00  0.00    +0.197 C 
ATOM     28  O   LIG    1       24.359 -32.439  12.255  0.00  0.00    -0.348 OA
ENDBRANCH   1  28
BRANCH   4  29
ATOM     29  C   LIG    1       24.830 -33.148   7.004  0.00  0.00    +0.351 C 
ATOM     30  O   LIG    1       25.842 -33.588   6.484  0.00  0.00    -0.244 OA
BRANCH  29  31
ATOM     31  O   LIG    1       23.642 -33.710   6.722  0.00  0.00    -0.476 OA
ATOM     32  H   LIG    1       23.459 -33.412   5.809  0.00  0.00    +0.295 HD
ENDBRANCH  29  31
ENDBRANCH   4  29
BRANCH   5  33
ATOM     33  C   LIG    1       24.841 -30.324   5.893  0.00  0.00    +0.112 C 
BRANCH  33  34
ATOM     34  S   LIG    1       23.999 -28.770   5.434  0.00  0.00    -0.080 S 
BRANCH  34  35
ATOM     35  C   LIG    1       25.270 -27.602   5.504  0.00  0.00    +0.209 A 
ATOM     36  N   LIG    1       25.124 -26.280   5.816  0.00  0.00    -0.223 N 
ATOM     37  C   LIG    1       23.965 -25.530   6.207  0.00  0.00    +0.177 C 
ATOM     38  N   LIG    1       26.314 -25.658   5.692  0.00  0.00    -0.043 NA
ATOM     39  N   LIG    1       27.166 -26.608   5.331  0.00  0.00    -0.022 NA
ATOM     40  N   LIG    1       26.535 -27.827   5.229  0.00  0.00    -0.102 NA
ENDBRANCH  34  35
ENDBRANCH  33  34
ENDBRANCH   5  33
TORSDOF 12
ENDMDL
