MODEL 1
REMARK VINA RESULT:       7.8      0.000      0.000
REMARK  Name = *****
REMARK                            x       y       z     vdW  Elec       q    Type
REMARK                         _______ _______ _______ _____ _____    ______ ____
ROOT
ATOM      1  C   LIG    1       18.950 -27.305  14.181  0.00  0.00    +0.045 C 
ATOM      2  C   LIG    1       20.165 -28.360  13.946  0.00  0.00    +0.083 C 
ATOM      3  N   LIG    1       21.414 -27.711  13.587  0.00  0.00    -0.294 NA
ATOM      4  C   LIG    1       21.407 -27.492  12.141  0.00  0.00    +0.086 C 
ATOM      5  C   LIG    1       20.257 -28.388  11.598  0.00  0.00    +0.030 C 
ATOM      6  C   LIG    1       21.824 -26.652  14.493  0.00  0.00    +0.112 C 
ATOM      7  C   LIG    1       20.766 -26.228  15.500  0.00  0.00    -0.015 C 
ATOM      8  C   LIG    1       19.983 -29.322  12.792  0.00  0.00    +0.037 C 
ATOM      9  C   LIG    1       18.694 -30.131  13.090  0.00  0.00    +0.132 C 
ATOM     10  C   LIG    1       17.406 -29.358  13.471  0.00  0.00    +0.220 C 
ATOM     11  N   LIG    1       18.549 -31.030  11.900  0.00  0.00    -0.325 N 
ATOM     12  C   LIG    1       17.689 -32.217  12.000  0.00  0.00    +0.130 C 
ATOM     13  C   LIG    1       19.933 -31.389  11.737  0.00  0.00    +0.037 A 
ATOM     14  C   LIG    1       20.394 -32.419  10.957  0.00  0.00    +0.069 A 
ATOM     15  C   LIG    1       21.762 -32.681  10.860  0.00  0.00    +0.127 A 
ATOM     16  C   LIG    1       22.723 -31.809  11.468  0.00  0.00    +0.017 A 
ATOM     17  C   LIG    1       22.218 -30.747  12.283  0.00  0.00    +0.014 A 
ATOM     18  C   LIG    1       20.833 -30.533  12.385  0.00  0.00    -0.016 A 
ATOM     19  C   LIG    1       17.630 -28.128  14.435  0.00  0.00    +0.232 C 
ATOM     20  C   LIG    1       19.455 -26.532  15.401  0.00  0.00    -0.018 C 
ENDROOT
BRANCH  16  21
ATOM     21  C   LIG    1       24.283 -32.001  11.275  0.00  0.00    +0.136 C 
ATOM     22  C   LIG    1       25.166 -30.669  11.512  0.00  0.00    +0.042 C 
ATOM     23  C   LIG    1       25.124 -29.333  11.037  0.00  0.00    -0.017 C 
ATOM     24  C   LIG    1       26.352 -28.682  11.442  0.00  0.00    +0.003 C 
ATOM     25  C   LIG    1       27.125 -29.621  12.107  0.00  0.00    +0.047 C 
ATOM     26  C   LIG    1       28.418 -29.342  12.573  0.00  0.00    +0.026 C 
ATOM     27  C   LIG    1       28.935 -28.059  12.359  0.00  0.00    +0.002 C 
ATOM     28  C   LIG    1       28.183 -27.088  11.708  0.00  0.00    +0.001 C 
ATOM     29  C   LIG    1       26.896 -27.387  11.243  0.00  0.00    +0.010 C 
ATOM     30  C   LIG    1       24.126 -28.589  10.165  0.00  0.00    +0.053 C 
ATOM     31  C   LIG    1       24.459 -28.602   8.638  0.00  0.00    +0.089 C 
ATOM     32  N   LIG    1       23.650 -29.543   7.836  0.00  0.00    -0.299 NA
ATOM     33  C   LIG    1       24.132 -29.781   6.471  0.00  0.00    +0.119 C 
ATOM     34  C   LIG    1       25.194 -30.932   6.239  0.00  0.00    +0.079 C 
ATOM     35  C   LIG    1       25.173 -32.075   7.301  0.00  0.00    +0.040 C 
ATOM     36  C   LIG    1       24.791 -31.535   8.685  0.00  0.00    +0.007 C 
ATOM     37  C   LIG    1       23.458 -30.822   8.499  0.00  0.00    +0.088 C 
ATOM     38  N   LIG    1       26.393 -30.781  12.160  0.00  0.00    -0.356 NA
ATOM     39  H   LIG    1       26.763 -31.647  12.540  0.00  0.00    +0.166 HD
ATOM     40  C   LIG    1       24.770 -32.558   9.839  0.00  0.00    +0.034 C 
BRANCH  21  41
ATOM     41  C   LIG    1       24.755 -33.138  12.289  0.00  0.00    +0.324 C 
ATOM     42  O   LIG    1       24.182 -33.412  13.339  0.00  0.00    -0.249 OA
BRANCH  41  43
ATOM     43  O   LIG    1       25.909 -33.741  11.883  0.00  0.00    -0.467 OA
ATOM     44  C   LIG    1       26.219 -33.815  10.486  0.00  0.00    +0.280 C 
ENDBRANCH  41  43
ENDBRANCH  21  41
BRANCH  34  45
ATOM     45  O   LIG    1       26.518 -30.374   6.281  0.00  0.00    -0.387 OA
ATOM     46  H   LIG    1       27.105 -30.912   5.725  0.00  0.00    +0.210 HD
ENDBRANCH  34  45
BRANCH  34  47
ATOM     47  C   LIG    1       24.963 -31.506   4.815  0.00  0.00    +0.033 C 
ATOM     48  C   LIG    1       25.451 -32.934   4.602  0.00  0.00    +0.007 C 
ENDBRANCH  34  47
ENDBRANCH  16  21
BRANCH   1  50
ATOM     49  C   LIG    1       19.736 -25.903  11.983  0.00  0.00    +0.005 C 
ATOM     50  C   LIG    1       18.702 -26.170  13.091  0.00  0.00    +0.013 C 
ENDBRANCH   1  50
BRANCH  10  51
ATOM     51  O   LIG    1       16.796 -28.936  12.239  0.00  0.00    -0.373 OA
ATOM     52  H   LIG    1       15.888 -28.653  12.482  0.00  0.00    +0.211 HD
ENDBRANCH  10  51
BRANCH  10  53
ATOM     53  C   LIG    1       16.481 -30.340  14.284  0.00  0.00    +0.345 C 
ATOM     54  O   LIG    1       16.107 -30.180  15.436  0.00  0.00    -0.247 OA
BRANCH  53  55
ATOM     55  O   LIG    1       16.119 -31.416  13.527  0.00  0.00    -0.466 OA
ATOM     56  C   LIG    1       15.945 -32.655  14.224  0.00  0.00    +0.280 C 
ENDBRANCH  53  55
ENDBRANCH  10  53
BRANCH  15  57
ATOM     57  O   LIG    1       22.171 -33.825  10.220  0.00  0.00    -0.495 OA
ATOM     58  C   LIG    1       22.209 -33.797   8.789  0.00  0.00    +0.277 C 
ENDBRANCH  15  57
BRANCH  19  59
ATOM     59  O   LIG    1       16.466 -27.269  14.206  0.00  0.00    -0.457 OA
BRANCH  59  60
ATOM     60  C   LIG    1       16.537 -25.935  14.041  0.00  0.00    +0.304 C 
ATOM     61  O   LIG    1       16.911 -25.375  13.053  0.00  0.00    -0.251 OA
ATOM     62  C   LIG    1       16.015 -25.240  15.290  0.00  0.00    +0.136 C 
ENDBRANCH  59  60
ENDBRANCH  19  59
TORSDOF 12
ENDMDL
