MODEL 1
REMARK VINA RESULT:      -3.3      0.000      0.000
REMARK  Name = *****
REMARK                            x       y       z     vdW  Elec       q    Type
REMARK                         _______ _______ _______ _____ _____    ______ ____
ROOT
ATOM      1  C   LIG    1       26.953 -14.871   3.859  0.00  0.00    +0.076 C 
ATOM      2  C   LIG    1       28.313 -14.278   4.278  0.00  0.00    +0.023 C 
ATOM      3  C   LIG    1       27.184 -14.240   5.255  0.00  0.00    +0.027 C 
ENDROOT
BRANCH   1   4
ATOM      4  C   LIG    1       26.796 -16.410   3.908  0.00  0.00    -0.032 A 
ATOM      5  C   LIG    1       25.683 -17.052   3.333  0.00  0.00    +0.005 A 
ATOM      6  C   LIG    1       25.505 -18.435   3.390  0.00  0.00    +0.000 A 
ATOM      7  C   LIG    1       26.489 -19.232   3.957  0.00  0.00    +0.000 A 
ATOM      8  C   LIG    1       27.639 -18.641   4.474  0.00  0.00    +0.000 A 
ATOM      9  C   LIG    1       27.780 -17.247   4.467  0.00  0.00    +0.005 A 
ENDBRANCH   1   4
BRANCH   1  11
ATOM     10  N   LIG    1       24.729 -13.701   3.362  0.00  0.00    -0.301 N 
ATOM     11  C   LIG    1       26.019 -14.074   2.934  0.00  0.00    +0.226 C 
ATOM     12  O   LIG    1       26.429 -13.797   1.815  0.00  0.00    -0.275 OA
BRANCH  10  14
ATOM     13  C   LIG    1       23.904 -11.447   2.632  0.00  0.00    +0.024 C 
ATOM     14  C   LIG    1       23.874 -12.958   2.423  0.00  0.00    +0.104 C 
ENDBRANCH  10  14
BRANCH  10  15
ATOM     15  C   LIG    1       24.141 -14.061   4.653  0.00  0.00    +0.104 C 
ATOM     16  C   LIG    1       23.050 -15.122   4.559  0.00  0.00    +0.024 C 
ENDBRANCH  10  15
ENDBRANCH   1  11
BRANCH   2  17
ATOM     17  C   LIG    1       28.851 -12.967   3.811  0.00  0.00    +0.082 C 
BRANCH  17  18
ATOM     18  N   LIG    1       28.957 -12.074   4.956  0.00  0.00    -0.330 NA
ATOM     19  H   LIG    1       28.224 -11.369   4.879  0.00  0.00    +0.118 HD
ATOM     20  H   LIG    1       28.733 -12.598   5.803  0.00  0.00    +0.118 HD
ENDBRANCH  17  18
ENDBRANCH   2  17
TORSDOF 6
ENDMDL
MODEL 2
REMARK VINA RESULT:      -2.6      1.573      3.493
REMARK  Name = *****
REMARK                            x       y       z     vdW  Elec       q    Type
REMARK                         _______ _______ _______ _____ _____    ______ ____
ROOT
ATOM      1  C   LIG    1       24.784 -14.717   3.530  0.00  0.00    +0.076 C 
ATOM      2  C   LIG    1       23.883 -13.820   4.402  0.00  0.00    +0.023 C 
ATOM      3  C   LIG    1       23.525 -14.013   2.964  0.00  0.00    +0.027 C 
ENDROOT
BRANCH   1   4
ATOM      4  C   LIG    1       24.613 -16.250   3.662  0.00  0.00    -0.032 A 
ATOM      5  C   LIG    1       23.396 -16.819   4.083  0.00  0.00    +0.005 A 
ATOM      6  C   LIG    1       23.227 -18.195   4.237  0.00  0.00    +0.000 A 
ATOM      7  C   LIG    1       24.256 -19.058   3.890  0.00  0.00    +0.000 A 
ATOM      8  C   LIG    1       25.452 -18.538   3.401  0.00  0.00    +0.000 A 
ATOM      9  C   LIG    1       25.634 -17.152   3.308  0.00  0.00    +0.005 A 
ENDBRANCH   1   4
BRANCH   1  11
ATOM     10  N   LIG    1       27.248 -14.088   3.839  0.00  0.00    -0.301 N 
ATOM     11  C   LIG    1       26.122 -14.179   2.997  0.00  0.00    +0.226 C 
ATOM     12  O   LIG    1       26.162 -13.816   1.829  0.00  0.00    -0.275 OA
BRANCH  10  14
ATOM     13  C   LIG    1       29.069 -12.378   4.074  0.00  0.00    +0.024 C 
ATOM     14  C   LIG    1       28.494 -13.544   3.276  0.00  0.00    +0.104 C 
ENDBRANCH  10  14
BRANCH  10  15
ATOM     15  C   LIG    1       27.256 -14.429   5.262  0.00  0.00    +0.104 C 
ATOM     16  C   LIG    1       27.001 -13.239   6.182  0.00  0.00    +0.024 C 
ENDBRANCH  10  15
ENDBRANCH   1  11
BRANCH   2  17
ATOM     17  C   LIG    1       24.227 -12.434   4.834  0.00  0.00    +0.082 C 
BRANCH  17  18
ATOM     18  N   LIG    1       23.709 -11.497   3.848  0.00  0.00    -0.330 NA
ATOM     19  H   LIG    1       22.755 -11.251   4.113  0.00  0.00    +0.118 HD
ATOM     20  H   LIG    1       24.236 -10.626   3.914  0.00  0.00    +0.118 HD
ENDBRANCH  17  18
ENDBRANCH   2  17
TORSDOF 6
ENDMDL
MODEL 3
REMARK VINA RESULT:      -1.6      1.819      4.125
REMARK  Name = *****
REMARK                            x       y       z     vdW  Elec       q    Type
REMARK                         _______ _______ _______ _____ _____    ______ ____
ROOT
ATOM      1  C   LIG    1       24.612 -14.307   3.685  0.00  0.00    +0.076 C 
ATOM      2  C   LIG    1       23.841 -13.383   2.722  0.00  0.00    +0.023 C 
ATOM      3  C   LIG    1       25.072 -14.068   2.225  0.00  0.00    +0.027 C 
ENDROOT
BRANCH   1   4
ATOM      4  C   LIG    1       24.051 -15.731   3.917  0.00  0.00    -0.032 A 
ATOM      5  C   LIG    1       24.811 -16.877   3.618  0.00  0.00    +0.005 A 
ATOM      6  C   LIG    1       24.315 -18.170   3.792  0.00  0.00    +0.000 A 
ATOM      7  C   LIG    1       23.061 -18.356   4.357  0.00  0.00    +0.000 A 
ATOM      8  C   LIG    1       22.306 -17.248   4.733  0.00  0.00    +0.000 A 
ATOM      9  C   LIG    1       22.787 -15.953   4.497  0.00  0.00    +0.005 A 
ENDBRANCH   1   4
BRANCH   1  11
ATOM     10  N   LIG    1       26.927 -13.884   4.698  0.00  0.00    -0.301 N 
ATOM     11  C   LIG    1       25.530 -13.704   4.761  0.00  0.00    +0.226 C 
ATOM     12  O   LIG    1       25.003 -13.086   5.675  0.00  0.00    -0.275 OA
BRANCH  10  14
ATOM     13  C   LIG    1       28.815 -12.332   5.265  0.00  0.00    +0.024 C 
ATOM     14  C   LIG    1       27.750 -13.301   5.770  0.00  0.00    +0.104 C 
ENDBRANCH  10  14
BRANCH  10  15
ATOM     15  C   LIG    1       27.622 -14.673   3.682  0.00  0.00    +0.104 C 
ATOM     16  C   LIG    1       27.932 -16.102   4.117  0.00  0.00    +0.024 C 
ENDBRANCH  10  15
ENDBRANCH   1  11
BRANCH   2  17
ATOM     17  C   LIG    1       23.866 -11.892   2.770  0.00  0.00    +0.082 C 
BRANCH  17  18
ATOM     18  N   LIG    1       23.422 -11.462   4.089  0.00  0.00    -0.330 NA
ATOM     19  H   LIG    1       22.696 -10.756   3.966  0.00  0.00    +0.118 HD
ATOM     20  H   LIG    1       22.955 -12.244   4.549  0.00  0.00    +0.118 HD
ENDBRANCH  17  18
ENDBRANCH   2  17
TORSDOF 6
ENDMDL
MODEL 4
REMARK VINA RESULT:      -1.1      2.746      5.084
REMARK  Name = *****
REMARK                            x       y       z     vdW  Elec       q    Type
REMARK                         _______ _______ _______ _____ _____    ______ ____
ROOT
ATOM      1  C   LIG    1       24.887 -19.024   4.034  0.00  0.00    +0.076 C 
ATOM      2  C   LIG    1       23.351 -19.140   4.075  0.00  0.00    +0.023 C 
ATOM      3  C   LIG    1       24.103 -19.950   3.070  0.00  0.00    +0.027 C 
ENDROOT
BRANCH   1   4
ATOM      4  C   LIG    1       25.694 -19.803   5.101  0.00  0.00    -0.032 A 
ATOM      5  C   LIG    1       27.095 -19.693   5.186  0.00  0.00    +0.005 A 
ATOM      6  C   LIG    1       27.846 -20.407   6.120  0.00  0.00    +0.000 A 
ATOM      7  C   LIG    1       27.202 -21.197   7.062  0.00  0.00    +0.000 A 
ATOM      8  C   LIG    1       25.811 -21.276   7.056  0.00  0.00    +0.000 A 
ATOM      9  C   LIG    1       25.070 -20.604   6.076  0.00  0.00    +0.005 A 
ENDBRANCH   1   4
BRANCH   1  11
ATOM     10  N   LIG    1       25.106 -16.500   3.652  0.00  0.00    -0.301 N 
ATOM     11  C   LIG    1       25.549 -17.807   3.367  0.00  0.00    +0.226 C 
ATOM     12  O   LIG    1       26.453 -18.019   2.571  0.00  0.00    -0.275 OA
BRANCH  10  14
ATOM     13  C   LIG    1       27.016 -14.873   3.679  0.00  0.00    +0.024 C 
ATOM     14  C   LIG    1       25.766 -15.379   2.965  0.00  0.00    +0.104 C 
ENDBRANCH  10  14
BRANCH  10  15
ATOM     15  C   LIG    1       23.983 -16.172   4.531  0.00  0.00    +0.104 C 
ATOM     16  C   LIG    1       23.492 -14.735   4.393  0.00  0.00    +0.024 C 
ENDBRANCH  10  15
ENDBRANCH   1  11
BRANCH   2  17
ATOM     17  C   LIG    1       22.405 -18.114   3.547  0.00  0.00    +0.082 C 
BRANCH  17  18
ATOM     18  N   LIG    1       21.046 -18.612   3.700  0.00  0.00    -0.330 NA
ATOM     19  H   LIG    1       21.055 -19.619   3.538  0.00  0.00    +0.118 HD
ATOM     20  H   LIG    1       20.764 -18.504   4.675  0.00  0.00    +0.118 HD
ENDBRANCH  17  18
ENDBRANCH   2  17
TORSDOF 6
ENDMDL
MODEL 5
REMARK VINA RESULT:      -0.9      3.496      6.023
REMARK  Name = *****
REMARK                            x       y       z     vdW  Elec       q    Type
REMARK                         _______ _______ _______ _____ _____    ______ ____
ROOT
ATOM      1  C   LIG    1       24.545 -19.945   4.351  0.00  0.00    +0.076 C 
ATOM      2  C   LIG    1       23.782 -21.216   3.930  0.00  0.00    +0.023 C 
ATOM      3  C   LIG    1       24.663 -20.546   2.928  0.00  0.00    +0.027 C 
ENDROOT
BRANCH   1   4
ATOM      4  C   LIG    1       25.831 -20.125   5.194  0.00  0.00    -0.032 A 
ATOM      5  C   LIG    1       25.882 -21.029   6.271  0.00  0.00    +0.005 A 
ATOM      6  C   LIG    1       27.020 -21.188   7.062  0.00  0.00    +0.000 A 
ATOM      7  C   LIG    1       28.182 -20.500   6.741  0.00  0.00    +0.000 A 
ATOM      8  C   LIG    1       28.194 -19.650   5.639  0.00  0.00    +0.000 A 
ATOM      9  C   LIG    1       27.028 -19.450   4.888  0.00  0.00    +0.005 A 
ENDBRANCH   1   4
BRANCH   1  11
ATOM     10  N   LIG    1       24.398 -17.427   3.903  0.00  0.00    -0.301 N 
ATOM     11  C   LIG    1       23.811 -18.596   4.426  0.00  0.00    +0.226 C 
ATOM     12  O   LIG    1       22.716 -18.576   4.972  0.00  0.00    -0.275 OA
BRANCH  10  14
ATOM     13  C   LIG    1       22.355 -16.291   4.814  0.00  0.00    +0.024 C 
ATOM     14  C   LIG    1       23.655 -16.163   4.025  0.00  0.00    +0.104 C 
ENDBRANCH  10  14
BRANCH  10  15
ATOM     15  C   LIG    1       25.732 -17.357   3.308  0.00  0.00    +0.104 C 
ATOM     16  C   LIG    1       26.342 -15.959   3.323  0.00  0.00    +0.024 C 
ENDBRANCH  10  15
ENDBRANCH   1  11
BRANCH   2  17
ATOM     17  C   LIG    1       22.323 -21.271   3.622  0.00  0.00    +0.082 C 
BRANCH  17  18
ATOM     18  N   LIG    1       21.600 -21.567   4.851  0.00  0.00    -0.330 NA
ATOM     19  H   LIG    1       20.853 -22.226   4.630  0.00  0.00    +0.118 HD
ATOM     20  H   LIG    1       22.220 -22.072   5.484  0.00  0.00    +0.118 HD
ENDBRANCH  17  18
ENDBRANCH   2  17
TORSDOF 6
ENDMDL
MODEL 6
REMARK VINA RESULT:      -0.7      3.822      6.149
REMARK  Name = *****
REMARK                            x       y       z     vdW  Elec       q    Type
REMARK                         _______ _______ _______ _____ _____    ______ ____
ROOT
ATOM      1  C   LIG    1       24.822 -18.713   3.869  0.00  0.00    +0.076 C 
ATOM      2  C   LIG    1       26.109 -19.200   4.565  0.00  0.00    +0.023 C 
ATOM      3  C   LIG    1       26.104 -19.074   3.076  0.00  0.00    +0.027 C 
ENDROOT
BRANCH   1   4
ATOM      4  C   LIG    1       24.529 -17.193   3.887  0.00  0.00    -0.032 A 
ATOM      5  C   LIG    1       23.297 -16.688   4.343  0.00  0.00    +0.005 A 
ATOM      6  C   LIG    1       23.000 -15.325   4.341  0.00  0.00    +0.000 A 
ATOM      7  C   LIG    1       23.970 -14.410   3.959  0.00  0.00    +0.000 A 
ATOM      8  C   LIG    1       25.227 -14.865   3.569  0.00  0.00    +0.000 A 
ATOM      9  C   LIG    1       25.495 -16.239   3.515  0.00  0.00    +0.005 A 
ENDBRANCH   1   4
BRANCH   1  11
ATOM     10  N   LIG    1       22.850 -20.083   4.761  0.00  0.00    -0.301 N 
ATOM     11  C   LIG    1       23.643 -19.678   3.669  0.00  0.00    +0.226 C 
ATOM     12  O   LIG    1       23.435 -20.093   2.536  0.00  0.00    -0.275 OA
BRANCH  10  14
ATOM     13  C   LIG    1       20.440 -20.347   4.113  0.00  0.00    +0.024 C 
ATOM     14  C   LIG    1       21.749 -21.025   4.508  0.00  0.00    +0.104 C 
ENDBRANCH  10  14
BRANCH  10  15
ATOM     15  C   LIG    1       23.082 -19.692   6.152  0.00  0.00    +0.104 C 
ATOM     16  C   LIG    1       23.471 -20.853   7.061  0.00  0.00    +0.024 C 
ENDBRANCH  10  15
ENDBRANCH   1  11
BRANCH   2  17
ATOM     17  C   LIG    1       26.305 -20.568   5.128  0.00  0.00    +0.082 C 
BRANCH  17  18
ATOM     18  N   LIG    1       27.520 -20.569   5.931  0.00  0.00    -0.330 NA
ATOM     19  H   LIG    1       28.126 -19.822   5.593  0.00  0.00    +0.118 HD
ATOM     20  H   LIG    1       27.282 -20.305   6.888  0.00  0.00    +0.118 HD
ENDBRANCH  17  18
ENDBRANCH   2  17
TORSDOF 6
ENDMDL
MODEL 7
REMARK VINA RESULT:      -0.7      3.794      6.182
REMARK  Name = *****
REMARK                            x       y       z     vdW  Elec       q    Type
REMARK                         _______ _______ _______ _____ _____    ______ ____
ROOT
ATOM      1  C   LIG    1       24.825 -18.656   3.888  0.00  0.00    +0.076 C 
ATOM      2  C   LIG    1       26.111 -19.187   4.554  0.00  0.00    +0.023 C 
ATOM      3  C   LIG    1       26.085 -19.032   3.068  0.00  0.00    +0.027 C 
ENDROOT
BRANCH   1   4
ATOM      4  C   LIG    1       24.569 -17.130   3.939  0.00  0.00    -0.032 A 
ATOM      5  C   LIG    1       25.542 -16.208   3.511  0.00  0.00    +0.005 A 
ATOM      6  C   LIG    1       25.345 -14.828   3.574  0.00  0.00    +0.000 A 
ATOM      7  C   LIG    1       24.120 -14.327   3.993  0.00  0.00    +0.000 A 
ATOM      8  C   LIG    1       23.106 -15.209   4.357  0.00  0.00    +0.000 A 
ATOM      9  C   LIG    1       23.335 -16.591   4.349  0.00  0.00    +0.005 A 
ENDBRANCH   1   4
BRANCH   1  11
ATOM     10  N   LIG    1       22.848 -20.013   4.789  0.00  0.00    -0.301 N 
ATOM     11  C   LIG    1       23.620 -19.589   3.689  0.00  0.00    +0.226 C 
ATOM     12  O   LIG    1       23.374 -19.962   2.550  0.00  0.00    -0.275 OA
BRANCH  10  14
ATOM     13  C   LIG    1       20.456 -20.215   4.059  0.00  0.00    +0.024 C 
ATOM     14  C   LIG    1       21.721 -20.924   4.536  0.00  0.00    +0.104 C 
ENDBRANCH  10  14
BRANCH  10  15
ATOM     15  C   LIG    1       23.126 -19.673   6.184  0.00  0.00    +0.104 C 
ATOM     16  C   LIG    1       23.449 -20.879   7.060  0.00  0.00    +0.024 C 
ENDBRANCH  10  15
ENDBRANCH   1  11
BRANCH   2  17
ATOM     17  C   LIG    1       26.283 -20.569   5.089  0.00  0.00    +0.082 C 
BRANCH  17  18
ATOM     18  N   LIG    1       27.437 -20.582   5.976  0.00  0.00    -0.330 NA
ATOM     19  H   LIG    1       27.122 -20.863   6.905  0.00  0.00    +0.118 HD
ATOM     20  H   LIG    1       28.073 -21.323   5.678  0.00  0.00    +0.118 HD
ENDBRANCH  17  18
ENDBRANCH   2  17
TORSDOF 6
ENDMDL
MODEL 8
REMARK VINA RESULT:      -0.6      3.562      5.817
REMARK  Name = *****
REMARK                            x       y       z     vdW  Elec       q    Type
REMARK                         _______ _______ _______ _____ _____    ______ ____
ROOT
ATOM      1  C   LIG    1       22.526 -18.358   4.333  0.00  0.00    +0.076 C 
ATOM      2  C   LIG    1       21.156 -18.814   3.793  0.00  0.00    +0.023 C 
ATOM      3  C   LIG    1       22.306 -18.723   2.843  0.00  0.00    +0.027 C 
ENDROOT
BRANCH   1   4
ATOM      4  C   LIG    1       23.381 -19.401   5.092  0.00  0.00    -0.032 A 
ATOM      5  C   LIG    1       22.898 -20.047   6.245  0.00  0.00    +0.005 A 
ATOM      6  C   LIG    1       23.661 -20.969   6.962  0.00  0.00    +0.000 A 
ATOM      7  C   LIG    1       24.914 -21.338   6.493  0.00  0.00    +0.000 A 
ATOM      8  C   LIG    1       25.399 -20.774   5.315  0.00  0.00    +0.000 A 
ATOM      9  C   LIG    1       24.651 -19.804   4.636  0.00  0.00    +0.005 A 
ENDBRANCH   1   4
BRANCH   1  11
ATOM     10  N   LIG    1       23.953 -16.242   4.112  0.00  0.00    -0.301 N 
ATOM     11  C   LIG    1       22.789 -16.867   4.602  0.00  0.00    +0.226 C 
ATOM     12  O   LIG    1       21.966 -16.258   5.271  0.00  0.00    -0.275 OA
BRANCH  10  14
ATOM     13  C   LIG    1       23.726 -13.878   3.300  0.00  0.00    +0.024 C 
ATOM     14  C   LIG    1       24.158 -14.818   4.422  0.00  0.00    +0.104 C 
ENDBRANCH  10  14
BRANCH  10  15
ATOM     15  C   LIG    1       25.017 -16.920   3.373  0.00  0.00    +0.104 C 
ATOM     16  C   LIG    1       26.350 -16.179   3.392  0.00  0.00    +0.024 C 
ENDBRANCH  10  15
ENDBRANCH   1  11
BRANCH   2  17
ATOM     17  C   LIG    1       19.996 -17.910   3.542  0.00  0.00    +0.082 C 
BRANCH  17  18
ATOM     18  N   LIG    1       19.350 -18.316   2.302  0.00  0.00    -0.330 NA
ATOM     19  H   LIG    1       19.547 -19.305   2.150  0.00  0.00    +0.118 HD
ATOM     20  H   LIG    1       18.339 -18.264   2.426  0.00  0.00    +0.118 HD
ENDBRANCH  17  18
ENDBRANCH   2  17
TORSDOF 6
ENDMDL
MODEL 9
REMARK VINA RESULT:      -0.6      3.784      6.736
REMARK  Name = *****
REMARK                            x       y       z     vdW  Elec       q    Type
REMARK                         _______ _______ _______ _____ _____    ______ ____
ROOT
ATOM      1  C   LIG    1       24.217 -18.759   4.123  0.00  0.00    +0.076 C 
ATOM      2  C   LIG    1       23.112 -19.354   3.227  0.00  0.00    +0.023 C 
ATOM      3  C   LIG    1       22.755 -18.919   4.611  0.00  0.00    +0.027 C 
ENDROOT
BRANCH   1   4
ATOM      4  C   LIG    1       24.618 -17.283   3.884  0.00  0.00    -0.032 A 
ATOM      5  C   LIG    1       23.786 -16.222   4.288  0.00  0.00    +0.005 A 
ATOM      6  C   LIG    1       24.113 -14.886   4.057  0.00  0.00    +0.000 A 
ATOM      7  C   LIG    1       25.335 -14.565   3.485  0.00  0.00    +0.000 A 
ATOM      8  C   LIG    1       26.218 -15.584   3.136  0.00  0.00    +0.000 A 
ATOM      9  C   LIG    1       25.855 -16.925   3.316  0.00  0.00    +0.005 A 
ENDBRANCH   1   4
BRANCH   1  11
ATOM     10  N   LIG    1       24.886 -20.399   5.974  0.00  0.00    -0.301 N 
ATOM     11  C   LIG    1       25.233 -19.686   4.809  0.00  0.00    +0.226 C 
ATOM     12  O   LIG    1       26.352 -19.763   4.319  0.00  0.00    -0.275 OA
BRANCH  10  14
ATOM     13  C   LIG    1       27.146 -20.487   7.062  0.00  0.00    +0.024 C 
ATOM     14  C   LIG    1       25.910 -21.253   6.596  0.00  0.00    +0.104 C 
ENDBRANCH  10  14
BRANCH  10  15
ATOM     15  C   LIG    1       23.598 -20.299   6.661  0.00  0.00    +0.104 C 
ATOM     16  C   LIG    1       22.760 -21.572   6.586  0.00  0.00    +0.024 C 
ENDBRANCH  10  15
ENDBRANCH   1  11
BRANCH   2  17
ATOM     17  C   LIG    1       22.961 -20.804   2.912  0.00  0.00    +0.082 C 
BRANCH  17  18
ATOM     18  N   LIG    1       24.272 -21.348   2.588  0.00  0.00    -0.330 NA
ATOM     19  H   LIG    1       24.976 -20.793   3.074  0.00  0.00    +0.118 HD
ATOM     20  H   LIG    1       24.348 -22.283   2.989  0.00  0.00    +0.118 HD
ENDBRANCH  17  18
ENDBRANCH   2  17
TORSDOF 6
ENDMDL
