MODEL 1
REMARK VINA RESULT:      -5.1      0.000      0.000
REMARK  Name = *****
REMARK                            x       y       z     vdW  Elec       q    Type
REMARK                         _______ _______ _______ _____ _____    ______ ____
ROOT
ATOM      1  C   LIG    1       23.598 -16.452   4.065  0.00  0.00    +0.090 C 
ATOM      2  N   LIG    1       24.474 -17.485   3.739  0.00  0.00    -0.344 NA
ATOM      3  C   LIG    1       25.834 -17.330   3.250  0.00  0.00    +0.149 C 
ATOM      4  C   LIG    1       23.876 -18.715   3.987  0.00  0.00    +0.030 C 
ATOM      5  C   LIG    1       22.618 -18.463   4.499  0.00  0.00    +0.024 C 
ATOM      6  C   LIG    1       22.434 -17.065   4.517  0.00  0.00    +0.031 C 
ENDROOT
BRANCH   1   7
ATOM      7  C   LIG    1       23.837 -15.010   3.921  0.00  0.00    +0.209 C 
ATOM      8  O   LIG    1       22.923 -14.189   3.801  0.00  0.00    -0.285 OA
BRANCH   7  13
ATOM      9  C   LIG    1       29.210 -12.740   3.834  0.00  0.00    +0.044 C 
ATOM     10  C   LIG    1       27.840 -13.356   3.877  0.00  0.00    -0.050 A 
ATOM     11  C   LIG    1       27.230 -13.782   2.692  0.00  0.00    +0.004 A 
ATOM     12  C   LIG    1       25.952 -14.350   2.710  0.00  0.00    +0.012 A 
ATOM     13  C   LIG    1       25.243 -14.480   3.912  0.00  0.00    +0.024 A 
ATOM     14  C   LIG    1       25.845 -14.031   5.098  0.00  0.00    +0.012 A 
ATOM     15  C   LIG    1       27.145 -13.503   5.082  0.00  0.00    +0.004 A 
ENDBRANCH   7  13
ENDBRANCH   1   7
BRANCH   4  16
ATOM     16  C   LIG    1       24.520 -20.059   3.742  0.00  0.00    +0.173 C 
BRANCH  16  17
ATOM     17  C   LIG    1       25.385 -20.545   4.894  0.00  0.00    +0.310 C 
ATOM     18  O   LIG    1       24.920 -21.110   5.875  0.00  0.00    -0.251 OA
BRANCH  17  19
ATOM     19  O   LIG    1       26.720 -20.401   4.734  0.00  0.00    -0.480 OA
ATOM     20  H   LIG    1       26.962 -19.790   4.013  0.00  0.00    +0.295 HD
ENDBRANCH  17  19
ENDBRANCH  16  17
ENDBRANCH   4  16
TORSDOF 5
ENDMDL
MODEL 2
REMARK VINA RESULT:      -5.1      1.000      2.078
REMARK  Name = *****
REMARK                            x       y       z     vdW  Elec       q    Type
REMARK                         _______ _______ _______ _____ _____    ______ ____
ROOT
ATOM      1  C   LIG    1       24.544 -17.112   3.773  0.00  0.00    +0.090 C 
ATOM      2  N   LIG    1       23.616 -18.102   4.090  0.00  0.00    -0.344 NA
ATOM      3  C   LIG    1       22.254 -17.882   4.547  0.00  0.00    +0.149 C 
ATOM      4  C   LIG    1       24.164 -19.360   3.865  0.00  0.00    +0.030 C 
ATOM      5  C   LIG    1       25.442 -19.169   3.379  0.00  0.00    +0.024 C 
ATOM      6  C   LIG    1       25.689 -17.781   3.353  0.00  0.00    +0.031 C 
ENDROOT
BRANCH   1   7
ATOM      7  C   LIG    1       24.366 -15.660   3.899  0.00  0.00    +0.209 C 
ATOM      8  O   LIG    1       23.255 -15.129   3.999  0.00  0.00    -0.285 OA
BRANCH   7  13
ATOM      9  C   LIG    1       29.145 -12.318   4.010  0.00  0.00    +0.044 C 
ATOM     10  C   LIG    1       27.897 -13.152   3.957  0.00  0.00    -0.050 A 
ATOM     11  C   LIG    1       27.107 -13.300   5.102  0.00  0.00    +0.004 A 
ATOM     12  C   LIG    1       25.945 -14.080   5.074  0.00  0.00    +0.012 A 
ATOM     13  C   LIG    1       25.564 -14.753   3.906  0.00  0.00    +0.024 A 
ATOM     14  C   LIG    1       26.370 -14.626   2.763  0.00  0.00    +0.012 A 
ATOM     15  C   LIG    1       27.508 -13.806   2.782  0.00  0.00    +0.004 A 
ENDBRANCH   7  13
ENDBRANCH   1   7
BRANCH   4  16
ATOM     16  C   LIG    1       23.456 -20.672   4.109  0.00  0.00    +0.173 C 
BRANCH  16  17
ATOM     17  C   LIG    1       23.654 -21.226   5.511  0.00  0.00    +0.310 C 
ATOM     18  O   LIG    1       22.722 -21.432   6.276  0.00  0.00    -0.251 OA
BRANCH  17  19
ATOM     19  O   LIG    1       24.920 -21.569   5.837  0.00  0.00    -0.480 OA
ATOM     20  H   LIG    1       25.583 -20.896   5.594  0.00  0.00    +0.295 HD
ENDBRANCH  17  19
ENDBRANCH  16  17
ENDBRANCH   4  16
TORSDOF 5
ENDMDL
MODEL 3
REMARK VINA RESULT:      -4.9      2.251      2.928
REMARK  Name = *****
REMARK                            x       y       z     vdW  Elec       q    Type
REMARK                         _______ _______ _______ _____ _____    ______ ____
ROOT
ATOM      1  C   LIG    1       25.563 -18.053   3.656  0.00  0.00    +0.090 C 
ATOM      2  N   LIG    1       25.754 -19.252   4.340  0.00  0.00    -0.344 NA
ATOM      3  C   LIG    1       26.865 -19.565   5.223  0.00  0.00    +0.149 C 
ATOM      4  C   LIG    1       24.694 -20.117   4.093  0.00  0.00    +0.030 C 
ATOM      5  C   LIG    1       23.809 -19.454   3.265  0.00  0.00    +0.024 C 
ATOM      6  C   LIG    1       24.362 -18.191   2.969  0.00  0.00    +0.031 C 
ENDROOT
BRANCH   1   7
ATOM      7  C   LIG    1       26.467 -16.896   3.631  0.00  0.00    +0.209 C 
ATOM      8  O   LIG    1       27.693 -17.003   3.725  0.00  0.00    -0.285 OA
BRANCH   7  13
ATOM      9  C   LIG    1       24.200 -11.574   2.878  0.00  0.00    +0.044 C 
ATOM     10  C   LIG    1       24.789 -12.936   3.111  0.00  0.00    -0.050 A 
ATOM     11  C   LIG    1       26.023 -13.270   2.541  0.00  0.00    +0.004 A 
ATOM     12  C   LIG    1       26.583 -14.537   2.740  0.00  0.00    +0.012 A 
ATOM     13  C   LIG    1       25.907 -15.508   3.489  0.00  0.00    +0.024 A 
ATOM     14  C   LIG    1       24.658 -15.183   4.041  0.00  0.00    +0.012 A 
ATOM     15  C   LIG    1       24.120 -13.897   3.878  0.00  0.00    +0.004 A 
ENDBRANCH   7  13
ENDBRANCH   1   7
BRANCH   4  16
ATOM     16  C   LIG    1       24.563 -21.513   4.655  0.00  0.00    +0.173 C 
BRANCH  16  17
ATOM     17  C   LIG    1       23.838 -21.572   5.990  0.00  0.00    +0.310 C 
ATOM     18  O   LIG    1       24.427 -21.548   7.062  0.00  0.00    -0.251 OA
BRANCH  17  19
ATOM     19  O   LIG    1       22.487 -21.558   5.930  0.00  0.00    -0.480 OA
ATOM     20  H   LIG    1       22.081 -22.433   6.077  0.00  0.00    +0.295 HD
ENDBRANCH  17  19
ENDBRANCH  16  17
ENDBRANCH   4  16
TORSDOF 5
ENDMDL
MODEL 4
REMARK VINA RESULT:      -4.7      1.946      6.616
REMARK  Name = *****
REMARK                            x       y       z     vdW  Elec       q    Type
REMARK                         _______ _______ _______ _____ _____    ______ ____
ROOT
ATOM      1  C   LIG    1       25.858 -16.749   3.408  0.00  0.00    +0.090 C 
ATOM      2  N   LIG    1       24.988 -15.713   3.745  0.00  0.00    -0.344 NA
ATOM      3  C   LIG    1       23.554 -15.832   3.944  0.00  0.00    +0.149 C 
ATOM      4  C   LIG    1       25.697 -14.529   3.912  0.00  0.00    +0.030 C 
ATOM      5  C   LIG    1       27.031 -14.818   3.703  0.00  0.00    +0.024 C 
ATOM      6  C   LIG    1       27.127 -16.182   3.360  0.00  0.00    +0.031 C 
ENDROOT
BRANCH   1   7
ATOM      7  C   LIG    1       25.502 -18.144   3.120  0.00  0.00    +0.209 C 
ATOM      8  O   LIG    1       25.715 -18.676   2.025  0.00  0.00    -0.285 OA
BRANCH   7  13
ATOM      9  C   LIG    1       22.907 -21.571   7.062  0.00  0.00    +0.044 C 
ATOM     10  C   LIG    1       23.593 -20.668   6.076  0.00  0.00    -0.050 A 
ATOM     11  C   LIG    1       22.841 -19.774   5.308  0.00  0.00    +0.004 A 
ATOM     12  C   LIG    1       23.461 -18.932   4.378  0.00  0.00    +0.012 A 
ATOM     13  C   LIG    1       24.846 -18.986   4.177  0.00  0.00    +0.024 A 
ATOM     14  C   LIG    1       25.600 -19.900   4.931  0.00  0.00    +0.012 A 
ATOM     15  C   LIG    1       24.980 -20.711   5.894  0.00  0.00    +0.004 A 
ENDBRANCH   7  13
ENDBRANCH   1   7
BRANCH   4  16
ATOM     16  C   LIG    1       25.087 -13.194   4.268  0.00  0.00    +0.173 C 
BRANCH  16  17
ATOM     17  C   LIG    1       24.371 -12.517   3.110  0.00  0.00    +0.310 C 
ATOM     18  O   LIG    1       23.491 -11.683   3.275  0.00  0.00    -0.251 OA
BRANCH  17  19
ATOM     19  O   LIG    1       24.827 -12.821   1.874  0.00  0.00    -0.480 OA
ATOM     20  H   LIG    1       24.474 -13.660   1.523  0.00  0.00    +0.295 HD
ENDBRANCH  17  19
ENDBRANCH  16  17
ENDBRANCH   4  16
TORSDOF 5
ENDMDL
MODEL 5
REMARK VINA RESULT:      -4.3      2.539      6.484
REMARK  Name = *****
REMARK                            x       y       z     vdW  Elec       q    Type
REMARK                         _______ _______ _______ _____ _____    ______ ____
ROOT
ATOM      1  C   LIG    1       25.489 -16.413   3.653  0.00  0.00    +0.090 C 
ATOM      2  N   LIG    1       26.595 -15.708   4.122  0.00  0.00    -0.344 NA
ATOM      3  C   LIG    1       27.948 -16.225   4.249  0.00  0.00    +0.149 C 
ATOM      4  C   LIG    1       26.236 -14.399   4.424  0.00  0.00    +0.030 C 
ATOM      5  C   LIG    1       24.895 -14.263   4.119  0.00  0.00    +0.024 C 
ATOM      6  C   LIG    1       24.426 -15.516   3.674  0.00  0.00    +0.031 C 
ENDROOT
BRANCH   1   7
ATOM      7  C   LIG    1       25.443 -17.827   3.257  0.00  0.00    +0.209 C 
ATOM      8  O   LIG    1       25.967 -18.248   2.220  0.00  0.00    -0.285 OA
BRANCH   7  13
ATOM      9  C   LIG    1       22.727 -21.572   6.810  0.00  0.00    +0.044 C 
ATOM     10  C   LIG    1       23.410 -20.626   5.863  0.00  0.00    -0.050 A 
ATOM     11  C   LIG    1       24.803 -20.650   5.736  0.00  0.00    +0.004 A 
ATOM     12  C   LIG    1       25.458 -19.771   4.866  0.00  0.00    +0.012 A 
ATOM     13  C   LIG    1       24.735 -18.828   4.125  0.00  0.00    +0.024 A 
ATOM     14  C   LIG    1       23.339 -18.785   4.270  0.00  0.00    +0.012 A 
ATOM     15  C   LIG    1       22.682 -19.699   5.108  0.00  0.00    +0.004 A 
ENDBRANCH   7  13
ENDBRANCH   1   7
BRANCH   4  16
ATOM     16  C   LIG    1       27.170 -13.345   4.969  0.00  0.00    +0.173 C 
BRANCH  16  17
ATOM     17  C   LIG    1       28.208 -12.867   3.966  0.00  0.00    +0.310 C 
ATOM     18  O   LIG    1       29.201 -12.232   4.296  0.00  0.00    -0.251 OA
BRANCH  17  19
ATOM     19  O   LIG    1       28.021 -13.263   2.686  0.00  0.00    -0.480 OA
ATOM     20  H   LIG    1       28.764 -13.784   2.327  0.00  0.00    +0.295 HD
ENDBRANCH  17  19
ENDBRANCH  16  17
ENDBRANCH   4  16
TORSDOF 5
ENDMDL
MODEL 6
REMARK VINA RESULT:      -3.8      2.487      5.957
REMARK  Name = *****
REMARK                            x       y       z     vdW  Elec       q    Type
REMARK                         _______ _______ _______ _____ _____    ______ ____
ROOT
ATOM      1  C   LIG    1       24.006 -14.785   3.884  0.00  0.00    +0.090 C 
ATOM      2  N   LIG    1       25.380 -14.862   3.665  0.00  0.00    -0.344 NA
ATOM      3  C   LIG    1       26.247 -15.962   4.050  0.00  0.00    +0.149 C 
ATOM      4  C   LIG    1       25.818 -13.736   2.975  0.00  0.00    +0.030 C 
ATOM      5  C   LIG    1       24.709 -12.950   2.731  0.00  0.00    +0.024 C 
ATOM      6  C   LIG    1       23.595 -13.582   3.321  0.00  0.00    +0.031 C 
ENDROOT
BRANCH   1   7
ATOM      7  C   LIG    1       23.170 -15.756   4.601  0.00  0.00    +0.209 C 
ATOM      8  O   LIG    1       22.342 -15.423   5.455  0.00  0.00    -0.285 OA
BRANCH   7  13
ATOM      9  C   LIG    1       23.819 -21.476   3.663  0.00  0.00    +0.044 C 
ATOM     10  C   LIG    1       23.621 -20.003   3.878  0.00  0.00    -0.050 A 
ATOM     11  C   LIG    1       24.602 -19.098   3.457  0.00  0.00    +0.004 A 
ATOM     12  C   LIG    1       24.439 -17.723   3.657  0.00  0.00    +0.012 A 
ATOM     13  C   LIG    1       23.304 -17.224   4.309  0.00  0.00    +0.024 A 
ATOM     14  C   LIG    1       22.331 -18.133   4.754  0.00  0.00    +0.012 A 
ATOM     15  C   LIG    1       22.476 -19.507   4.511  0.00  0.00    +0.004 A 
ENDBRANCH   7  13
ENDBRANCH   1   7
BRANCH   4  16
ATOM     16  C   LIG    1       27.248 -13.466   2.572  0.00  0.00    +0.173 C 
BRANCH  16  17
ATOM     17  C   LIG    1       28.154 -13.098   3.736  0.00  0.00    +0.310 C 
ATOM     18  O   LIG    1       27.739 -12.966   4.879  0.00  0.00    -0.251 OA
BRANCH  17  19
ATOM     19  O   LIG    1       29.474 -13.012   3.454  0.00  0.00    -0.480 OA
ATOM     20  H   LIG    1       29.696 -13.275   2.542  0.00  0.00    +0.295 HD
ENDBRANCH  17  19
ENDBRANCH  16  17
ENDBRANCH   4  16
TORSDOF 5
ENDMDL
MODEL 7
REMARK VINA RESULT:      -3.3      2.495      3.924
REMARK  Name = *****
REMARK                            x       y       z     vdW  Elec       q    Type
REMARK                         _______ _______ _______ _____ _____    ______ ____
ROOT
ATOM      1  C   LIG    1       27.045 -19.416   5.336  0.00  0.00    +0.090 C 
ATOM      2  N   LIG    1       25.923 -19.930   4.688  0.00  0.00    -0.344 NA
ATOM      3  C   LIG    1       25.506 -19.625   3.330  0.00  0.00    +0.149 C 
ATOM      4  C   LIG    1       25.260 -20.827   5.519  0.00  0.00    +0.030 C 
ATOM      5  C   LIG    1       25.980 -20.903   6.695  0.00  0.00    +0.024 C 
ATOM      6  C   LIG    1       27.064 -20.007   6.594  0.00  0.00    +0.031 C 
ENDROOT
BRANCH   1   7
ATOM      7  C   LIG    1       27.990 -18.421   4.813  0.00  0.00    +0.209 C 
ATOM      8  O   LIG    1       29.213 -18.592   4.820  0.00  0.00    -0.285 OA
BRANCH   7  13
ATOM      9  C   LIG    1       25.860 -13.387   2.775  0.00  0.00    +0.044 C 
ATOM     10  C   LIG    1       26.441 -14.679   3.276  0.00  0.00    -0.050 A 
ATOM     11  C   LIG    1       25.814 -15.892   2.969  0.00  0.00    +0.004 A 
ATOM     12  C   LIG    1       26.335 -17.104   3.435  0.00  0.00    +0.012 A 
ATOM     13  C   LIG    1       27.479 -17.128   4.242  0.00  0.00    +0.024 A 
ATOM     14  C   LIG    1       28.096 -15.910   4.571  0.00  0.00    +0.012 A 
ATOM     15  C   LIG    1       27.597 -14.700   4.065  0.00  0.00    +0.004 A 
ENDBRANCH   7  13
ENDBRANCH   1   7
BRANCH   4  16
ATOM     16  C   LIG    1       23.996 -21.571   5.160  0.00  0.00    +0.173 C 
BRANCH  16  17
ATOM     17  C   LIG    1       22.726 -20.763   5.375  0.00  0.00    +0.310 C 
ATOM     18  O   LIG    1       22.723 -19.678   5.940  0.00  0.00    -0.251 OA
BRANCH  17  19
ATOM     19  O   LIG    1       21.601 -21.268   4.820  0.00  0.00    -0.480 OA
ATOM     20  H   LIG    1       21.755 -22.075   4.294  0.00  0.00    +0.295 HD
ENDBRANCH  17  19
ENDBRANCH  16  17
ENDBRANCH   4  16
TORSDOF 5
ENDMDL
MODEL 8
REMARK VINA RESULT:      -3.1      2.308      5.817
REMARK  Name = *****
REMARK                            x       y       z     vdW  Elec       q    Type
REMARK                         _______ _______ _______ _____ _____    ______ ____
ROOT
ATOM      1  C   LIG    1       24.420 -17.185   3.816  0.00  0.00    +0.090 C 
ATOM      2  N   LIG    1       25.404 -16.229   3.574  0.00  0.00    -0.344 NA
ATOM      3  C   LIG    1       26.761 -16.493   3.123  0.00  0.00    +0.149 C 
ATOM      4  C   LIG    1       24.893 -14.953   3.785  0.00  0.00    +0.030 C 
ATOM      5  C   LIG    1       23.567 -15.098   4.140  0.00  0.00    +0.024 C 
ATOM      6  C   LIG    1       23.283 -16.478   4.191  0.00  0.00    +0.031 C 
ENDROOT
BRANCH   1   7
ATOM      7  C   LIG    1       24.565 -18.644   3.734  0.00  0.00    +0.209 C 
ATOM      8  O   LIG    1       23.912 -19.338   2.948  0.00  0.00    -0.285 OA
BRANCH   7  13
ATOM      9  C   LIG    1       28.358 -21.570   7.062  0.00  0.00    +0.044 C 
ATOM     10  C   LIG    1       27.389 -20.783   6.226  0.00  0.00    -0.050 A 
ATOM     11  C   LIG    1       26.021 -21.070   6.288  0.00  0.00    +0.004 A 
ATOM     12  C   LIG    1       25.104 -20.355   5.511  0.00  0.00    +0.012 A 
ATOM     13  C   LIG    1       25.539 -19.354   4.632  0.00  0.00    +0.024 A 
ATOM     14  C   LIG    1       26.914 -19.082   4.550  0.00  0.00    +0.012 A 
ATOM     15  C   LIG    1       27.826 -19.770   5.365  0.00  0.00    +0.004 A 
ENDBRANCH   7  13
ENDBRANCH   1   7
BRANCH   4  16
ATOM     16  C   LIG    1       25.673 -13.669   3.631  0.00  0.00    +0.173 C 
BRANCH  16  17
ATOM     17  C   LIG    1       26.865 -13.559   4.568  0.00  0.00    +0.310 C 
ATOM     18  O   LIG    1       28.019 -13.503   4.164  0.00  0.00    -0.251 OA
BRANCH  17  19
ATOM     19  O   LIG    1       26.575 -13.432   5.883  0.00  0.00    -0.480 OA
ATOM     20  H   LIG    1       27.018 -12.674   6.309  0.00  0.00    +0.295 HD
ENDBRANCH  17  19
ENDBRANCH  16  17
ENDBRANCH   4  16
TORSDOF 5
ENDMDL
MODEL 9
REMARK VINA RESULT:      -2.8      2.332      6.495
REMARK  Name = *****
REMARK                            x       y       z     vdW  Elec       q    Type
REMARK                         _______ _______ _______ _____ _____    ______ ____
ROOT
ATOM      1  C   LIG    1       25.859 -15.220   3.177  0.00  0.00    +0.090 C 
ATOM      2  N   LIG    1       24.857 -14.442   3.754  0.00  0.00    -0.344 NA
ATOM      3  C   LIG    1       23.984 -14.843   4.844  0.00  0.00    +0.149 C 
ATOM      4  C   LIG    1       24.829 -13.184   3.161  0.00  0.00    +0.030 C 
ATOM      5  C   LIG    1       25.837 -13.154   2.218  0.00  0.00    +0.024 C 
ATOM      6  C   LIG    1       26.452 -14.422   2.205  0.00  0.00    +0.031 C 
ENDROOT
BRANCH   1   7
ATOM      7  C   LIG    1       26.193 -16.614   3.501  0.00  0.00    +0.209 C 
ATOM      8  O   LIG    1       27.356 -17.014   3.612  0.00  0.00    -0.285 OA
BRANCH   7  13
ATOM      9  C   LIG    1       21.994 -20.529   4.528  0.00  0.00    +0.044 C 
ATOM     10  C   LIG    1       23.057 -19.511   4.229  0.00  0.00    -0.050 A 
ATOM     11  C   LIG    1       24.370 -19.926   3.981  0.00  0.00    +0.004 A 
ATOM     12  C   LIG    1       25.376 -18.993   3.709  0.00  0.00    +0.012 A 
ATOM     13  C   LIG    1       25.097 -17.620   3.707  0.00  0.00    +0.024 A 
ATOM     14  C   LIG    1       23.785 -17.201   3.979  0.00  0.00    +0.012 A 
ATOM     15  C   LIG    1       22.769 -18.142   4.207  0.00  0.00    +0.004 A 
ENDBRANCH   7  13
ENDBRANCH   1   7
BRANCH   4  16
ATOM     16  C   LIG    1       23.866 -12.077   3.520  0.00  0.00    +0.173 C 
BRANCH  16  17
ATOM     17  C   LIG    1       23.887 -11.698   4.992  0.00  0.00    +0.310 C 
ATOM     18  O   LIG    1       22.869 -11.447   5.623  0.00  0.00    -0.251 OA
BRANCH  17  19
ATOM     19  O   LIG    1       25.095 -11.745   5.598  0.00  0.00    -0.480 OA
ATOM     20  H   LIG    1       25.678 -10.999   5.363  0.00  0.00    +0.295 HD
ENDBRANCH  17  19
ENDBRANCH  16  17
ENDBRANCH   4  16
TORSDOF 5
ENDMDL
