MODEL 1
REMARK VINA RESULT:      13.0      0.000      0.000
REMARK  Name = *****
REMARK                            x       y       z     vdW  Elec       q    Type
REMARK                         _______ _______ _______ _____ _____    ______ ____
ROOT
ATOM      1  C   LIG    1       24.652 -18.846   4.141  0.00  0.00    +0.063 A 
ATOM      2  C   LIG    1       25.938 -18.397   3.765  0.00  0.00    +0.151 A 
ATOM      3  C   LIG    1       26.938 -19.046   4.634  0.00  0.00    +0.032 A 
ATOM      4  C   LIG    1       26.446 -20.019   5.438  0.00  0.00    +0.027 A 
ATOM      5  C   LIG    1       27.251 -20.828   6.319  0.00  0.00    +0.061 A 
ATOM      6  C   LIG    1       28.652 -20.630   6.254  0.00  0.00    +0.118 A 
ATOM      7  C   LIG    1       29.178 -19.687   5.517  0.00  0.00    +0.046 A 
ATOM      8  C   LIG    1       28.351 -18.792   4.803  0.00  0.00    +0.016 A 
ATOM      9  S   LIG    1       24.748 -20.098   5.320  0.00  0.00    -0.084 S 
ENDROOT
BRANCH   1  13
ATOM     10  C   LIG    1       20.713 -17.627   2.902  0.00  0.00    +0.120 A 
ATOM     11  C   LIG    1       21.744 -16.686   2.980  0.00  0.00    +0.046 A 
ATOM     12  C   LIG    1       23.036 -17.079   3.367  0.00  0.00    +0.012 A 
ATOM     13  C   LIG    1       23.317 -18.411   3.702  0.00  0.00    -0.007 A 
ATOM     14  C   LIG    1       22.255 -19.329   3.657  0.00  0.00    +0.012 A 
ATOM     15  C   LIG    1       20.977 -18.938   3.277  0.00  0.00    +0.046 A 
BRANCH  10  17
ATOM     16  C   LIG    1       19.480 -15.898   1.892  0.00  0.00    +0.277 C 
ATOM     17  O   LIG    1       19.481 -17.201   2.486  0.00  0.00    -0.495 OA
ENDBRANCH  10  17
ENDBRANCH   1  13
BRANCH   6  18
ATOM     18  O   LIG    1       29.474 -21.404   7.062  0.00  0.00    -0.507 OA
ATOM     19  H   LIG    1       28.980 -21.776   7.773  0.00  0.00    +0.292 HD
ENDBRANCH   6  18
BRANCH   2  20
ATOM     20  O   LIG    1       26.082 -17.403   2.826  0.00  0.00    -0.454 OA
BRANCH  20  21
ATOM     21  C   LIG    1       26.549 -16.090   3.086  0.00  0.00    +0.129 A 
ATOM     22  C   LIG    1       25.649 -14.993   2.981  0.00  0.00    +0.050 A 
ATOM     23  C   LIG    1       25.859 -13.720   3.644  0.00  0.00    +0.049 A 
ATOM     24  C   LIG    1       26.942 -13.536   4.505  0.00  0.00    +0.121 A 
ATOM     25  C   LIG    1       27.830 -14.590   4.501  0.00  0.00    +0.049 A 
ATOM     26  C   LIG    1       27.692 -15.850   3.826  0.00  0.00    +0.050 A 
BRANCH  24  27
ATOM     27  O   LIG    1       26.834 -12.642   5.587  0.00  0.00    -0.491 OA
BRANCH  27  28
ATOM     28  C   LIG    1       25.563 -12.369   6.291  0.00  0.00    +0.244 C 
BRANCH  28  29
ATOM     29  C   LIG    1       24.401 -11.498   5.618  0.00  0.00    +0.125 C 
BRANCH  29  30
ATOM     30  N   LIG    1       23.164 -11.965   4.952  0.00  0.00    -0.299 NA
ATOM     31  C   LIG    1       23.007 -11.478   3.578  0.00  0.00    +0.084 C 
ATOM     32  C   LIG    1       23.866 -12.227   2.634  0.00  0.00    +0.015 C 
ATOM     33  C   LIG    1       23.693 -13.694   2.907  0.00  0.00    +0.002 C 
ATOM     34  C   LIG    1       23.680 -14.286   4.340  0.00  0.00    +0.015 C 
ATOM     35  C   LIG    1       22.800 -13.381   5.135  0.00  0.00    +0.084 C 
ENDBRANCH  29  30
ENDBRANCH  28  29
ENDBRANCH  27  28
ENDBRANCH  24  27
ENDBRANCH  20  21
ENDBRANCH   2  20
TORSDOF 9
ENDMDL
