MODEL 1
REMARK VINA RESULT:      -7.6      0.000      0.000
REMARK  Name = *****
REMARK                            x       y       z     vdW  Elec       q    Type
REMARK                         _______ _______ _______ _____ _____    ______ ____
ROOT
ATOM      1  C   LIG    1       28.863 -18.982   7.209  0.00  0.00    +0.001 C 
ATOM      2  C   LIG    1       28.518 -20.492   6.914  0.00  0.00    +0.000 C 
ATOM      3  C   LIG    1       29.781 -21.251   6.424  0.00  0.00    +0.014 C 
ATOM      4  C   LIG    1       27.494 -20.405   5.718  0.00  0.00    +0.001 C 
ATOM      5  C   LIG    1       26.019 -20.136   6.121  0.00  0.00    -0.004 C 
ATOM      6  C   LIG    1       25.500 -21.076   7.224  0.00  0.00    +0.001 C 
ATOM      7  C   LIG    1       26.449 -21.013   8.418  0.00  0.00    +0.036 C 
ATOM      8  C   LIG    1       24.985 -22.505   6.743  0.00  0.00    -0.026 C 
ATOM      9  C   LIG    1       23.507 -22.602   7.229  0.00  0.00    +0.012 C 
ATOM     10  C   LIG    1       25.077 -22.654   5.196  0.00  0.00    -0.002 C 
ATOM     11  C   LIG    1       24.472 -23.973   4.685  0.00  0.00    +0.035 C 
ATOM     12  C   LIG    1       25.150 -25.183   5.331  0.00  0.00    +0.115 C 
ATOM     13  C   LIG    1       25.231 -25.081   6.852  0.00  0.00    +0.032 C 
ATOM     14  C   LIG    1       24.520 -21.455   4.435  0.00  0.00    +0.004 C 
ATOM     15  C   LIG    1       25.756 -23.722   7.330  0.00  0.00    +0.009 C 
ATOM     16  C   LIG    1       25.000 -20.102   4.962  0.00  0.00    +0.004 C 
ATOM     17  C   LIG    1       28.049 -19.266   4.863  0.00  0.00    +0.005 C 
ATOM     18  C   LIG    1       27.909 -21.309   8.093  0.00  0.00    +0.121 C 
ATOM     19  C   LIG    1       28.722 -18.298   5.822  0.00  0.00    +0.005 C 
ENDROOT
BRANCH   1  21
ATOM     20  C   LIG    1       31.388 -19.570   7.658  0.00  0.00    +0.008 C 
ATOM     21  C   LIG    1       30.247 -18.566   7.831  0.00  0.00    -0.010 C 
BRANCH  21  22
ATOM     22  C   LIG    1       30.149 -18.205   9.345  0.00  0.00    +0.015 C 
BRANCH  22  23
ATOM     23  C   LIG    1       30.636 -16.804   9.707  0.00  0.00    +0.121 C 
BRANCH  23  24
ATOM     24  C   LIG    1       32.140 -16.761   9.758  0.00  0.00    +0.305 C 
ATOM     25  O   LIG    1       32.808 -17.275  10.646  0.00  0.00    -0.251 OA
BRANCH  24  26
ATOM     26  O   LIG    1       32.697 -16.068   8.743  0.00  0.00    -0.481 OA
ATOM     27  H   LIG    1       32.316 -15.178   8.615  0.00  0.00    +0.295 HD
ENDBRANCH  24  26
ENDBRANCH  23  24
ENDBRANCH  22  23
ENDBRANCH  21  22
ENDBRANCH   1  21
BRANCH  12  28
ATOM     28  O   LIG    1       24.439 -26.369   4.995  0.00  0.00    -0.392 OA
ATOM     29  H   LIG    1       24.775 -27.086   5.558  0.00  0.00    +0.210 HD
ENDBRANCH  12  28
BRANCH  18  30
ATOM     30  O   LIG    1       28.649 -21.148   9.295  0.00  0.00    -0.391 OA
ATOM     31  H   LIG    1       28.591 -21.976   9.801  0.00  0.00    +0.210 HD
ENDBRANCH  18  30
TORSDOF 7
ENDMDL
MODEL 2
REMARK VINA RESULT:      -6.9      9.954     12.249
REMARK  Name = *****
REMARK                            x       y       z     vdW  Elec       q    Type
REMARK                         _______ _______ _______ _____ _____    ______ ____
ROOT
ATOM      1  C   LIG    1       25.955 -31.423   9.829  0.00  0.00    +0.001 C 
ATOM      2  C   LIG    1       24.593 -30.678  10.111  0.00  0.00    +0.000 C 
ATOM      3  C   LIG    1       23.859 -30.367   8.779  0.00  0.00    +0.014 C 
ATOM      4  C   LIG    1       25.051 -29.316  10.758  0.00  0.00    +0.001 C 
ATOM      5  C   LIG    1       25.352 -29.367  12.281  0.00  0.00    -0.004 C 
ATOM      6  C   LIG    1       24.231 -30.021  13.108  0.00  0.00    +0.001 C 
ATOM      7  C   LIG    1       23.925 -31.400  12.529  0.00  0.00    +0.036 C 
ATOM      8  C   LIG    1       23.007 -29.079  13.501  0.00  0.00    -0.026 C 
ATOM      9  C   LIG    1       22.934 -29.115  15.058  0.00  0.00    +0.012 C 
ATOM     10  C   LIG    1       23.217 -27.625  12.984  0.00  0.00    -0.002 C 
ATOM     11  C   LIG    1       22.116 -26.658  13.452  0.00  0.00    +0.035 C 
ATOM     12  C   LIG    1       20.731 -27.137  13.008  0.00  0.00    +0.115 C 
ATOM     13  C   LIG    1       20.466 -28.600  13.353  0.00  0.00    +0.032 C 
ATOM     14  C   LIG    1       24.607 -27.069  13.279  0.00  0.00    +0.004 C 
ATOM     15  C   LIG    1       21.621 -29.524  12.952  0.00  0.00    +0.009 C 
ATOM     16  C   LIG    1       25.748 -28.026  12.935  0.00  0.00    +0.004 C 
ATOM     17  C   LIG    1       26.304 -28.951   9.961  0.00  0.00    +0.005 C 
ATOM     18  C   LIG    1       23.582 -31.410  11.044  0.00  0.00    +0.121 C 
ATOM     19  C   LIG    1       26.955 -30.265   9.561  0.00  0.00    +0.005 C 
ENDROOT
BRANCH   1  21
ATOM     20  C   LIG    1       26.690 -33.825   9.046  0.00  0.00    +0.008 C 
ATOM     21  C   LIG    1       26.086 -32.473   8.664  0.00  0.00    -0.010 C 
BRANCH  21  22
ATOM     22  C   LIG    1       26.873 -31.923   7.436  0.00  0.00    +0.015 C 
BRANCH  22  23
ATOM     23  C   LIG    1       26.317 -32.336   6.075  0.00  0.00    +0.121 C 
BRANCH  23  24
ATOM     24  C   LIG    1       25.333 -31.315   5.570  0.00  0.00    +0.305 C 
ATOM     25  O   LIG    1       25.612 -30.139   5.372  0.00  0.00    -0.251 OA
BRANCH  24  26
ATOM     26  O   LIG    1       24.090 -31.806   5.383  0.00  0.00    -0.481 OA
ATOM     27  H   LIG    1       23.696 -31.565   4.523  0.00  0.00    +0.295 HD
ENDBRANCH  24  26
ENDBRANCH  23  24
ENDBRANCH  22  23
ENDBRANCH  21  22
ENDBRANCH   1  21
BRANCH  12  28
ATOM     28  O   LIG    1       19.727 -26.338  13.624  0.00  0.00    -0.392 OA
ATOM     29  H   LIG    1       19.031 -26.935  13.947  0.00  0.00    +0.210 HD
ENDBRANCH  12  28
BRANCH  18  30
ATOM     30  O   LIG    1       23.389 -32.766  10.665  0.00  0.00    -0.391 OA
ATOM     31  H   LIG    1       23.814 -33.332  11.332  0.00  0.00    +0.210 HD
ENDBRANCH  18  30
TORSDOF 7
ENDMDL
MODEL 3
REMARK VINA RESULT:      -6.5      8.664     12.350
REMARK  Name = *****
REMARK                            x       y       z     vdW  Elec       q    Type
REMARK                         _______ _______ _______ _____ _____    ______ ____
ROOT
ATOM      1  C   LIG    1       24.692 -31.722   9.668  0.00  0.00    +0.001 C 
ATOM      2  C   LIG    1       24.529 -30.209  10.084  0.00  0.00    +0.000 C 
ATOM      3  C   LIG    1       24.258 -29.328   8.835  0.00  0.00    +0.014 C 
ATOM      4  C   LIG    1       25.948 -29.835  10.660  0.00  0.00    +0.001 C 
ATOM      5  C   LIG    1       26.192 -30.229  12.143  0.00  0.00    -0.004 C 
ATOM      6  C   LIG    1       25.072 -29.770  13.094  0.00  0.00    +0.001 C 
ATOM      7  C   LIG    1       23.733 -30.283  12.569  0.00  0.00    +0.036 C 
ATOM      8  C   LIG    1       25.157 -28.262  13.603  0.00  0.00    -0.026 C 
ATOM      9  C   LIG    1       25.199 -28.348  15.159  0.00  0.00    +0.012 C 
ATOM     10  C   LIG    1       26.421 -27.543  13.047  0.00  0.00    -0.002 C 
ATOM     11  C   LIG    1       26.602 -26.125  13.617  0.00  0.00    +0.035 C 
ATOM     12  C   LIG    1       25.379 -25.251  13.331  0.00  0.00    +0.115 C 
ATOM     13  C   LIG    1       24.062 -25.918  13.722  0.00  0.00    +0.032 C 
ATOM     14  C   LIG    1       27.698 -28.365  13.184  0.00  0.00    +0.004 C 
ATOM     15  C   LIG    1       23.952 -27.359  13.212  0.00  0.00    +0.009 C 
ATOM     16  C   LIG    1       27.558 -29.819  12.733  0.00  0.00    +0.004 C 
ATOM     17  C   LIG    1       26.911 -30.571   9.729  0.00  0.00    +0.005 C 
ATOM     18  C   LIG    1       23.417 -29.893  11.130  0.00  0.00    +0.121 C 
ATOM     19  C   LIG    1       26.192 -31.833   9.279  0.00  0.00    +0.005 C 
ENDROOT
BRANCH   1  21
ATOM     20  C   LIG    1       22.749 -33.340   8.941  0.00  0.00    +0.008 C 
ATOM     21  C   LIG    1       23.830 -32.348   8.510  0.00  0.00    -0.010 C 
BRANCH  21  22
ATOM     22  C   LIG    1       24.697 -33.029   7.407  0.00  0.00    +0.015 C 
BRANCH  22  23
ATOM     23  C   LIG    1       24.340 -32.641   5.974  0.00  0.00    +0.121 C 
BRANCH  23  24
ATOM     24  C   LIG    1       24.502 -31.159   5.768  0.00  0.00    +0.305 C 
ATOM     25  O   LIG    1       25.585 -30.587   5.755  0.00  0.00    -0.251 OA
BRANCH  24  26
ATOM     26  O   LIG    1       23.333 -30.500   5.629  0.00  0.00    -0.481 OA
ATOM     27  H   LIG    1       23.341 -29.824   4.924  0.00  0.00    +0.295 HD
ENDBRANCH  24  26
ENDBRANCH  23  24
ENDBRANCH  22  23
ENDBRANCH  21  22
ENDBRANCH   1  21
BRANCH  12  28
ATOM     28  O   LIG    1       25.490 -24.022  14.041  0.00  0.00    -0.392 OA
ATOM     29  H   LIG    1       24.669 -23.522  13.898  0.00  0.00    +0.210 HD
ENDBRANCH  12  28
BRANCH  18  30
ATOM     30  O   LIG    1       22.177 -30.498  10.792  0.00  0.00    -0.391 OA
ATOM     31  H   LIG    1       22.296 -31.463  10.801  0.00  0.00    +0.210 HD
ENDBRANCH  18  30
TORSDOF 7
ENDMDL
MODEL 4
REMARK VINA RESULT:      -6.4      1.860      2.051
REMARK  Name = *****
REMARK                            x       y       z     vdW  Elec       q    Type
REMARK                         _______ _______ _______ _____ _____    ______ ____
ROOT
ATOM      1  C   LIG    1       28.679 -19.171   7.204  0.00  0.00    +0.001 C 
ATOM      2  C   LIG    1       28.301 -20.673   6.908  0.00  0.00    +0.000 C 
ATOM      3  C   LIG    1       29.557 -21.472   6.466  0.00  0.00    +0.014 C 
ATOM      4  C   LIG    1       27.320 -20.566   5.679  0.00  0.00    +0.001 C 
ATOM      5  C   LIG    1       25.840 -20.251   6.031  0.00  0.00    -0.004 C 
ATOM      6  C   LIG    1       25.259 -21.167   7.123  0.00  0.00    +0.001 C 
ATOM      7  C   LIG    1       26.170 -21.122   8.348  0.00  0.00    +0.036 C 
ATOM      8  C   LIG    1       24.718 -22.585   6.636  0.00  0.00    -0.026 C 
ATOM      9  C   LIG    1       23.223 -22.635   7.073  0.00  0.00    +0.012 C 
ATOM     10  C   LIG    1       24.856 -22.748   5.093  0.00  0.00    -0.002 C 
ATOM     11  C   LIG    1       24.230 -24.053   4.571  0.00  0.00    +0.035 C 
ATOM     12  C   LIG    1       24.852 -25.277   5.248  0.00  0.00    +0.115 C 
ATOM     13  C   LIG    1       24.886 -25.166   6.770  0.00  0.00    +0.032 C 
ATOM     14  C   LIG    1       24.359 -21.540   4.307  0.00  0.00    +0.004 C 
ATOM     15  C   LIG    1       25.434 -23.819   7.255  0.00  0.00    +0.009 C 
ATOM     16  C   LIG    1       24.861 -20.198   4.840  0.00  0.00    +0.004 C 
ATOM     17  C   LIG    1       27.934 -19.450   4.834  0.00  0.00    +0.005 C 
ATOM     18  C   LIG    1       27.630 -21.463   8.072  0.00  0.00    +0.121 C 
ATOM     19  C   LIG    1       28.604 -18.494   5.809  0.00  0.00    +0.005 C 
ENDROOT
BRANCH   1  21
ATOM     20  C   LIG    1       31.281 -18.866   6.958  0.00  0.00    +0.008 C 
ATOM     21  C   LIG    1       30.054 -18.790   7.868  0.00  0.00    -0.010 C 
BRANCH  21  22
ATOM     22  C   LIG    1       30.357 -19.618   9.155  0.00  0.00    +0.015 C 
BRANCH  22  23
ATOM     23  C   LIG    1       31.697 -20.350   9.150  0.00  0.00    +0.121 C 
BRANCH  23  24
ATOM     24  C   LIG    1       31.496 -21.829   9.343  0.00  0.00    +0.305 C 
ATOM     25  O   LIG    1       30.757 -22.312  10.192  0.00  0.00    -0.251 OA
BRANCH  24  26
ATOM     26  O   LIG    1       32.234 -22.591   8.510  0.00  0.00    -0.481 OA
ATOM     27  H   LIG    1       32.221 -23.543   8.727  0.00  0.00    +0.295 HD
ENDBRANCH  24  26
ENDBRANCH  23  24
ENDBRANCH  22  23
ENDBRANCH  21  22
ENDBRANCH   1  21
BRANCH  12  28
ATOM     28  O   LIG    1       24.117 -26.445   4.897  0.00  0.00    -0.392 OA
ATOM     29  H   LIG    1       24.369 -27.151   5.516  0.00  0.00    +0.210 HD
ENDBRANCH  12  28
BRANCH  18  30
ATOM     30  O   LIG    1       28.335 -21.314   9.297  0.00  0.00    -0.391 OA
ATOM     31  H   LIG    1       27.821 -21.748   9.999  0.00  0.00    +0.210 HD
ENDBRANCH  18  30
TORSDOF 7
ENDMDL
MODEL 5
REMARK VINA RESULT:      -6.2      1.285      7.610
REMARK  Name = *****
REMARK                            x       y       z     vdW  Elec       q    Type
REMARK                         _______ _______ _______ _____ _____    ______ ____
ROOT
ATOM      1  C   LIG    1       25.407 -21.992   6.076  0.00  0.00    +0.001 C 
ATOM      2  C   LIG    1       26.020 -21.025   7.162  0.00  0.00    +0.000 C 
ATOM      3  C   LIG    1       24.891 -20.284   7.928  0.00  0.00    +0.014 C 
ATOM      4  C   LIG    1       26.815 -19.970   6.302  0.00  0.00    +0.001 C 
ATOM      5  C   LIG    1       28.242 -20.402   5.866  0.00  0.00    -0.004 C 
ATOM      6  C   LIG    1       29.105 -20.934   7.025  0.00  0.00    +0.001 C 
ATOM      7  C   LIG    1       28.349 -22.055   7.734  0.00  0.00    +0.036 C 
ATOM      8  C   LIG    1       29.838 -19.835   7.916  0.00  0.00    -0.026 C 
ATOM      9  C   LIG    1       31.358 -20.174   7.830  0.00  0.00    +0.012 C 
ATOM     10  C   LIG    1       29.555 -18.396   7.393  0.00  0.00    -0.002 C 
ATOM     11  C   LIG    1       30.347 -17.317   8.153  0.00  0.00    +0.035 C 
ATOM     12  C   LIG    1       30.045 -17.359   9.652  0.00  0.00    +0.115 C 
ATOM     13  C   LIG    1       30.168 -18.759  10.248  0.00  0.00    +0.032 C 
ATOM     14  C   LIG    1       29.726 -18.252   5.884  0.00  0.00    +0.004 C 
ATOM     15  C   LIG    1       29.440 -19.823   9.419  0.00  0.00    +0.009 C 
ATOM     16  C   LIG    1       29.050 -19.355   5.071  0.00  0.00    +0.004 C 
ATOM     17  C   LIG    1       25.911 -19.750   5.090  0.00  0.00    +0.005 C 
ATOM     18  C   LIG    1       26.955 -21.678   8.223  0.00  0.00    +0.121 C 
ATOM     19  C   LIG    1       25.194 -21.069   4.845  0.00  0.00    +0.005 C 
ENDROOT
BRANCH   1  21
ATOM     20  C   LIG    1       23.184 -22.232   7.461  0.00  0.00    +0.008 C 
ATOM     21  C   LIG    1       24.072 -22.780   6.344  0.00  0.00    -0.010 C 
BRANCH  21  22
ATOM     22  C   LIG    1       24.307 -24.297   6.616  0.00  0.00    +0.015 C 
BRANCH  22  23
ATOM     23  C   LIG    1       25.605 -24.862   6.042  0.00  0.00    +0.121 C 
BRANCH  23  24
ATOM     24  C   LIG    1       25.342 -26.137   5.287  0.00  0.00    +0.305 C 
ATOM     25  O   LIG    1       26.182 -26.711   4.604  0.00  0.00    -0.251 OA
BRANCH  24  26
ATOM     26  O   LIG    1       24.073 -26.583   5.400  0.00  0.00    -0.481 OA
ATOM     27  H   LIG    1       23.586 -26.606   4.554  0.00  0.00    +0.295 HD
ENDBRANCH  24  26
ENDBRANCH  23  24
ENDBRANCH  22  23
ENDBRANCH  21  22
ENDBRANCH   1  21
BRANCH  12  28
ATOM     28  O   LIG    1       30.937 -16.493  10.346  0.00  0.00    -0.392 OA
ATOM     29  H   LIG    1       30.406 -15.930  10.934  0.00  0.00    +0.210 HD
ENDBRANCH  12  28
BRANCH  18  30
ATOM     30  O   LIG    1       26.382 -22.844   8.799  0.00  0.00    -0.391 OA
ATOM     31  H   LIG    1       26.778 -23.622   8.370  0.00  0.00    +0.210 HD
ENDBRANCH  18  30
TORSDOF 7
ENDMDL
MODEL 6
REMARK VINA RESULT:      -6.2      3.737      5.192
REMARK  Name = *****
REMARK                            x       y       z     vdW  Elec       q    Type
REMARK                         _______ _______ _______ _____ _____    ______ ____
ROOT
ATOM      1  C   LIG    1       24.932 -18.272   4.370  0.00  0.00    +0.001 C 
ATOM      2  C   LIG    1       25.182 -19.826   4.268  0.00  0.00    +0.000 C 
ATOM      3  C   LIG    1       25.297 -20.260   2.782  0.00  0.00    +0.014 C 
ATOM      4  C   LIG    1       23.864 -20.447   4.869  0.00  0.00    +0.001 C 
ATOM      5  C   LIG    1       23.817 -20.545   6.418  0.00  0.00    -0.004 C 
ATOM      6  C   LIG    1       25.067 -21.203   7.031  0.00  0.00    +0.001 C 
ATOM      7  C   LIG    1       26.310 -20.472   6.532  0.00  0.00    +0.036 C 
ATOM      8  C   LIG    1       25.084 -22.797   7.048  0.00  0.00    -0.026 C 
ATOM      9  C   LIG    1       25.253 -23.197   8.545  0.00  0.00    +0.012 C 
ATOM     10  C   LIG    1       23.770 -23.387   6.456  0.00  0.00    -0.002 C 
ATOM     11  C   LIG    1       23.698 -24.920   6.571  0.00  0.00    +0.035 C 
ATOM     12  C   LIG    1       24.887 -25.586   5.875  0.00  0.00    +0.115 C 
ATOM     13  C   LIG    1       26.232 -24.991   6.289  0.00  0.00    +0.032 C 
ATOM     14  C   LIG    1       22.507 -22.729   7.001  0.00  0.00    +0.004 C 
ATOM     15  C   LIG    1       26.241 -23.459   6.247  0.00  0.00    +0.009 C 
ATOM     16  C   LIG    1       22.554 -21.201   7.014  0.00  0.00    +0.004 C 
ATOM     17  C   LIG    1       22.767 -19.521   4.342  0.00  0.00    +0.005 C 
ATOM     18  C   LIG    1       26.433 -20.378   5.015  0.00  0.00    +0.121 C 
ATOM     19  C   LIG    1       23.392 -18.140   4.225  0.00  0.00    +0.005 C 
ENDROOT
BRANCH   1  21
ATOM     20  C   LIG    1       27.130 -17.113   3.504  0.00  0.00    +0.008 C 
ATOM     21  C   LIG    1       25.614 -17.267   3.369  0.00  0.00    -0.010 C 
BRANCH  21  22
ATOM     22  C   LIG    1       24.980 -15.843   3.412  0.00  0.00    +0.015 C 
BRANCH  22  23
ATOM     23  C   LIG    1       25.930 -14.725   3.835  0.00  0.00    +0.121 C 
BRANCH  23  24
ATOM     24  C   LIG    1       26.413 -13.955   2.636  0.00  0.00    +0.305 C 
ATOM     25  O   LIG    1       25.718 -13.713   1.656  0.00  0.00    -0.251 OA
BRANCH  24  26
ATOM     26  O   LIG    1       27.705 -13.575   2.718  0.00  0.00    -0.481 OA
ATOM     27  H   LIG    1       28.315 -14.134   2.199  0.00  0.00    +0.295 HD
ENDBRANCH  24  26
ENDBRANCH  23  24
ENDBRANCH  22  23
ENDBRANCH  21  22
ENDBRANCH   1  21
BRANCH  12  28
ATOM     28  O   LIG    1       24.900 -26.978   6.172  0.00  0.00    -0.392 OA
ATOM     29  H   LIG    1       25.619 -27.140   6.806  0.00  0.00    +0.210 HD
ENDBRANCH  12  28
BRANCH  18  30
ATOM     30  O   LIG    1       27.603 -19.623   4.733  0.00  0.00    -0.391 OA
ATOM     31  H   LIG    1       27.708 -19.573   3.767  0.00  0.00    +0.210 HD
ENDBRANCH  18  30
TORSDOF 7
ENDMDL
MODEL 7
REMARK VINA RESULT:      -6.2      8.805     13.666
REMARK  Name = *****
REMARK                            x       y       z     vdW  Elec       q    Type
REMARK                         _______ _______ _______ _____ _____    ______ ____
ROOT
ATOM      1  C   LIG    1       22.040 -30.957  12.645  0.00  0.00    +0.001 C 
ATOM      2  C   LIG    1       22.265 -29.443  13.026  0.00  0.00    +0.000 C 
ATOM      3  C   LIG    1       21.066 -28.579  12.552  0.00  0.00    +0.014 C 
ATOM      4  C   LIG    1       23.535 -29.040  12.184  0.00  0.00    +0.001 C 
ATOM      5  C   LIG    1       24.903 -29.415  12.816  0.00  0.00    -0.004 C 
ATOM      6  C   LIG    1       25.048 -28.966  14.281  0.00  0.00    +0.001 C 
ATOM      7  C   LIG    1       23.868 -29.505  15.086  0.00  0.00    +0.036 C 
ATOM      8  C   LIG    1       25.490 -27.452  14.510  0.00  0.00    -0.026 C 
ATOM      9  C   LIG    1       26.800 -27.522  15.353  0.00  0.00    +0.012 C 
ATOM     10  C   LIG    1       25.732 -26.717  13.159  0.00  0.00    -0.002 C 
ATOM     11  C   LIG    1       26.280 -25.291  13.343  0.00  0.00    +0.035 C 
ATOM     12  C   LIG    1       25.339 -24.440  14.198  0.00  0.00    +0.115 C 
ATOM     13  C   LIG    1       24.930 -25.125  15.500  0.00  0.00    +0.032 C 
ATOM     14  C   LIG    1       26.580 -27.516  12.175  0.00  0.00    +0.004 C 
ATOM     15  C   LIG    1       24.472 -26.572  15.291  0.00  0.00    +0.009 C 
ATOM     16  C   LIG    1       26.153 -28.976  12.024  0.00  0.00    +0.004 C 
ATOM     17  C   LIG    1       23.322 -29.769  10.857  0.00  0.00    +0.005 C 
ATOM     18  C   LIG    1       22.495 -29.135  14.537  0.00  0.00    +0.121 C 
ATOM     19  C   LIG    1       22.567 -31.047  11.187  0.00  0.00    +0.005 C 
ENDROOT
BRANCH   1  21
ATOM     20  C   LIG    1       20.511 -32.954  13.418  0.00  0.00    +0.008 C 
ATOM     21  C   LIG    1       20.608 -31.608  12.698  0.00  0.00    -0.010 C 
BRANCH  21  22
ATOM     22  C   LIG    1       19.961 -31.768  11.288  0.00  0.00    +0.015 C 
BRANCH  22  23
ATOM     23  C   LIG    1       18.467 -31.459  11.224  0.00  0.00    +0.121 C 
BRANCH  23  24
ATOM     24  C   LIG    1       17.961 -31.569   9.811  0.00  0.00    +0.305 C 
ATOM     25  O   LIG    1       17.875 -32.626   9.197  0.00  0.00    -0.251 OA
BRANCH  24  26
ATOM     26  O   LIG    1       17.636 -30.382   9.257  0.00  0.00    -0.481 OA
ATOM     27  H   LIG    1       16.886 -30.429   8.634  0.00  0.00    +0.295 HD
ENDBRANCH  24  26
ENDBRANCH  23  24
ENDBRANCH  22  23
ENDBRANCH  21  22
ENDBRANCH   1  21
BRANCH  12  28
ATOM     28  O   LIG    1       25.966 -23.202  14.516  0.00  0.00    -0.392 OA
ATOM     29  H   LIG    1       25.974 -22.658  13.711  0.00  0.00    +0.210 HD
ENDBRANCH  12  28
BRANCH  18  30
ATOM     30  O   LIG    1       21.527 -29.763  15.365  0.00  0.00    -0.391 OA
ATOM     31  H   LIG    1       21.440 -30.690  15.083  0.00  0.00    +0.210 HD
ENDBRANCH  18  30
TORSDOF 7
ENDMDL
MODEL 8
REMARK VINA RESULT:      -6.0      9.240     12.470
REMARK  Name = *****
REMARK                            x       y       z     vdW  Elec       q    Type
REMARK                         _______ _______ _______ _____ _____    ______ ____
ROOT
ATOM      1  C   LIG    1       24.009 -31.758   8.693  0.00  0.00    +0.001 C 
ATOM      2  C   LIG    1       25.195 -31.760   9.734  0.00  0.00    +0.000 C 
ATOM      3  C   LIG    1       25.693 -33.209   9.987  0.00  0.00    +0.014 C 
ATOM      4  C   LIG    1       24.520 -31.228  11.055  0.00  0.00    +0.001 C 
ATOM      5  C   LIG    1       24.405 -29.683  11.171  0.00  0.00    -0.004 C 
ATOM      6  C   LIG    1       25.726 -28.945  10.890  0.00  0.00    +0.001 C 
ATOM      7  C   LIG    1       26.265 -29.387   9.532  0.00  0.00    +0.036 C 
ATOM      8  C   LIG    1       26.747 -28.843  12.111  0.00  0.00    -0.026 C 
ATOM      9  C   LIG    1       26.994 -27.318  12.322  0.00  0.00    +0.012 C 
ATOM     10  C   LIG    1       26.165 -29.500  13.397  0.00  0.00    -0.002 C 
ATOM     11  C   LIG    1       27.069 -29.310  14.627  0.00  0.00    +0.035 C 
ATOM     12  C   LIG    1       28.468 -29.879  14.381  0.00  0.00    +0.115 C 
ATOM     13  C   LIG    1       29.087 -29.397  13.070  0.00  0.00    +0.032 C 
ATOM     14  C   LIG    1       24.727 -29.086  13.695  0.00  0.00    +0.004 C 
ATOM     15  C   LIG    1       28.128 -29.519  11.881  0.00  0.00    +0.009 C 
ATOM     16  C   LIG    1       23.795 -29.149  12.485  0.00  0.00    +0.004 C 
ATOM     17  C   LIG    1       23.139 -31.883  11.034  0.00  0.00    +0.005 C 
ATOM     18  C   LIG    1       26.438 -30.894   9.372  0.00  0.00    +0.121 C 
ATOM     19  C   LIG    1       22.755 -32.025   9.569  0.00  0.00    +0.005 C 
ENDROOT
BRANCH   1  21
ATOM     20  C   LIG    1       25.252 -33.596   7.278  0.00  0.00    +0.008 C 
ATOM     21  C   LIG    1       23.989 -32.757   7.477  0.00  0.00    -0.010 C 
BRANCH  21  22
ATOM     22  C   LIG    1       23.656 -32.058   6.124  0.00  0.00    +0.015 C 
BRANCH  22  23
ATOM     23  C   LIG    1       24.777 -31.193   5.552  0.00  0.00    +0.121 C 
BRANCH  23  24
ATOM     24  C   LIG    1       24.483 -29.732   5.765  0.00  0.00    +0.305 C 
ATOM     25  O   LIG    1       25.273 -28.944   6.269  0.00  0.00    -0.251 OA
BRANCH  24  26
ATOM     26  O   LIG    1       23.243 -29.366   5.378  0.00  0.00    -0.481 OA
ATOM     27  H   LIG    1       22.702 -30.103   5.035  0.00  0.00    +0.295 HD
ENDBRANCH  24  26
ENDBRANCH  23  24
ENDBRANCH  22  23
ENDBRANCH  21  22
ENDBRANCH   1  21
BRANCH  12  28
ATOM     28  O   LIG    1       29.332 -29.510  15.450  0.00  0.00    -0.392 OA
ATOM     29  H   LIG    1       28.930 -28.753  15.909  0.00  0.00    +0.210 HD
ENDBRANCH  12  28
BRANCH  18  30
ATOM     30  O   LIG    1       26.885 -31.127   8.043  0.00  0.00    -0.391 OA
ATOM     31  H   LIG    1       26.151 -31.518   7.539  0.00  0.00    +0.210 HD
ENDBRANCH  18  30
TORSDOF 7
ENDMDL
MODEL 9
REMARK VINA RESULT:      -5.9      8.480     13.407
REMARK  Name = *****
REMARK                            x       y       z     vdW  Elec       q    Type
REMARK                         _______ _______ _______ _____ _____    ______ ____
ROOT
ATOM      1  C   LIG    1       21.440 -31.294  12.944  0.00  0.00    +0.001 C 
ATOM      2  C   LIG    1       22.241 -30.204  12.131  0.00  0.00    +0.000 C 
ATOM      3  C   LIG    1       21.538 -28.824  12.235  0.00  0.00    +0.014 C 
ATOM      4  C   LIG    1       22.133 -30.709  10.642  0.00  0.00    +0.001 C 
ATOM      5  C   LIG    1       23.165 -31.794  10.228  0.00  0.00    -0.004 C 
ATOM      6  C   LIG    1       24.618 -31.429  10.583  0.00  0.00    +0.001 C 
ATOM      7  C   LIG    1       24.697 -31.090  12.069  0.00  0.00    +0.036 C 
ATOM      8  C   LIG    1       25.376 -30.481   9.550  0.00  0.00    -0.026 C 
ATOM      9  C   LIG    1       26.643 -31.274   9.107  0.00  0.00    +0.012 C 
ATOM     10  C   LIG    1       24.476 -30.133   8.328  0.00  0.00    -0.002 C 
ATOM     11  C   LIG    1       25.217 -29.323   7.250  0.00  0.00    +0.035 C 
ATOM     12  C   LIG    1       25.781 -28.021   7.824  0.00  0.00    +0.115 C 
ATOM     13  C   LIG    1       26.581 -28.231   9.108  0.00  0.00    +0.032 C 
ATOM     14  C   LIG    1       23.773 -31.346   7.726  0.00  0.00    +0.004 C 
ATOM     15  C   LIG    1       25.850 -29.115  10.125  0.00  0.00    +0.009 C 
ATOM     16  C   LIG    1       23.103 -32.255   8.756  0.00  0.00    +0.004 C 
ATOM     17  C   LIG    1       20.705 -31.246  10.555  0.00  0.00    +0.005 C 
ATOM     18  C   LIG    1       23.734 -30.000  12.529  0.00  0.00    +0.121 C 
ATOM     19  C   LIG    1       20.363 -31.781  11.937  0.00  0.00    +0.005 C 
ENDROOT
BRANCH   1  21
ATOM     20  C   LIG    1       21.098 -31.816  15.500  0.00  0.00    +0.008 C 
ATOM     21  C   LIG    1       20.728 -30.940  14.302  0.00  0.00    -0.010 C 
BRANCH  21  22
ATOM     22  C   LIG    1       19.174 -30.916  14.185  0.00  0.00    +0.015 C 
BRANCH  22  23
ATOM     23  C   LIG    1       18.534 -29.542  14.374  0.00  0.00    +0.121 C 
BRANCH  23  24
ATOM     24  C   LIG    1       17.073 -29.582  14.013  0.00  0.00    +0.305 C 
ATOM     25  O   LIG    1       16.179 -29.173  14.744  0.00  0.00    -0.251 OA
BRANCH  24  26
ATOM     26  O   LIG    1       16.826 -30.144  12.812  0.00  0.00    -0.481 OA
ATOM     27  H   LIG    1       17.243 -31.018  12.691  0.00  0.00    +0.295 HD
ENDBRANCH  24  26
ENDBRANCH  23  24
ENDBRANCH  22  23
ENDBRANCH  21  22
ENDBRANCH   1  21
BRANCH  12  28
ATOM     28  O   LIG    1       26.626 -27.399   6.863  0.00  0.00    -0.392 OA
ATOM     29  H   LIG    1       26.135 -27.346   6.026  0.00  0.00    +0.210 HD
ENDBRANCH  12  28
BRANCH  18  30
ATOM     30  O   LIG    1       23.900 -29.858  13.933  0.00  0.00    -0.391 OA
ATOM     31  H   LIG    1       24.045 -28.917  14.129  0.00  0.00    +0.210 HD
ENDBRANCH  18  30
TORSDOF 7
ENDMDL
