MODEL 1
REMARK VINA RESULT:      -6.4      0.000      0.000
REMARK  Name = *****
REMARK                            x       y       z     vdW  Elec       q    Type
REMARK                         _______ _______ _______ _____ _____    ______ ____
ROOT
ATOM      1  C   LIG    1       29.131 -18.248   5.414  0.00  0.00    +0.125 C 
ATOM      2  C   LIG    1       29.674 -19.218   6.407  0.00  0.00    +0.210 C 
ATOM      3  N   LIG    1       28.848 -20.245   6.846  0.00  0.00    -0.171 NA
ATOM      4  O   LIG    1       27.658 -20.360   6.413  0.00  0.00    -0.620 OA
ATOM      5  C   LIG    1       29.323 -21.149   7.762  0.00  0.00    +0.357 C 
ATOM      6  CA  LIG    1       30.612 -21.002   8.216  0.00  0.00    +0.213 C 
ATOM      7  N   LIG    1       31.458 -20.014   7.817  0.00  0.00    -0.237 NA
ATOM      8  C   LIG    1       30.962 -19.143   6.918  0.00  0.00    +0.186 C 
ENDROOT
BRANCH   6   9
ATOM      9  C   LIG    1       31.160 -21.962   9.208  0.00  0.00    +0.361 C 
ATOM     10  O   LIG    1       30.745 -22.093  10.344  0.00  0.00    -0.243 OA
BRANCH   9  11
ATOM     11  OXT LIG    1       32.184 -22.669   8.673  0.00  0.00    -0.476 OA
ATOM     12  HXT LIG    1       32.391 -22.322   7.774  0.00  0.00    +0.295 HD
ENDBRANCH   9  11
ENDBRANCH   6   9
TORSDOF 2
ENDMDL
MODEL 2
REMARK VINA RESULT:      -6.3      1.860      2.291
REMARK  Name = *****
REMARK                            x       y       z     vdW  Elec       q    Type
REMARK                         _______ _______ _______ _____ _____    ______ ____
ROOT
ATOM      1  C   LIG    1       26.900 -20.158   5.697  0.00  0.00    +0.125 C 
ATOM      2  C   LIG    1       28.106 -20.313   6.561  0.00  0.00    +0.210 C 
ATOM      3  N   LIG    1       29.189 -19.471   6.340  0.00  0.00    -0.171 NA
ATOM      4  O   LIG    1       29.157 -18.588   5.427  0.00  0.00    -0.620 OA
ATOM      5  C   LIG    1       30.311 -19.596   7.119  0.00  0.00    +0.357 C 
ATOM      6  CA  LIG    1       30.321 -20.561   8.099  0.00  0.00    +0.213 C 
ATOM      7  N   LIG    1       29.288 -21.408   8.352  0.00  0.00    -0.237 NA
ATOM      8  C   LIG    1       28.201 -21.260   7.571  0.00  0.00    +0.186 C 
ENDROOT
BRANCH   6   9
ATOM      9  C   LIG    1       31.519 -20.725   8.962  0.00  0.00    +0.361 C 
ATOM     10  O   LIG    1       31.944 -21.794   9.357  0.00  0.00    -0.243 OA
BRANCH   9  11
ATOM     11  OXT LIG    1       32.070 -19.521   9.247  0.00  0.00    -0.476 OA
ATOM     12  HXT LIG    1       32.293 -19.478  10.205  0.00  0.00    +0.295 HD
ENDBRANCH   9  11
ENDBRANCH   6   9
TORSDOF 2
ENDMDL
MODEL 3
REMARK VINA RESULT:      -6.2      3.086      3.450
REMARK  Name = *****
REMARK                            x       y       z     vdW  Elec       q    Type
REMARK                         _______ _______ _______ _____ _____    ______ ____
ROOT
ATOM      1  C   LIG    1       28.956 -20.666   6.400  0.00  0.00    +0.125 C 
ATOM      2  C   LIG    1       29.826 -19.769   7.215  0.00  0.00    +0.210 C 
ATOM      3  N   LIG    1       29.315 -19.254   8.400  0.00  0.00    -0.171 NA
ATOM      4  O   LIG    1       28.138 -19.538   8.786  0.00  0.00    -0.620 OA
ATOM      5  C   LIG    1       30.094 -18.423   9.166  0.00  0.00    +0.357 C 
ATOM      6  CA  LIG    1       31.363 -18.129   8.725  0.00  0.00    +0.213 C 
ATOM      7  N   LIG    1       31.905 -18.607   7.573  0.00  0.00    -0.237 NA
ATOM      8  C   LIG    1       31.116 -19.419   6.844  0.00  0.00    +0.186 C 
ENDROOT
BRANCH   6   9
ATOM      9  C   LIG    1       32.235 -17.234   9.528  0.00  0.00    +0.361 C 
ATOM     10  O   LIG    1       32.601 -17.465  10.666  0.00  0.00    -0.243 OA
BRANCH   9  11
ATOM     11  OXT LIG    1       32.564 -16.128   8.820  0.00  0.00    -0.476 OA
ATOM     12  HXT LIG    1       33.271 -16.349   8.170  0.00  0.00    +0.295 HD
ENDBRANCH   9  11
ENDBRANCH   6   9
TORSDOF 2
ENDMDL
MODEL 4
REMARK VINA RESULT:      -5.9      2.494      2.800
REMARK  Name = *****
REMARK                            x       y       z     vdW  Elec       q    Type
REMARK                         _______ _______ _______ _____ _____    ______ ____
ROOT
ATOM      1  C   LIG    1       27.066 -20.269   5.750  0.00  0.00    +0.125 C 
ATOM      2  C   LIG    1       28.281 -19.777   6.460  0.00  0.00    +0.210 C 
ATOM      3  N   LIG    1       28.476 -20.165   7.780  0.00  0.00    -0.171 NA
ATOM      4  O   LIG    1       27.644 -20.921   8.372  0.00  0.00    -0.620 OA
ATOM      5  C   LIG    1       29.585 -19.723   8.456  0.00  0.00    +0.357 C 
ATOM      6  CA  LIG    1       30.470 -18.904   7.795  0.00  0.00    +0.213 C 
ATOM      7  N   LIG    1       30.322 -18.498   6.506  0.00  0.00    -0.237 NA
ATOM      8  C   LIG    1       29.224 -18.948   5.869  0.00  0.00    +0.186 C 
ENDROOT
BRANCH   6   9
ATOM      9  C   LIG    1       31.681 -18.407   8.495  0.00  0.00    +0.361 C 
ATOM     10  O   LIG    1       32.150 -17.292   8.358  0.00  0.00    -0.243 OA
BRANCH   9  11
ATOM     11  OXT LIG    1       32.191 -19.365   9.305  0.00  0.00    -0.476 OA
ATOM     12  HXT LIG    1       32.194 -20.230   8.834  0.00  0.00    +0.295 HD
ENDBRANCH   9  11
ENDBRANCH   6   9
TORSDOF 2
ENDMDL
MODEL 5
REMARK VINA RESULT:      -5.8      1.665      1.802
REMARK  Name = *****
REMARK                            x       y       z     vdW  Elec       q    Type
REMARK                         _______ _______ _______ _____ _____    ______ ____
ROOT
ATOM      1  C   LIG    1       27.057 -19.985   5.489  0.00  0.00    +0.125 C 
ATOM      2  C   LIG    1       28.236 -20.168   6.384  0.00  0.00    +0.210 C 
ATOM      3  N   LIG    1       28.250 -21.261   7.242  0.00  0.00    -0.171 NA
ATOM      4  O   LIG    1       27.286 -22.088   7.266  0.00  0.00    -0.620 OA
ATOM      5  C   LIG    1       29.321 -21.449   8.078  0.00  0.00    +0.357 C 
ATOM      6  CA  LIG    1       30.350 -20.538   8.035  0.00  0.00    +0.213 C 
ATOM      7  N   LIG    1       30.382 -19.454   7.215  0.00  0.00    -0.237 NA
ATOM      8  C   LIG    1       29.316 -19.297   6.407  0.00  0.00    +0.186 C 
ENDROOT
BRANCH   6   9
ATOM      9  C   LIG    1       31.527 -20.710   8.925  0.00  0.00    +0.361 C 
ATOM     10  O   LIG    1       31.945 -21.784   9.318  0.00  0.00    -0.243 OA
BRANCH   9  11
ATOM     11  OXT LIG    1       32.068 -19.509   9.239  0.00  0.00    -0.476 OA
ATOM     12  HXT LIG    1       31.481 -18.787   8.914  0.00  0.00    +0.295 HD
ENDBRANCH   9  11
ENDBRANCH   6   9
TORSDOF 2
ENDMDL
MODEL 6
REMARK VINA RESULT:      -5.8      5.012      6.467
REMARK  Name = *****
REMARK                            x       y       z     vdW  Elec       q    Type
REMARK                         _______ _______ _______ _____ _____    ______ ____
ROOT
ATOM      1  C   LIG    1       24.055 -25.807   5.896  0.00  0.00    +0.125 C 
ATOM      2  C   LIG    1       24.551 -24.536   6.499  0.00  0.00    +0.210 C 
ATOM      3  N   LIG    1       23.619 -23.581   6.886  0.00  0.00    -0.171 NA
ATOM      4  O   LIG    1       22.373 -23.781   6.734  0.00  0.00    -0.620 OA
ATOM      5  C   LIG    1       24.051 -22.403   7.440  0.00  0.00    +0.357 C 
ATOM      6  CA  LIG    1       25.403 -22.210   7.592  0.00  0.00    +0.213 C 
ATOM      7  N   LIG    1       26.353 -23.113   7.228  0.00  0.00    -0.237 NA
ATOM      8  C   LIG    1       25.898 -24.259   6.687  0.00  0.00    +0.186 C 
ENDROOT
BRANCH   6   9
ATOM      9  C   LIG    1       25.907 -20.946   8.188  0.00  0.00    +0.361 C 
ATOM     10  O   LIG    1       25.810 -20.651   9.365  0.00  0.00    -0.243 OA
BRANCH   9  11
ATOM     11  OXT LIG    1       26.487 -20.170   7.242  0.00  0.00    -0.476 OA
ATOM     12  HXT LIG    1       25.927 -20.160   6.432  0.00  0.00    +0.295 HD
ENDBRANCH   9  11
ENDBRANCH   6   9
TORSDOF 2
ENDMDL
MODEL 7
REMARK VINA RESULT:      -5.7      3.582      4.804
REMARK  Name = *****
REMARK                            x       y       z     vdW  Elec       q    Type
REMARK                         _______ _______ _______ _____ _____    ______ ____
ROOT
ATOM      1  C   LIG    1       32.413 -16.204  11.996  0.00  0.00    +0.125 C 
ATOM      2  C   LIG    1       32.059 -16.924  10.739  0.00  0.00    +0.210 C 
ATOM      3  N   LIG    1       31.236 -18.041  10.828  0.00  0.00    -0.171 NA
ATOM      4  O   LIG    1       30.793 -18.442  11.950  0.00  0.00    -0.620 OA
ATOM      5  C   LIG    1       30.899 -18.722   9.687  0.00  0.00    +0.357 C 
ATOM      6  CA  LIG    1       31.393 -18.270   8.486  0.00  0.00    +0.213 C 
ATOM      7  N   LIG    1       32.200 -17.185   8.349  0.00  0.00    -0.237 NA
ATOM      8  C   LIG    1       32.514 -16.537   9.487  0.00  0.00    +0.186 C 
ENDROOT
BRANCH   6   9
ATOM      9  C   LIG    1       31.048 -18.983   7.230  0.00  0.00    +0.361 C 
ATOM     10  O   LIG    1       30.398 -18.503   6.319  0.00  0.00    -0.243 OA
BRANCH   9  11
ATOM     11  OXT LIG    1       31.554 -20.239   7.239  0.00  0.00    -0.476 OA
ATOM     12  HXT LIG    1       31.891 -20.466   6.341  0.00  0.00    +0.295 HD
ENDBRANCH   9  11
ENDBRANCH   6   9
TORSDOF 2
ENDMDL
MODEL 8
REMARK VINA RESULT:      -5.6      6.152      6.930
REMARK  Name = *****
REMARK                            x       y       z     vdW  Elec       q    Type
REMARK                         _______ _______ _______ _____ _____    ______ ____
ROOT
ATOM      1  C   LIG    1       23.539 -21.552   7.341  0.00  0.00    +0.125 C 
ATOM      2  C   LIG    1       24.254 -22.822   7.023  0.00  0.00    +0.210 C 
ATOM      3  N   LIG    1       23.497 -23.948   6.721  0.00  0.00    -0.171 NA
ATOM      4  O   LIG    1       22.227 -23.901   6.712  0.00  0.00    -0.620 OA
ATOM      5  C   LIG    1       24.130 -25.128   6.429  0.00  0.00    +0.357 C 
ATOM      6  CA  LIG    1       25.505 -25.154   6.448  0.00  0.00    +0.213 C 
ATOM      7  N   LIG    1       26.288 -24.080   6.738  0.00  0.00    -0.237 NA
ATOM      8  C   LIG    1       25.637 -22.936   7.021  0.00  0.00    +0.186 C 
ENDROOT
BRANCH   6   9
ATOM      9  C   LIG    1       26.225 -26.415   6.136  0.00  0.00    +0.361 C 
ATOM     10  O   LIG    1       26.735 -26.671   5.061  0.00  0.00    -0.243 OA
BRANCH   9  11
ATOM     11  OXT LIG    1       26.234 -27.238   7.211  0.00  0.00    -0.476 OA
ATOM     12  HXT LIG    1       27.153 -27.320   7.558  0.00  0.00    +0.295 HD
ENDBRANCH   9  11
ENDBRANCH   6   9
TORSDOF 2
ENDMDL
MODEL 9
REMARK VINA RESULT:      -5.5      4.442      6.506
REMARK  Name = *****
REMARK                            x       y       z     vdW  Elec       q    Type
REMARK                         _______ _______ _______ _____ _____    ______ ____
ROOT
ATOM      1  C   LIG    1       28.155 -20.225   7.739  0.00  0.00    +0.125 C 
ATOM      2  C   LIG    1       26.790 -20.407   7.167  0.00  0.00    +0.210 C 
ATOM      3  N   LIG    1       25.733 -20.627   8.041  0.00  0.00    -0.171 NA
ATOM      4  O   LIG    1       25.918 -20.671   9.298  0.00  0.00    -0.620 OA
ATOM      5  C   LIG    1       24.468 -20.802   7.540  0.00  0.00    +0.357 C 
ATOM      6  CA  LIG    1       24.293 -20.753   6.177  0.00  0.00    +0.213 C 
ATOM      7  N   LIG    1       25.296 -20.542   5.283  0.00  0.00    -0.237 NA
ATOM      8  C   LIG    1       26.526 -20.374   5.805  0.00  0.00    +0.186 C 
ENDROOT
BRANCH   6   9
ATOM      9  C   LIG    1       22.938 -20.937   5.598  0.00  0.00    +0.361 C 
ATOM     10  O   LIG    1       22.295 -20.060   5.052  0.00  0.00    -0.243 OA
BRANCH   9  11
ATOM     11  OXT LIG    1       22.518 -22.214   5.763  0.00  0.00    -0.476 OA
ATOM     12  HXT LIG    1       21.809 -22.243   6.446  0.00  0.00    +0.295 HD
ENDBRANCH   9  11
ENDBRANCH   6   9
TORSDOF 2
ENDMDL
