MODEL 1
REMARK VINA RESULT:      -4.6      0.000      0.000
REMARK  Name = *****
REMARK                            x       y       z     vdW  Elec       q    Type
REMARK                         _______ _______ _______ _____ _____    ______ ____
ROOT
ATOM      1  C   LIG    1       26.611 -14.489   3.024  0.00  0.00    +0.161 C 
ENDROOT
BRANCH   1   2
ATOM      2  C   LIG    1       25.525 -13.432   3.160  0.00  0.00    -0.018 A 
ATOM      3  C   LIG    1       24.811 -13.241   4.358  0.00  0.00    +0.006 A 
ATOM      4  C   LIG    1       23.822 -12.256   4.444  0.00  0.00    +0.000 A 
ATOM      5  C   LIG    1       23.535 -11.447   3.350  0.00  0.00    +0.000 A 
ATOM      6  C   LIG    1       24.233 -11.623   2.155  0.00  0.00    +0.000 A 
ATOM      7  C   LIG    1       25.215 -12.612   2.065  0.00  0.00    +0.006 A 
ENDBRANCH   1   2
BRANCH   1   8
ATOM      8  C   LIG    1       27.866 -14.286   3.942  0.00  0.00    +0.083 C 
ATOM      9  C   LIG    1       27.466 -13.848   5.353  0.00  0.00    +0.027 C 
BRANCH   8  11
ATOM     10  C   LIG    1       29.137 -12.185   4.197  0.00  0.00    +0.101 C 
ATOM     11  N   LIG    1       28.750 -13.272   3.315  0.00  0.00    -0.314 NA
ATOM     12  H   LIG    1       29.585 -13.761   2.977  0.00  0.00    +0.122 HD
ENDBRANCH   8  11
ENDBRANCH   1   8
BRANCH   1  13
ATOM     13  O   LIG    1       26.055 -15.788   3.298  0.00  0.00    -0.386 OA
ATOM     14  H   LIG    1       26.393 -16.081   4.158  0.00  0.00    +0.210 HD
ENDBRANCH   1  13
TORSDOF 4
ENDMDL
MODEL 2
REMARK VINA RESULT:      -4.6      6.716      7.432
REMARK  Name = *****
REMARK                            x       y       z     vdW  Elec       q    Type
REMARK                         _______ _______ _______ _____ _____    ______ ____
ROOT
ATOM      1  C   LIG    1       25.739 -19.749   4.605  0.00  0.00    +0.161 C 
ENDROOT
BRANCH   1   2
ATOM      2  C   LIG    1       24.229 -19.929   4.646  0.00  0.00    -0.018 A 
ATOM      3  C   LIG    1       23.629 -21.134   5.058  0.00  0.00    +0.006 A 
ATOM      4  C   LIG    1       22.236 -21.259   5.085  0.00  0.00    +0.000 A 
ATOM      5  C   LIG    1       21.425 -20.193   4.712  0.00  0.00    +0.000 A 
ATOM      6  C   LIG    1       22.003 -18.992   4.301  0.00  0.00    +0.000 A 
ATOM      7  C   LIG    1       23.394 -18.868   4.265  0.00  0.00    +0.006 A 
ENDBRANCH   1   2
BRANCH   1   8
ATOM      8  C   LIG    1       26.549 -20.626   5.622  0.00  0.00    +0.083 C 
ATOM      9  C   LIG    1       26.085 -20.391   7.062  0.00  0.00    +0.027 C 
BRANCH   8  11
ATOM     10  C   LIG    1       28.811 -20.712   6.609  0.00  0.00    +0.101 C 
ATOM     11  N   LIG    1       27.991 -20.300   5.482  0.00  0.00    -0.314 NA
ATOM     12  H   LIG    1       28.324 -20.750   4.624  0.00  0.00    +0.122 HD
ENDBRANCH   8  11
ENDBRANCH   1   8
BRANCH   1  13
ATOM     13  O   LIG    1       26.222 -20.032   3.279  0.00  0.00    -0.386 OA
ATOM     14  H   LIG    1       25.469 -19.977   2.671  0.00  0.00    +0.210 HD
ENDBRANCH   1  13
TORSDOF 4
ENDMDL
MODEL 3
REMARK VINA RESULT:      -4.3      7.009      8.622
REMARK  Name = *****
REMARK                            x       y       z     vdW  Elec       q    Type
REMARK                         _______ _______ _______ _____ _____    ______ ____
ROOT
ATOM      1  C   LIG    1       24.696 -20.931   5.000  0.00  0.00    +0.161 C 
ENDROOT
BRANCH   1   2
ATOM      2  C   LIG    1       26.095 -20.736   5.565  0.00  0.00    -0.018 A 
ATOM      3  C   LIG    1       26.620 -21.569   6.571  0.00  0.00    +0.006 A 
ATOM      4  C   LIG    1       27.913 -21.359   7.062  0.00  0.00    +0.000 A 
ATOM      5  C   LIG    1       28.701 -20.330   6.558  0.00  0.00    +0.000 A 
ATOM      6  C   LIG    1       28.196 -19.495   5.561  0.00  0.00    +0.000 A 
ATOM      7  C   LIG    1       26.902 -19.697   5.076  0.00  0.00    +0.006 A 
ENDBRANCH   1   2
BRANCH   1   8
ATOM      8  C   LIG    1       23.545 -20.220   5.793  0.00  0.00    +0.083 C 
ATOM      9  C   LIG    1       23.098 -21.049   7.000  0.00  0.00    +0.027 C 
BRANCH   8  11
ATOM     10  C   LIG    1       22.181 -18.598   4.527  0.00  0.00    +0.101 C 
ATOM     11  N   LIG    1       22.407 -19.992   4.869  0.00  0.00    -0.314 NA
ATOM     12  H   LIG    1       22.589 -20.535   4.019  0.00  0.00    +0.122 HD
ENDBRANCH   8  11
ENDBRANCH   1   8
BRANCH   1  13
ATOM     13  O   LIG    1       24.659 -20.471   3.637  0.00  0.00    -0.386 OA
ATOM     14  H   LIG    1       25.573 -20.416   3.317  0.00  0.00    +0.210 HD
ENDBRANCH   1  13
TORSDOF 4
ENDMDL
MODEL 4
REMARK VINA RESULT:      -4.1      1.630      2.590
REMARK  Name = *****
REMARK                            x       y       z     vdW  Elec       q    Type
REMARK                         _______ _______ _______ _____ _____    ______ ____
ROOT
ATOM      1  C   LIG    1       26.324 -14.040   4.890  0.00  0.00    +0.161 C 
ENDROOT
BRANCH   1   2
ATOM      2  C   LIG    1       25.434 -13.136   4.050  0.00  0.00    -0.018 A 
ATOM      3  C   LIG    1       25.510 -13.106   2.646  0.00  0.00    +0.006 A 
ATOM      4  C   LIG    1       24.673 -12.263   1.908  0.00  0.00    +0.000 A 
ATOM      5  C   LIG    1       23.748 -11.448   2.552  0.00  0.00    +0.000 A 
ATOM      6  C   LIG    1       23.660 -11.464   3.944  0.00  0.00    +0.000 A 
ATOM      7  C   LIG    1       24.502 -12.299   4.682  0.00  0.00    +0.006 A 
ENDBRANCH   1   2
BRANCH   1   8
ATOM      8  C   LIG    1       27.595 -14.598   4.162  0.00  0.00    +0.083 C 
ATOM      9  C   LIG    1       28.508 -13.469   3.678  0.00  0.00    +0.027 C 
BRANCH   8  11
ATOM     10  C   LIG    1       26.454 -16.651   3.400  0.00  0.00    +0.101 C 
ATOM     11  N   LIG    1       27.154 -15.436   3.019  0.00  0.00    -0.314 NA
ATOM     12  H   LIG    1       26.550 -14.855   2.429  0.00  0.00    +0.122 HD
ENDBRANCH   8  11
ENDBRANCH   1   8
BRANCH   1  13
ATOM     13  O   LIG    1       26.751 -13.333   6.070  0.00  0.00    -0.386 OA
ATOM     14  H   LIG    1       26.398 -12.431   6.020  0.00  0.00    +0.210 HD
ENDBRANCH   1  13
TORSDOF 4
ENDMDL
MODEL 5
REMARK VINA RESULT:      -4.1      1.906      3.927
REMARK  Name = *****
REMARK                            x       y       z     vdW  Elec       q    Type
REMARK                         _______ _______ _______ _____ _____    ______ ____
ROOT
ATOM      1  C   LIG    1       25.547 -14.900   3.890  0.00  0.00    +0.161 C 
ENDROOT
BRANCH   1   2
ATOM      2  C   LIG    1       26.741 -13.998   4.169  0.00  0.00    -0.018 A 
ATOM      3  C   LIG    1       26.962 -13.417   5.431  0.00  0.00    +0.006 A 
ATOM      4  C   LIG    1       28.073 -12.596   5.649  0.00  0.00    +0.000 A 
ATOM      5  C   LIG    1       28.980 -12.349   4.623  0.00  0.00    +0.000 A 
ATOM      6  C   LIG    1       28.775 -12.917   3.365  0.00  0.00    +0.000 A 
ATOM      7  C   LIG    1       27.661 -13.729   3.144  0.00  0.00    +0.006 A 
ENDBRANCH   1   2
BRANCH   1   8
ATOM      8  C   LIG    1       24.141 -14.244   4.117  0.00  0.00    +0.083 C 
ATOM      9  C   LIG    1       23.068 -15.299   4.400  0.00  0.00    +0.027 C 
BRANCH   8  11
ATOM     10  C   LIG    1       23.926 -12.017   3.073  0.00  0.00    +0.101 C 
ATOM     11  N   LIG    1       23.788 -13.454   2.911  0.00  0.00    -0.314 NA
ATOM     12  H   LIG    1       24.389 -13.779   2.146  0.00  0.00    +0.122 HD
ENDBRANCH   8  11
ENDBRANCH   1   8
BRANCH   1  13
ATOM     13  O   LIG    1       25.611 -15.376   2.534  0.00  0.00    -0.386 OA
ATOM     14  H   LIG    1       25.951 -14.656   1.981  0.00  0.00    +0.210 HD
ENDBRANCH   1  13
TORSDOF 4
ENDMDL
MODEL 6
REMARK VINA RESULT:      -3.9      1.894      2.928
REMARK  Name = *****
REMARK                            x       y       z     vdW  Elec       q    Type
REMARK                         _______ _______ _______ _____ _____    ______ ____
ROOT
ATOM      1  C   LIG    1       26.884 -14.217   3.213  0.00  0.00    +0.161 C 
ENDROOT
BRANCH   1   2
ATOM      2  C   LIG    1       25.721 -13.242   3.320  0.00  0.00    -0.018 A 
ATOM      3  C   LIG    1       25.206 -12.564   2.200  0.00  0.00    +0.006 A 
ATOM      4  C   LIG    1       24.133 -11.677   2.339  0.00  0.00    +0.000 A 
ATOM      5  C   LIG    1       23.554 -11.461   3.585  0.00  0.00    +0.000 A 
ATOM      6  C   LIG    1       24.052 -12.125   4.706  0.00  0.00    +0.000 A 
ATOM      7  C   LIG    1       25.129 -13.003   4.570  0.00  0.00    +0.006 A 
ENDBRANCH   1   2
BRANCH   1   8
ATOM      8  C   LIG    1       26.649 -15.620   3.871  0.00  0.00    +0.083 C 
ATOM      9  C   LIG    1       27.972 -16.302   4.229  0.00  0.00    +0.027 C 
BRANCH   8  11
ATOM     10  C   LIG    1       25.747 -17.852   3.323  0.00  0.00    +0.101 C 
ATOM     11  N   LIG    1       25.871 -16.460   2.927  0.00  0.00    -0.314 NA
ATOM     12  H   LIG    1       24.941 -16.039   2.836  0.00  0.00    +0.122 HD
ENDBRANCH   8  11
ENDBRANCH   1   8
BRANCH   1  13
ATOM     13  O   LIG    1       27.218 -14.417   1.827  0.00  0.00    -0.386 OA
ATOM     14  H   LIG    1       27.900 -15.104   1.781  0.00  0.00    +0.210 HD
ENDBRANCH   1  13
TORSDOF 4
ENDMDL
MODEL 7
REMARK VINA RESULT:      -3.9      2.221      3.147
REMARK  Name = *****
REMARK                            x       y       z     vdW  Elec       q    Type
REMARK                         _______ _______ _______ _____ _____    ______ ____
ROOT
ATOM      1  C   LIG    1       27.183 -14.925   4.132  0.00  0.00    +0.161 C 
ENDROOT
BRANCH   1   2
ATOM      2  C   LIG    1       26.052 -14.010   3.686  0.00  0.00    -0.018 A 
ATOM      3  C   LIG    1       25.899 -13.605   2.347  0.00  0.00    +0.006 A 
ATOM      4  C   LIG    1       24.844 -12.765   1.977  0.00  0.00    +0.000 A 
ATOM      5  C   LIG    1       23.927 -12.324   2.925  0.00  0.00    +0.000 A 
ATOM      6  C   LIG    1       24.064 -12.715   4.256  0.00  0.00    +0.000 A 
ATOM      7  C   LIG    1       25.122 -13.547   4.630  0.00  0.00    +0.006 A 
ENDBRANCH   1   2
BRANCH   1   8
ATOM      8  C   LIG    1       27.189 -16.352   3.483  0.00  0.00    +0.083 C 
ATOM      9  C   LIG    1       25.782 -16.955   3.437  0.00  0.00    +0.027 C 
BRANCH   8  11
ATOM     10  C   LIG    1       27.566 -18.540   4.562  0.00  0.00    +0.101 C 
ATOM     11  N   LIG    1       28.101 -17.223   4.266  0.00  0.00    -0.314 NA
ATOM     12  H   LIG    1       28.972 -17.311   3.733  0.00  0.00    +0.122 HD
ENDBRANCH   8  11
ENDBRANCH   1   8
BRANCH   1  13
ATOM     13  O   LIG    1       28.448 -14.296   3.855  0.00  0.00    -0.386 OA
ATOM     14  H   LIG    1       28.272 -13.473   3.373  0.00  0.00    +0.210 HD
ENDBRANCH   1  13
TORSDOF 4
ENDMDL
MODEL 8
REMARK VINA RESULT:      -3.8      2.211      3.090
REMARK  Name = *****
REMARK                            x       y       z     vdW  Elec       q    Type
REMARK                         _______ _______ _______ _____ _____    ______ ____
ROOT
ATOM      1  C   LIG    1       26.166 -14.118   3.207  0.00  0.00    +0.161 C 
ENDROOT
BRANCH   1   2
ATOM      2  C   LIG    1       25.113 -15.151   3.578  0.00  0.00    -0.018 A 
ATOM      3  C   LIG    1       25.317 -16.531   3.389  0.00  0.00    +0.006 A 
ATOM      4  C   LIG    1       24.326 -17.450   3.746  0.00  0.00    +0.000 A 
ATOM      5  C   LIG    1       23.127 -17.015   4.300  0.00  0.00    +0.000 A 
ATOM      6  C   LIG    1       22.907 -15.651   4.494  0.00  0.00    +0.000 A 
ATOM      7  C   LIG    1       23.893 -14.731   4.130  0.00  0.00    +0.006 A 
ENDBRANCH   1   2
BRANCH   1   8
ATOM      8  C   LIG    1       27.424 -14.074   4.141  0.00  0.00    +0.083 C 
ATOM      9  C   LIG    1       27.089 -13.473   5.509  0.00  0.00    +0.027 C 
BRANCH   8  11
ATOM     10  C   LIG    1       29.055 -12.226   4.291  0.00  0.00    +0.101 C 
ATOM     11  N   LIG    1       28.483 -13.280   3.470  0.00  0.00    -0.314 NA
ATOM     12  H   LIG    1       29.217 -13.933   3.178  0.00  0.00    +0.122 HD
ENDBRANCH   8  11
ENDBRANCH   1   8
BRANCH   1  13
ATOM     13  O   LIG    1       26.611 -14.348   1.858  0.00  0.00    -0.386 OA
ATOM     14  H   LIG    1       26.141 -15.125   1.518  0.00  0.00    +0.210 HD
ENDBRANCH   1  13
TORSDOF 4
ENDMDL
MODEL 9
REMARK VINA RESULT:      -3.7      3.738      4.688
REMARK  Name = *****
REMARK                            x       y       z     vdW  Elec       q    Type
REMARK                         _______ _______ _______ _____ _____    ______ ____
ROOT
ATOM      1  C   LIG    1       25.963 -16.832   3.177  0.00  0.00    +0.161 C 
ENDROOT
BRANCH   1   2
ATOM      2  C   LIG    1       24.694 -17.516   3.662  0.00  0.00    -0.018 A 
ATOM      3  C   LIG    1       23.573 -16.790   4.105  0.00  0.00    +0.006 A 
ATOM      4  C   LIG    1       22.423 -17.457   4.541  0.00  0.00    +0.000 A 
ATOM      5  C   LIG    1       22.368 -18.847   4.535  0.00  0.00    +0.000 A 
ATOM      6  C   LIG    1       23.471 -19.582   4.100  0.00  0.00    +0.000 A 
ATOM      7  C   LIG    1       24.623 -18.918   3.673  0.00  0.00    +0.006 A 
ENDBRANCH   1   2
BRANCH   1   8
ATOM      8  C   LIG    1       26.146 -15.346   3.644  0.00  0.00    +0.083 C 
ATOM      9  C   LIG    1       25.704 -14.358   2.562  0.00  0.00    +0.027 C 
BRANCH   8  11
ATOM     10  C   LIG    1       28.055 -13.784   3.749  0.00  0.00    +0.101 C 
ATOM     11  N   LIG    1       27.574 -15.133   3.990  0.00  0.00    -0.314 NA
ATOM     12  H   LIG    1       27.688 -15.373   4.980  0.00  0.00    +0.122 HD
ENDBRANCH   8  11
ENDBRANCH   1   8
BRANCH   1  13
ATOM     13  O   LIG    1       27.111 -17.587   3.606  0.00  0.00    -0.386 OA
ATOM     14  H   LIG    1       26.857 -18.522   3.637  0.00  0.00    +0.210 HD
ENDBRANCH   1  13
TORSDOF 4
ENDMDL
