MODEL 1
REMARK VINA RESULT:      -6.9      0.000      0.000
REMARK  Name = *****
REMARK                            x       y       z     vdW  Elec       q    Type
REMARK                         _______ _______ _______ _____ _____    ______ ____
ROOT
ATOM      1  C   LIG    1       28.642 -20.663   7.656  0.00  0.00    +0.240 C 
ENDROOT
BRANCH   1   2
ATOM      2  C   LIG    1       30.017 -21.133   8.274  0.00  0.00    +0.220 C 
BRANCH   2   3
ATOM      3  O   LIG    1       30.527 -20.060   9.058  0.00  0.00    -0.283 OA
BRANCH   3   4
ATOM      4  P   LIG    1       31.357 -18.742   8.796  0.00  0.00    +0.475 P 
ATOM      5  O   LIG    1       31.984 -18.594   7.456  0.00  0.00    -0.227 OA
BRANCH   4   6
ATOM      6  O   LIG    1       30.273 -17.572   8.808  0.00  0.00    -0.302 OA
ATOM      7  H   LIG    1       30.721 -16.959   9.427  0.00  0.00    +0.222 HD
ENDBRANCH   4   6
BRANCH   4   8
ATOM      8  O   LIG    1       32.316 -18.396  10.063  0.00  0.00    -0.284 OA
BRANCH   8   9
ATOM      9  C   LIG    1       32.464 -17.029  10.441  0.00  0.00    +0.205 C 
BRANCH   9  10
ATOM     10  C   LIG    1       31.795 -16.717  11.785  0.00  0.00    +0.166 C 
BRANCH  10  11
ATOM     11  O   LIG    1       30.484 -16.200  11.558  0.00  0.00    -0.387 OA
ATOM     12  H   LIG    1       29.937 -16.986  11.380  0.00  0.00    +0.210 HD
ENDBRANCH  10  11
BRANCH  10  13
ATOM     13  C   LIG    1       32.605 -15.859  12.769  0.00  0.00    +0.189 C 
BRANCH  13  14
ATOM     14  O   LIG    1       31.775 -15.212  13.726  0.00  0.00    -0.392 OA
ATOM     15  H   LIG    1       31.419 -14.416  13.294  0.00  0.00    +0.209 HD
ENDBRANCH  13  14
ENDBRANCH  10  13
ENDBRANCH   9  10
ENDBRANCH   8   9
ENDBRANCH   4   8
ENDBRANCH   3   4
ENDBRANCH   2   3
ENDBRANCH   1   2
BRANCH   1  16
ATOM     16  O   LIG    1       27.801 -22.008   7.688  0.00  0.00    -0.456 OA
BRANCH  16  17
ATOM     17  C   LIG    1       26.544 -22.143   8.314  0.00  0.00    +0.307 C 
ATOM     18  O   LIG    1       26.050 -21.363   9.196  0.00  0.00    -0.251 OA
BRANCH  17  19
ATOM     19  C   LIG    1       25.562 -23.207   7.824  0.00  0.00    +0.120 C 
BRANCH  19  20
ATOM     20  C   LIG    1       25.722 -23.526   6.362  0.00  0.00    +0.011 C 
BRANCH  20  21
ATOM     21  C   LIG    1       24.601 -24.466   5.919  0.00  0.00    +0.000 C 
BRANCH  21  22
ATOM     22  C   LIG    1       24.973 -25.550   4.934  0.00  0.00    +0.000 C 
BRANCH  22  23
ATOM     23  C   LIG    1       26.139 -26.420   5.409  0.00  0.00    +0.000 C 
BRANCH  23  24
ATOM     24  C   LIG    1       25.767 -27.370   6.527  0.00  0.00    +0.004 C 
BRANCH  24  25
ATOM     25  C   LIG    1       24.347 -27.899   6.545  0.00  0.00    +0.027 C 
BRANCH  25  27
ATOM     26  C   LIG    1       24.489 -30.361   7.322  0.00  0.00    -0.031 C 
ATOM     27  C   LIG    1       24.327 -29.329   6.390  0.00  0.00    -0.031 C 
BRANCH  26  28
ATOM     28  C   LIG    1       23.903 -30.297   8.661  0.00  0.00    +0.027 C 
BRANCH  28  29
ATOM     29  C   LIG    1       24.757 -30.038   9.630  0.00  0.00    +0.004 C 
BRANCH  29  30
ATOM     30  C   LIG    1       26.198 -29.718   9.386  0.00  0.00    +0.000 C 
BRANCH  30  31
ATOM     31  C   LIG    1       26.665 -28.414  10.031  0.00  0.00    +0.000 C 
BRANCH  31  32
ATOM     32  C   LIG    1       27.429 -28.482  11.376  0.00  0.00    -0.000 C 
BRANCH  32  33
ATOM     33  C   LIG    1       26.999 -27.584  12.548  0.00  0.00    -0.000 C 
BRANCH  33  35
ATOM     34  C   LIG    1       24.694 -28.613  13.126  0.00  0.00    +0.004 C 
ATOM     35  C   LIG    1       25.548 -27.608  12.526  0.00  0.00    -0.003 C 
ENDBRANCH  33  35
ENDBRANCH  32  33
ENDBRANCH  31  32
ENDBRANCH  30  31
ENDBRANCH  29  30
ENDBRANCH  28  29
ENDBRANCH  26  28
ENDBRANCH  25  27
ENDBRANCH  24  25
ENDBRANCH  23  24
ENDBRANCH  22  23
ENDBRANCH  21  22
ENDBRANCH  20  21
ENDBRANCH  19  20
ENDBRANCH  17  19
ENDBRANCH  16  17
ENDBRANCH   1  16
BRANCH   1  36
ATOM     36  C   LIG    1       28.571 -19.403   6.367  0.00  0.00    +0.279 C 
BRANCH  36  37
ATOM     37  O   LIG    1       28.154 -19.578   5.015  0.00  0.00    -0.461 OA
BRANCH  37  38
ATOM     38  C   LIG    1       26.776 -19.556   4.803  0.00  0.00    +0.307 C 
ATOM     39  O   LIG    1       26.103 -20.249   5.464  0.00  0.00    -0.251 OA
BRANCH  38  40
ATOM     40  C   LIG    1       26.290 -18.733   3.502  0.00  0.00    +0.120 C 
BRANCH  40  41
ATOM     41  C   LIG    1       26.056 -17.164   3.428  0.00  0.00    +0.011 C 
BRANCH  41  42
ATOM     42  C   LIG    1       27.026 -16.013   3.586  0.00  0.00    +0.000 C 
BRANCH  42  43
ATOM     43  C   LIG    1       26.472 -14.587   3.175  0.00  0.00    +0.000 C 
BRANCH  43  44
ATOM     44  C   LIG    1       25.978 -13.780   4.401  0.00  0.00    -0.000 C 
BRANCH  44  45
ATOM     45  C   LIG    1       24.414 -13.738   4.632  0.00  0.00    -0.000 C 
BRANCH  45  46
ATOM     46  C   LIG    1       23.438 -14.896   4.048  0.00  0.00    -0.000 C 
BRANCH  46  47
ATOM     47  C   LIG    1       22.413 -15.724   5.025  0.00  0.00    -0.000 C 
BRANCH  47  48
ATOM     48  C   LIG    1       22.467 -17.348   5.076  0.00  0.00    -0.000 C 
BRANCH  48  49
ATOM     49  C   LIG    1       22.027 -18.407   3.964  0.00  0.00    -0.000 C 
BRANCH  49  50
ATOM     50  C   LIG    1       23.041 -19.399   3.419  0.00  0.00    -0.000 C 
BRANCH  50  51
ATOM     51  C   LIG    1       23.237 -20.728   4.156  0.00  0.00    -0.000 C 
BRANCH  51  52
ATOM     52  C   LIG    1       22.128 -21.226   5.097  0.00  0.00    -0.000 C 
BRANCH  52  53
ATOM     53  C   LIG    1       22.724 -21.504   6.541  0.00  0.00    -0.003 C 
ATOM     54  C   LIG    1       23.387 -20.332   7.341  0.00  0.00    +0.004 C 
ENDBRANCH  52  53
ENDBRANCH  51  52
ENDBRANCH  50  51
ENDBRANCH  49  50
ENDBRANCH  48  49
ENDBRANCH  47  48
ENDBRANCH  46  47
ENDBRANCH  45  46
ENDBRANCH  44  45
ENDBRANCH  43  44
ENDBRANCH  42  43
ENDBRANCH  41  42
ENDBRANCH  40  41
ENDBRANCH  38  40
ENDBRANCH  37  38
ENDBRANCH  36  37
ENDBRANCH   1  36
TORSDOF 44
ENDMDL
MODEL 2
REMARK VINA RESULT:      -6.5      6.099     11.084
REMARK  Name = *****
REMARK                            x       y       z     vdW  Elec       q    Type
REMARK                         _______ _______ _______ _____ _____    ______ ____
ROOT
ATOM      1  C   LIG    1       25.340 -29.802   8.521  0.00  0.00    +0.240 C 
ENDROOT
BRANCH   1   2
ATOM      2  C   LIG    1       25.850 -31.251   8.157  0.00  0.00    +0.220 C 
BRANCH   2   3
ATOM      3  O   LIG    1       24.714 -32.035   7.813  0.00  0.00    -0.283 OA
BRANCH   3   4
ATOM      4  P   LIG    1       24.065 -32.593   6.486  0.00  0.00    +0.475 P 
ATOM      5  O   LIG    1       22.845 -33.430   6.631  0.00  0.00    -0.227 OA
BRANCH   4   6
ATOM      6  O   LIG    1       23.516 -31.300   5.730  0.00  0.00    -0.302 OA
ATOM      7  H   LIG    1       22.629 -31.637   5.482  0.00  0.00    +0.222 HD
ENDBRANCH   4   6
BRANCH   4   8
ATOM      8  O   LIG    1       25.202 -33.176   5.481  0.00  0.00    -0.284 OA
BRANCH   8   9
ATOM      9  C   LIG    1       25.829 -32.271   4.574  0.00  0.00    +0.205 C 
BRANCH   9  10
ATOM     10  C   LIG    1       25.491 -32.580   3.110  0.00  0.00    +0.166 C 
BRANCH  10  11
ATOM     11  O   LIG    1       24.390 -33.487   3.056  0.00  0.00    -0.387 OA
ATOM     12  H   LIG    1       23.929 -33.366   3.906  0.00  0.00    +0.210 HD
ENDBRANCH  10  11
BRANCH  10  13
ATOM     13  C   LIG    1       26.662 -33.017   2.217  0.00  0.00    +0.189 C 
BRANCH  13  14
ATOM     14  O   LIG    1       26.314 -33.011   0.837  0.00  0.00    -0.392 OA
ATOM     15  H   LIG    1       26.903 -32.369   0.405  0.00  0.00    +0.209 HD
ENDBRANCH  13  14
ENDBRANCH  10  13
ENDBRANCH   9  10
ENDBRANCH   8   9
ENDBRANCH   4   8
ENDBRANCH   3   4
ENDBRANCH   2   3
ENDBRANCH   1   2
BRANCH   1  16
ATOM     16  O   LIG    1       24.548 -30.073   9.870  0.00  0.00    -0.456 OA
BRANCH  16  17
ATOM     17  C   LIG    1       25.157 -30.179  11.139  0.00  0.00    +0.307 C 
ATOM     18  O   LIG    1       25.817 -31.180  11.581  0.00  0.00    -0.251 OA
BRANCH  17  19
ATOM     19  C   LIG    1       25.208 -28.961  12.061  0.00  0.00    +0.120 C 
BRANCH  19  20
ATOM     20  C   LIG    1       26.144 -29.144  13.224  0.00  0.00    +0.011 C 
BRANCH  20  21
ATOM     21  C   LIG    1       27.301 -28.151  13.109  0.00  0.00    +0.000 C 
BRANCH  21  22
ATOM     22  C   LIG    1       27.720 -27.445  14.378  0.00  0.00    +0.000 C 
BRANCH  22  23
ATOM     23  C   LIG    1       27.303 -25.972  14.411  0.00  0.00    +0.000 C 
BRANCH  23  24
ATOM     24  C   LIG    1       26.412 -25.571  13.256  0.00  0.00    +0.004 C 
BRANCH  24  25
ATOM     25  C   LIG    1       25.012 -25.097  13.591  0.00  0.00    +0.027 C 
BRANCH  25  27
ATOM     26  C   LIG    1       23.048 -26.549  14.442  0.00  0.00    -0.031 C 
ATOM     27  C   LIG    1       24.347 -26.028  14.464  0.00  0.00    -0.031 C 
BRANCH  26  28
ATOM     28  C   LIG    1       22.389 -26.938  13.195  0.00  0.00    +0.027 C 
BRANCH  28  29
ATOM     29  C   LIG    1       21.095 -26.691  13.150  0.00  0.00    +0.004 C 
BRANCH  29  30
ATOM     30  C   LIG    1       20.222 -26.681  14.364  0.00  0.00    +0.000 C 
BRANCH  30  31
ATOM     31  C   LIG    1       18.818 -27.238  14.126  0.00  0.00    +0.000 C 
BRANCH  31  32
ATOM     32  C   LIG    1       17.613 -26.268  14.195  0.00  0.00    -0.000 C 
BRANCH  32  33
ATOM     33  C   LIG    1       16.180 -26.824  14.171  0.00  0.00    -0.000 C 
BRANCH  33  35
ATOM     34  C   LIG    1       15.986 -29.384  13.832  0.00  0.00    +0.004 C 
ATOM     35  C   LIG    1       16.305 -28.203  14.608  0.00  0.00    -0.003 C 
ENDBRANCH  33  35
ENDBRANCH  32  33
ENDBRANCH  31  32
ENDBRANCH  30  31
ENDBRANCH  29  30
ENDBRANCH  28  29
ENDBRANCH  26  28
ENDBRANCH  25  27
ENDBRANCH  24  25
ENDBRANCH  23  24
ENDBRANCH  22  23
ENDBRANCH  21  22
ENDBRANCH  20  21
ENDBRANCH  19  20
ENDBRANCH  17  19
ENDBRANCH  16  17
ENDBRANCH   1  16
BRANCH   1  36
ATOM     36  C   LIG    1       24.874 -28.619   7.242  0.00  0.00    +0.279 C 
BRANCH  36  37
ATOM     37  O   LIG    1       25.294 -28.614   5.880  0.00  0.00    -0.461 OA
BRANCH  37  38
ATOM     38  C   LIG    1       25.512 -27.355   5.322  0.00  0.00    +0.307 C 
ATOM     39  O   LIG    1       26.565 -27.126   4.864  0.00  0.00    -0.251 OA
BRANCH  38  40
ATOM     40  C   LIG    1       24.341 -26.274   5.579  0.00  0.00    +0.120 C 
BRANCH  40  41
ATOM     41  C   LIG    1       24.526 -24.839   6.234  0.00  0.00    +0.011 C 
BRANCH  41  42
ATOM     42  C   LIG    1       23.501 -23.819   6.681  0.00  0.00    +0.000 C 
BRANCH  42  43
ATOM     43  C   LIG    1       24.084 -22.514   7.363  0.00  0.00    +0.000 C 
BRANCH  43  44
ATOM     44  C   LIG    1       23.131 -21.302   7.208  0.00  0.00    -0.000 C 
BRANCH  44  45
ATOM     45  C   LIG    1       23.404 -20.346   5.978  0.00  0.00    -0.000 C 
BRANCH  45  46
ATOM     46  C   LIG    1       24.489 -20.725   4.832  0.00  0.00    -0.000 C 
BRANCH  46  47
ATOM     47  C   LIG    1       26.033 -20.174   4.900  0.00  0.00    -0.000 C 
BRANCH  47  48
ATOM     48  C   LIG    1       26.855 -20.219   6.302  0.00  0.00    -0.000 C 
BRANCH  48  49
ATOM     49  C   LIG    1       28.182 -21.029   6.667  0.00  0.00    -0.000 C 
BRANCH  49  50
ATOM     50  C   LIG    1       29.117 -20.508   7.746  0.00  0.00    -0.000 C 
BRANCH  50  51
ATOM     51  C   LIG    1       29.449 -19.012   7.769  0.00  0.00    -0.000 C 
BRANCH  51  52
ATOM     52  C   LIG    1       30.669 -18.535   8.572  0.00  0.00    -0.000 C 
BRANCH  52  53
ATOM     53  C   LIG    1       30.239 -17.394   9.589  0.00  0.00    -0.003 C 
ATOM     54  C   LIG    1       30.684 -17.490  11.088  0.00  0.00    +0.004 C 
ENDBRANCH  52  53
ENDBRANCH  51  52
ENDBRANCH  50  51
ENDBRANCH  49  50
ENDBRANCH  48  49
ENDBRANCH  47  48
ENDBRANCH  46  47
ENDBRANCH  45  46
ENDBRANCH  44  45
ENDBRANCH  43  44
ENDBRANCH  42  43
ENDBRANCH  41  42
ENDBRANCH  40  41
ENDBRANCH  38  40
ENDBRANCH  37  38
ENDBRANCH  36  37
ENDBRANCH   1  36
TORSDOF 44
ENDMDL
MODEL 3
REMARK VINA RESULT:      -6.5      5.956     10.888
REMARK  Name = *****
REMARK                            x       y       z     vdW  Elec       q    Type
REMARK                         _______ _______ _______ _____ _____    ______ ____
ROOT
ATOM      1  C   LIG    1       25.979 -29.693   8.968  0.00  0.00    +0.240 C 
ENDROOT
BRANCH   1   2
ATOM      2  C   LIG    1       25.202 -30.273  10.214  0.00  0.00    +0.220 C 
BRANCH   2   3
ATOM      3  O   LIG    1       24.999 -31.663   9.987  0.00  0.00    -0.283 OA
BRANCH   3   4
ATOM      4  P   LIG    1       23.947 -32.557   9.222  0.00  0.00    +0.475 P 
ATOM      5  O   LIG    1       23.071 -33.428  10.050  0.00  0.00    -0.227 OA
BRANCH   4   6
ATOM      6  O   LIG    1       22.913 -31.518   8.592  0.00  0.00    -0.302 OA
ATOM      7  H   LIG    1       22.707 -31.004   9.401  0.00  0.00    +0.222 HD
ENDBRANCH   4   6
BRANCH   4   8
ATOM      8  O   LIG    1       24.620 -33.270   7.925  0.00  0.00    -0.284 OA
BRANCH   8   9
ATOM      9  C   LIG    1       25.736 -32.630   7.309  0.00  0.00    +0.205 C 
BRANCH   9  10
ATOM     10  C   LIG    1       25.533 -32.420   5.803  0.00  0.00    +0.166 C 
BRANCH  10  11
ATOM     11  O   LIG    1       26.252 -31.262   5.381  0.00  0.00    -0.387 OA
ATOM     12  H   LIG    1       26.086 -31.205   4.422  0.00  0.00    +0.210 HD
ENDBRANCH  10  11
BRANCH  10  13
ATOM     13  C   LIG    1       24.081 -32.428   5.302  0.00  0.00    +0.189 C 
BRANCH  13  14
ATOM     14  O   LIG    1       23.359 -31.280   5.733  0.00  0.00    -0.392 OA
ATOM     15  H   LIG    1       23.188 -30.745   4.939  0.00  0.00    +0.209 HD
ENDBRANCH  13  14
ENDBRANCH  10  13
ENDBRANCH   9  10
ENDBRANCH   8   9
ENDBRANCH   4   8
ENDBRANCH   3   4
ENDBRANCH   2   3
ENDBRANCH   1   2
BRANCH   1  16
ATOM     16  O   LIG    1       27.352 -29.246   9.628  0.00  0.00    -0.456 OA
BRANCH  16  17
ATOM     17  C   LIG    1       27.530 -29.013  11.008  0.00  0.00    +0.307 C 
ATOM     18  O   LIG    1       28.261 -29.694  11.803  0.00  0.00    -0.251 OA
BRANCH  17  19
ATOM     19  C   LIG    1       26.951 -27.750  11.645  0.00  0.00    +0.120 C 
BRANCH  19  20
ATOM     20  C   LIG    1       26.337 -28.001  12.995  0.00  0.00    +0.011 C 
BRANCH  20  21
ATOM     21  C   LIG    1       26.677 -26.843  13.934  0.00  0.00    +0.000 C 
BRANCH  21  22
ATOM     22  C   LIG    1       26.264 -25.461  13.486  0.00  0.00    +0.000 C 
BRANCH  22  23
ATOM     23  C   LIG    1       24.761 -25.206  13.629  0.00  0.00    +0.000 C 
BRANCH  23  24
ATOM     24  C   LIG    1       24.176 -25.755  14.912  0.00  0.00    +0.004 C 
BRANCH  24  25
ATOM     25  C   LIG    1       22.782 -26.345  14.843  0.00  0.00    +0.027 C 
BRANCH  25  27
ATOM     26  C   LIG    1       21.375 -27.364  12.928  0.00  0.00    -0.031 C 
ATOM     27  C   LIG    1       22.558 -26.991  13.577  0.00  0.00    -0.031 C 
BRANCH  26  28
ATOM     28  C   LIG    1       20.186 -26.511  12.931  0.00  0.00    +0.027 C 
BRANCH  28  29
ATOM     29  C   LIG    1       19.403 -26.653  13.982  0.00  0.00    +0.004 C 
BRANCH  29  30
ATOM     30  C   LIG    1       18.028 -26.069  14.061  0.00  0.00    +0.000 C 
BRANCH  30  31
ATOM     31  C   LIG    1       17.034 -26.921  14.850  0.00  0.00    +0.000 C 
BRANCH  31  32
ATOM     32  C   LIG    1       16.275 -28.051  14.113  0.00  0.00    -0.000 C 
BRANCH  32  33
ATOM     33  C   LIG    1       16.371 -29.498  14.622  0.00  0.00    -0.000 C 
BRANCH  33  35
ATOM     34  C   LIG    1       18.773 -30.178  13.932  0.00  0.00    +0.004 C 
ATOM     35  C   LIG    1       17.337 -30.140  13.748  0.00  0.00    -0.003 C 
ENDBRANCH  33  35
ENDBRANCH  32  33
ENDBRANCH  31  32
ENDBRANCH  30  31
ENDBRANCH  29  30
ENDBRANCH  28  29
ENDBRANCH  26  28
ENDBRANCH  25  27
ENDBRANCH  24  25
ENDBRANCH  23  24
ENDBRANCH  22  23
ENDBRANCH  21  22
ENDBRANCH  20  21
ENDBRANCH  19  20
ENDBRANCH  17  19
ENDBRANCH  16  17
ENDBRANCH   1  16
BRANCH   1  36
ATOM     36  C   LIG    1       25.117 -28.833   7.638  0.00  0.00    +0.279 C 
BRANCH  36  37
ATOM     37  O   LIG    1       25.619 -27.768   6.834  0.00  0.00    -0.461 OA
BRANCH  37  38
ATOM     38  C   LIG    1       25.183 -27.756   5.510  0.00  0.00    +0.307 C 
ATOM     39  O   LIG    1       24.801 -28.759   5.043  0.00  0.00    -0.251 OA
BRANCH  38  40
ATOM     40  C   LIG    1       25.471 -26.389   4.701  0.00  0.00    +0.120 C 
BRANCH  40  41
ATOM     41  C   LIG    1       25.186 -24.919   5.227  0.00  0.00    +0.011 C 
BRANCH  41  42
ATOM     42  C   LIG    1       24.814 -24.419   6.607  0.00  0.00    +0.000 C 
BRANCH  42  43
ATOM     43  C   LIG    1       23.290 -24.040   6.812  0.00  0.00    +0.000 C 
BRANCH  43  44
ATOM     44  C   LIG    1       22.976 -22.607   6.315  0.00  0.00    -0.000 C 
BRANCH  44  45
ATOM     45  C   LIG    1       23.368 -21.424   7.287  0.00  0.00    -0.000 C 
BRANCH  45  46
ATOM     46  C   LIG    1       24.819 -20.702   7.205  0.00  0.00    -0.000 C 
BRANCH  46  47
ATOM     47  C   LIG    1       26.034 -21.102   8.233  0.00  0.00    -0.000 C 
BRANCH  47  48
ATOM     48  C   LIG    1       27.421 -21.722   7.655  0.00  0.00    -0.000 C 
BRANCH  48  49
ATOM     49  C   LIG    1       28.891 -21.098   7.675  0.00  0.00    -0.000 C 
BRANCH  49  50
ATOM     50  C   LIG    1       29.075 -19.589   7.657  0.00  0.00    -0.000 C 
BRANCH  50  51
ATOM     51  C   LIG    1       30.231 -18.982   8.458  0.00  0.00    -0.000 C 
BRANCH  51  52
ATOM     52  C   LIG    1       30.012 -17.642   9.178  0.00  0.00    -0.000 C 
BRANCH  52  53
ATOM     53  C   LIG    1       30.623 -17.704  10.642  0.00  0.00    -0.003 C 
ATOM     54  C   LIG    1       32.074 -17.171  10.894  0.00  0.00    +0.004 C 
ENDBRANCH  52  53
ENDBRANCH  51  52
ENDBRANCH  50  51
ENDBRANCH  49  50
ENDBRANCH  48  49
ENDBRANCH  47  48
ENDBRANCH  46  47
ENDBRANCH  45  46
ENDBRANCH  44  45
ENDBRANCH  43  44
ENDBRANCH  42  43
ENDBRANCH  41  42
ENDBRANCH  40  41
ENDBRANCH  38  40
ENDBRANCH  37  38
ENDBRANCH  36  37
ENDBRANCH   1  36
TORSDOF 44
ENDMDL
MODEL 4
REMARK VINA RESULT:      -6.5      5.300     12.299
REMARK  Name = *****
REMARK                            x       y       z     vdW  Elec       q    Type
REMARK                         _______ _______ _______ _____ _____    ______ ____
ROOT
ATOM      1  C   LIG    1       25.048 -29.640   6.078  0.00  0.00    +0.240 C 
ENDROOT
BRANCH   1   2
ATOM      2  C   LIG    1       25.086 -28.883   7.463  0.00  0.00    +0.220 C 
BRANCH   2   3
ATOM      3  O   LIG    1       25.300 -29.854   8.480  0.00  0.00    -0.283 OA
BRANCH   3   4
ATOM      4  P   LIG    1       26.311 -30.058   9.676  0.00  0.00    +0.475 P 
ATOM      5  O   LIG    1       27.069 -31.337   9.710  0.00  0.00    -0.227 OA
BRANCH   4   6
ATOM      6  O   LIG    1       27.457 -28.977   9.426  0.00  0.00    -0.302 OA
ATOM      7  H   LIG    1       27.251 -28.754   8.493  0.00  0.00    +0.222 HD
ENDBRANCH   4   6
BRANCH   4   8
ATOM      8  O   LIG    1       25.645 -29.598  11.086  0.00  0.00    -0.284 OA
BRANCH   8   9
ATOM      9  C   LIG    1       26.036 -30.288  12.272  0.00  0.00    +0.205 C 
BRANCH   9  10
ATOM     10  C   LIG    1       27.055 -29.496  13.101  0.00  0.00    +0.166 C 
BRANCH  10  11
ATOM     11  O   LIG    1       27.108 -30.026  14.425  0.00  0.00    -0.387 OA
ATOM     12  H   LIG    1       26.191 -29.969  14.751  0.00  0.00    +0.210 HD
ENDBRANCH  10  11
BRANCH  10  13
ATOM     13  C   LIG    1       26.909 -27.967  13.083  0.00  0.00    +0.189 C 
BRANCH  13  14
ATOM     14  O   LIG    1       27.525 -27.383  11.941  0.00  0.00    -0.392 OA
ATOM     15  H   LIG    1       28.333 -27.897  11.767  0.00  0.00    +0.209 HD
ENDBRANCH  13  14
ENDBRANCH  10  13
ENDBRANCH   9  10
ENDBRANCH   8   9
ENDBRANCH   4   8
ENDBRANCH   3   4
ENDBRANCH   2   3
ENDBRANCH   1   2
BRANCH   1  16
ATOM     16  O   LIG    1       24.868 -28.436   5.060  0.00  0.00    -0.456 OA
BRANCH  16  17
ATOM     17  C   LIG    1       25.449 -27.161   5.228  0.00  0.00    +0.307 C 
ATOM     18  O   LIG    1       26.651 -26.833   4.946  0.00  0.00    -0.251 OA
BRANCH  17  19
ATOM     19  C   LIG    1       24.573 -25.975   5.630  0.00  0.00    +0.120 C 
BRANCH  19  20
ATOM     20  C   LIG    1       25.325 -24.672   5.661  0.00  0.00    +0.011 C 
BRANCH  20  21
ATOM     21  C   LIG    1       24.838 -23.830   6.840  0.00  0.00    +0.000 C 
BRANCH  21  22
ATOM     22  C   LIG    1       23.484 -23.176   6.695  0.00  0.00    +0.000 C 
BRANCH  22  23
ATOM     23  C   LIG    1       23.341 -21.899   7.527  0.00  0.00    +0.000 C 
BRANCH  23  24
ATOM     24  C   LIG    1       22.986 -20.680   6.703  0.00  0.00    +0.004 C 
BRANCH  24  25
ATOM     25  C   LIG    1       22.439 -20.918   5.310  0.00  0.00    +0.027 C 
BRANCH  25  27
ATOM     26  C   LIG    1       23.758 -19.070   4.072  0.00  0.00    -0.031 C 
ATOM     27  C   LIG    1       22.607 -19.752   4.484  0.00  0.00    -0.031 C 
BRANCH  26  28
ATOM     28  C   LIG    1       24.976 -19.775   3.673  0.00  0.00    +0.027 C 
BRANCH  28  29
ATOM     29  C   LIG    1       26.082 -19.340   4.242  0.00  0.00    +0.004 C 
BRANCH  29  30
ATOM     30  C   LIG    1       26.928 -20.188   5.139  0.00  0.00    +0.000 C 
BRANCH  30  31
ATOM     31  C   LIG    1       26.344 -20.392   6.536  0.00  0.00    +0.000 C 
BRANCH  31  32
ATOM     32  C   LIG    1       27.314 -20.645   7.717  0.00  0.00    -0.000 C 
BRANCH  32  33
ATOM     33  C   LIG    1       28.778 -21.024   7.439  0.00  0.00    -0.000 C 
BRANCH  33  35
ATOM     34  C   LIG    1       30.406 -19.193   6.600  0.00  0.00    +0.004 C 
ATOM     35  C   LIG    1       29.520 -19.784   7.581  0.00  0.00    -0.003 C 
ENDBRANCH  33  35
ENDBRANCH  32  33
ENDBRANCH  31  32
ENDBRANCH  30  31
ENDBRANCH  29  30
ENDBRANCH  28  29
ENDBRANCH  26  28
ENDBRANCH  25  27
ENDBRANCH  24  25
ENDBRANCH  23  24
ENDBRANCH  22  23
ENDBRANCH  21  22
ENDBRANCH  20  21
ENDBRANCH  19  20
ENDBRANCH  17  19
ENDBRANCH  16  17
ENDBRANCH   1  16
BRANCH   1  36
ATOM     36  C   LIG    1       24.306 -31.277   5.920  0.00  0.00    +0.279 C 
BRANCH  36  37
ATOM     37  O   LIG    1       23.287 -31.842   6.741  0.00  0.00    -0.461 OA
BRANCH  37  38
ATOM     38  C   LIG    1       23.736 -32.628   7.802  0.00  0.00    +0.307 C 
ATOM     39  O   LIG    1       24.697 -33.277   7.643  0.00  0.00    -0.251 OA
BRANCH  38  40
ATOM     40  C   LIG    1       22.734 -32.720   9.065  0.00  0.00    +0.120 C 
BRANCH  40  41
ATOM     41  C   LIG    1       22.781 -31.801  10.358  0.00  0.00    +0.011 C 
BRANCH  41  42
ATOM     42  C   LIG    1       22.144 -30.456  10.638  0.00  0.00    +0.000 C 
BRANCH  42  43
ATOM     43  C   LIG    1       20.585 -30.482  10.917  0.00  0.00    +0.000 C 
BRANCH  43  44
ATOM     44  C   LIG    1       20.262 -30.320  12.424  0.00  0.00    -0.000 C 
BRANCH  44  45
ATOM     45  C   LIG    1       19.128 -31.257  13.004  0.00  0.00    -0.000 C 
BRANCH  45  46
ATOM     46  C   LIG    1       17.559 -30.986  12.690  0.00  0.00    -0.000 C 
BRANCH  46  47
ATOM     47  C   LIG    1       16.644 -30.031  13.661  0.00  0.00    -0.000 C 
BRANCH  47  48
ATOM     48  C   LIG    1       17.324 -28.789  14.460  0.00  0.00    -0.000 C 
BRANCH  48  49
ATOM     49  C   LIG    1       17.024 -27.226  14.338  0.00  0.00    -0.000 C 
BRANCH  49  50
ATOM     50  C   LIG    1       18.135 -26.268  13.942  0.00  0.00    -0.000 C 
BRANCH  50  51
ATOM     51  C   LIG    1       19.574 -26.605  14.346  0.00  0.00    -0.000 C 
BRANCH  51  52
ATOM     52  C   LIG    1       20.649 -26.704  13.252  0.00  0.00    -0.000 C 
BRANCH  52  53
ATOM     53  C   LIG    1       21.999 -27.270  13.866  0.00  0.00    -0.003 C 
ATOM     54  C   LIG    1       23.129 -27.776  12.907  0.00  0.00    +0.004 C 
ENDBRANCH  52  53
ENDBRANCH  51  52
ENDBRANCH  50  51
ENDBRANCH  49  50
ENDBRANCH  48  49
ENDBRANCH  47  48
ENDBRANCH  46  47
ENDBRANCH  45  46
ENDBRANCH  44  45
ENDBRANCH  43  44
ENDBRANCH  42  43
ENDBRANCH  41  42
ENDBRANCH  40  41
ENDBRANCH  38  40
ENDBRANCH  37  38
ENDBRANCH  36  37
ENDBRANCH   1  36
TORSDOF 44
ENDMDL
MODEL 5
REMARK VINA RESULT:      -6.5      1.596     10.299
REMARK  Name = *****
REMARK                            x       y       z     vdW  Elec       q    Type
REMARK                         _______ _______ _______ _____ _____    ______ ____
ROOT
ATOM      1  C   LIG    1       27.402 -21.484   6.657  0.00  0.00    +0.240 C 
ENDROOT
BRANCH   1   2
ATOM      2  C   LIG    1       28.846 -20.855   6.552  0.00  0.00    +0.220 C 
BRANCH   2   3
ATOM      3  O   LIG    1       29.387 -20.796   7.866  0.00  0.00    -0.283 OA
BRANCH   3   4
ATOM      4  P   LIG    1       30.782 -20.445   8.517  0.00  0.00    +0.475 P 
ATOM      5  O   LIG    1       31.726 -21.572   8.743  0.00  0.00    -0.227 OA
BRANCH   4   6
ATOM      6  O   LIG    1       31.535 -19.572   7.413  0.00  0.00    -0.302 OA
ATOM      7  H   LIG    1       30.778 -19.027   7.112  0.00  0.00    +0.222 HD
ENDBRANCH   4   6
BRANCH   4   8
ATOM      8  O   LIG    1       30.602 -19.419   9.766  0.00  0.00    -0.284 OA
BRANCH   8   9
ATOM      9  C   LIG    1       30.304 -18.054   9.478  0.00  0.00    +0.205 C 
BRANCH   9  10
ATOM     10  C   LIG    1       31.127 -17.083  10.333  0.00  0.00    +0.166 C 
BRANCH  10  11
ATOM     11  O   LIG    1       30.256 -16.342  11.187  0.00  0.00    -0.387 OA
ATOM     12  H   LIG    1       30.789 -15.581  11.482  0.00  0.00    +0.210 HD
ENDBRANCH  10  11
BRANCH  10  13
ATOM     13  C   LIG    1       32.121 -16.184   9.581  0.00  0.00    +0.189 C 
BRANCH  13  14
ATOM     14  O   LIG    1       32.560 -16.774   8.363  0.00  0.00    -0.392 OA
ATOM     15  H   LIG    1       32.913 -16.051   7.815  0.00  0.00    +0.209 HD
ENDBRANCH  13  14
ENDBRANCH  10  13
ENDBRANCH   9  10
ENDBRANCH   8   9
ENDBRANCH   4   8
ENDBRANCH   3   4
ENDBRANCH   2   3
ENDBRANCH   1   2
BRANCH   1  16
ATOM     16  O   LIG    1       26.602 -20.327   7.394  0.00  0.00    -0.456 OA
BRANCH  16  17
ATOM     17  C   LIG    1       25.607 -20.549   8.369  0.00  0.00    +0.307 C 
ATOM     18  O   LIG    1       25.703 -20.304   9.619  0.00  0.00    -0.251 OA
BRANCH  17  19
ATOM     19  C   LIG    1       24.201 -20.968   7.938  0.00  0.00    +0.120 C 
BRANCH  19  20
ATOM     20  C   LIG    1       23.746 -20.287   6.676  0.00  0.00    +0.011 C 
BRANCH  20  21
ATOM     21  C   LIG    1       23.655 -21.313   5.547  0.00  0.00    +0.000 C 
BRANCH  21  22
ATOM     22  C   LIG    1       24.721 -21.245   4.479  0.00  0.00    +0.000 C 
BRANCH  22  23
ATOM     23  C   LIG    1       24.680 -19.945   3.669  0.00  0.00    +0.000 C 
BRANCH  23  24
ATOM     24  C   LIG    1       25.854 -19.030   3.938  0.00  0.00    +0.004 C 
BRANCH  24  25
ATOM     25  C   LIG    1       25.753 -17.604   3.435  0.00  0.00    +0.027 C 
BRANCH  25  27
ATOM     26  C   LIG    1       27.329 -15.557   3.542  0.00  0.00    -0.031 C 
ATOM     27  C   LIG    1       27.012 -16.920   3.572  0.00  0.00    -0.031 C 
BRANCH  26  28
ATOM     28  C   LIG    1       26.483 -14.548   4.179  0.00  0.00    +0.027 C 
BRANCH  28  29
ATOM     29  C   LIG    1       25.804 -13.785   3.346  0.00  0.00    +0.004 C 
BRANCH  29  30
ATOM     30  C   LIG    1       24.326 -13.581   3.444  0.00  0.00    +0.000 C 
BRANCH  30  31
ATOM     31  C   LIG    1       23.645 -14.451   4.500  0.00  0.00    +0.000 C 
BRANCH  31  32
ATOM     32  C   LIG    1       22.792 -15.656   4.033  0.00  0.00    -0.000 C 
BRANCH  32  33
ATOM     33  C   LIG    1       22.166 -16.601   5.072  0.00  0.00    -0.000 C 
BRANCH  33  35
ATOM     34  C   LIG    1       21.162 -18.728   3.988  0.00  0.00    +0.004 C 
ATOM     35  C   LIG    1       22.261 -17.924   4.482  0.00  0.00    -0.003 C 
ENDBRANCH  33  35
ENDBRANCH  32  33
ENDBRANCH  31  32
ENDBRANCH  30  31
ENDBRANCH  29  30
ENDBRANCH  28  29
ENDBRANCH  26  28
ENDBRANCH  25  27
ENDBRANCH  24  25
ENDBRANCH  23  24
ENDBRANCH  22  23
ENDBRANCH  21  22
ENDBRANCH  20  21
ENDBRANCH  19  20
ENDBRANCH  17  19
ENDBRANCH  16  17
ENDBRANCH   1  16
BRANCH   1  36
ATOM     36  C   LIG    1       27.162 -23.255   6.901  0.00  0.00    +0.279 C 
BRANCH  36  37
ATOM     37  O   LIG    1       25.922 -23.955   6.963  0.00  0.00    -0.461 OA
BRANCH  37  38
ATOM     38  C   LIG    1       25.903 -25.202   6.339  0.00  0.00    +0.307 C 
ATOM     39  O   LIG    1       26.889 -25.589   5.843  0.00  0.00    -0.251 OA
BRANCH  38  40
ATOM     40  C   LIG    1       24.442 -25.872   6.182  0.00  0.00    +0.120 C 
BRANCH  40  41
ATOM     41  C   LIG    1       24.143 -27.423   6.015  0.00  0.00    +0.011 C 
BRANCH  41  42
ATOM     42  C   LIG    1       24.793 -28.463   5.128  0.00  0.00    +0.000 C 
BRANCH  42  43
ATOM     43  C   LIG    1       25.257 -29.791   5.854  0.00  0.00    +0.000 C 
BRANCH  43  44
ATOM     44  C   LIG    1       24.264 -30.225   6.962  0.00  0.00    -0.000 C 
BRANCH  44  45
ATOM     45  C   LIG    1       24.686 -29.900   8.451  0.00  0.00    -0.000 C 
BRANCH  45  46
ATOM     46  C   LIG    1       25.943 -28.929   8.784  0.00  0.00    -0.000 C 
BRANCH  46  47
ATOM     47  C   LIG    1       26.742 -29.022  10.214  0.00  0.00    -0.000 C 
BRANCH  47  48
ATOM     48  C   LIG    1       26.258 -30.078  11.352  0.00  0.00    -0.000 C 
BRANCH  48  49
ATOM     49  C   LIG    1       24.956 -30.040  12.275  0.00  0.00    -0.000 C 
BRANCH  49  50
ATOM     50  C   LIG    1       23.634 -29.556  11.703  0.00  0.00    -0.000 C 
BRANCH  50  51
ATOM     51  C   LIG    1       22.687 -28.766  12.611  0.00  0.00    -0.000 C 
BRANCH  51  52
ATOM     52  C   LIG    1       23.279 -27.948  13.771  0.00  0.00    -0.000 C 
BRANCH  52  53
ATOM     53  C   LIG    1       23.245 -26.401  13.419  0.00  0.00    -0.003 C 
ATOM     54  C   LIG    1       24.440 -25.486  13.852  0.00  0.00    +0.004 C 
ENDBRANCH  52  53
ENDBRANCH  51  52
ENDBRANCH  50  51
ENDBRANCH  49  50
ENDBRANCH  48  49
ENDBRANCH  47  48
ENDBRANCH  46  47
ENDBRANCH  45  46
ENDBRANCH  44  45
ENDBRANCH  43  44
ENDBRANCH  42  43
ENDBRANCH  41  42
ENDBRANCH  40  41
ENDBRANCH  38  40
ENDBRANCH  37  38
ENDBRANCH  36  37
ENDBRANCH   1  36
TORSDOF 44
ENDMDL
MODEL 6
REMARK VINA RESULT:      -6.4      5.473     10.378
REMARK  Name = *****
REMARK                            x       y       z     vdW  Elec       q    Type
REMARK                         _______ _______ _______ _____ _____    ______ ____
ROOT
ATOM      1  C   LIG    1       24.406 -29.660   6.741  0.00  0.00    +0.240 C 
ENDROOT
BRANCH   1   2
ATOM      2  C   LIG    1       24.122 -30.965   5.901  0.00  0.00    +0.220 C 
BRANCH   2   3
ATOM      3  O   LIG    1       25.378 -31.504   5.503  0.00  0.00    -0.283 OA
BRANCH   3   4
ATOM      4  P   LIG    1       26.208 -32.814   5.800  0.00  0.00    +0.475 P 
ATOM      5  O   LIG    1       26.782 -33.529   4.630  0.00  0.00    -0.227 OA
BRANCH   4   6
ATOM      6  O   LIG    1       27.508 -32.303   6.572  0.00  0.00    -0.302 OA
ATOM      7  H   LIG    1       28.031 -32.003   5.799  0.00  0.00    +0.222 HD
ENDBRANCH   4   6
BRANCH   4   8
ATOM      8  O   LIG    1       25.451 -33.750   6.892  0.00  0.00    -0.284 OA
BRANCH   8   9
ATOM      9  C   LIG    1       25.643 -33.461   8.276  0.00  0.00    +0.205 C 
BRANCH   9  10
ATOM     10  C   LIG    1       24.408 -33.796   9.121  0.00  0.00    +0.166 C 
BRANCH  10  11
ATOM     11  O   LIG    1       23.304 -33.001   8.690  0.00  0.00    -0.387 OA
ATOM     12  H   LIG    1       22.909 -32.660   9.513  0.00  0.00    +0.210 HD
ENDBRANCH  10  11
BRANCH  10  13
ATOM     13  C   LIG    1       24.596 -33.767  10.646  0.00  0.00    +0.189 C 
BRANCH  13  14
ATOM     14  O   LIG    1       25.743 -33.018  11.031  0.00  0.00    -0.392 OA
ATOM     15  H   LIG    1       26.321 -32.973  10.250  0.00  0.00    +0.209 HD
ENDBRANCH  13  14
ENDBRANCH  10  13
ENDBRANCH   9  10
ENDBRANCH   8   9
ENDBRANCH   4   8
ENDBRANCH   3   4
ENDBRANCH   2   3
ENDBRANCH   1   2
BRANCH   1  16
ATOM     16  O   LIG    1       23.786 -30.046   8.151  0.00  0.00    -0.456 OA
BRANCH  16  17
ATOM     17  C   LIG    1       24.517 -30.077   9.357  0.00  0.00    +0.307 C 
ATOM     18  O   LIG    1       24.068 -30.404  10.507  0.00  0.00    -0.251 OA
BRANCH  17  19
ATOM     19  C   LIG    1       26.032 -29.869   9.332  0.00  0.00    +0.120 C 
BRANCH  19  20
ATOM     20  C   LIG    1       26.430 -28.430   9.520  0.00  0.00    +0.011 C 
BRANCH  20  21
ATOM     21  C   LIG    1       27.068 -28.253  10.898  0.00  0.00    +0.000 C 
BRANCH  21  22
ATOM     22  C   LIG    1       26.125 -28.130  12.073  0.00  0.00    +0.000 C 
BRANCH  22  23
ATOM     23  C   LIG    1       26.210 -29.315  13.039  0.00  0.00    +0.000 C 
BRANCH  23  24
ATOM     24  C   LIG    1       26.652 -28.925  14.432  0.00  0.00    +0.004 C 
BRANCH  24  25
ATOM     25  C   LIG    1       27.980 -28.207  14.565  0.00  0.00    +0.027 C 
BRANCH  25  27
ATOM     26  C   LIG    1       27.784 -25.650  14.892  0.00  0.00    -0.031 C 
ATOM     27  C   LIG    1       27.833 -26.985  15.310  0.00  0.00    -0.031 C 
BRANCH  26  28
ATOM     28  C   LIG    1       27.061 -25.239  13.688  0.00  0.00    +0.027 C 
BRANCH  28  29
ATOM     29  C   LIG    1       25.860 -24.742  13.903  0.00  0.00    +0.004 C 
BRANCH  29  30
ATOM     30  C   LIG    1       24.970 -25.206  15.013  0.00  0.00    +0.000 C 
BRANCH  30  31
ATOM     31  C   LIG    1       24.044 -26.360  14.628  0.00  0.00    +0.000 C 
BRANCH  31  32
ATOM     32  C   LIG    1       23.134 -26.199  13.386  0.00  0.00    -0.000 C 
BRANCH  32  33
ATOM     33  C   LIG    1       21.775 -26.917  13.334  0.00  0.00    -0.000 C 
BRANCH  33  35
ATOM     34  C   LIG    1       21.257 -29.195  12.216  0.00  0.00    +0.004 C 
ATOM     35  C   LIG    1       22.089 -28.291  12.984  0.00  0.00    -0.003 C 
ENDBRANCH  33  35
ENDBRANCH  32  33
ENDBRANCH  31  32
ENDBRANCH  30  31
ENDBRANCH  29  30
ENDBRANCH  28  29
ENDBRANCH  26  28
ENDBRANCH  25  27
ENDBRANCH  24  25
ENDBRANCH  23  24
ENDBRANCH  22  23
ENDBRANCH  21  22
ENDBRANCH  20  21
ENDBRANCH  19  20
ENDBRANCH  17  19
ENDBRANCH  16  17
ENDBRANCH   1  16
BRANCH   1  36
ATOM     36  C   LIG    1       24.366 -28.024   5.982  0.00  0.00    +0.279 C 
BRANCH  36  37
ATOM     37  O   LIG    1       25.291 -27.491   5.037  0.00  0.00    -0.461 OA
BRANCH  37  38
ATOM     38  C   LIG    1       26.194 -26.555   5.541  0.00  0.00    +0.307 C 
ATOM     39  O   LIG    1       27.330 -26.692   5.294  0.00  0.00    -0.251 OA
BRANCH  38  40
ATOM     40  C   LIG    1       25.580 -25.507   6.605  0.00  0.00    +0.120 C 
BRANCH  40  41
ATOM     41  C   LIG    1       24.560 -24.336   6.275  0.00  0.00    +0.011 C 
BRANCH  41  42
ATOM     42  C   LIG    1       24.801 -22.929   5.772  0.00  0.00    +0.000 C 
BRANCH  42  43
ATOM     43  C   LIG    1       23.572 -21.937   5.893  0.00  0.00    +0.000 C 
BRANCH  43  44
ATOM     44  C   LIG    1       23.873 -20.752   6.845  0.00  0.00    -0.000 C 
BRANCH  44  45
ATOM     45  C   LIG    1       24.695 -21.092   8.152  0.00  0.00    -0.000 C 
BRANCH  45  46
ATOM     46  C   LIG    1       26.197 -20.522   8.382  0.00  0.00    -0.000 C 
BRANCH  46  47
ATOM     47  C   LIG    1       27.519 -21.429   8.036  0.00  0.00    -0.000 C 
BRANCH  47  48
ATOM     48  C   LIG    1       28.430 -21.081   6.735  0.00  0.00    -0.000 C 
BRANCH  48  49
ATOM     49  C   LIG    1       28.540 -19.714   5.917  0.00  0.00    -0.000 C 
BRANCH  49  50
ATOM     50  C   LIG    1       29.580 -18.677   6.307  0.00  0.00    -0.000 C 
BRANCH  50  51
ATOM     51  C   LIG    1       30.830 -19.141   7.063  0.00  0.00    -0.000 C 
BRANCH  51  52
ATOM     52  C   LIG    1       30.816 -19.127   8.600  0.00  0.00    -0.000 C 
BRANCH  52  53
ATOM     53  C   LIG    1       30.217 -17.754   9.127  0.00  0.00    -0.003 C 
ATOM     54  C   LIG    1       30.342 -17.392  10.645  0.00  0.00    +0.004 C 
ENDBRANCH  52  53
ENDBRANCH  51  52
ENDBRANCH  50  51
ENDBRANCH  49  50
ENDBRANCH  48  49
ENDBRANCH  47  48
ENDBRANCH  46  47
ENDBRANCH  45  46
ENDBRANCH  44  45
ENDBRANCH  43  44
ENDBRANCH  42  43
ENDBRANCH  41  42
ENDBRANCH  40  41
ENDBRANCH  38  40
ENDBRANCH  37  38
ENDBRANCH  36  37
ENDBRANCH   1  36
TORSDOF 44
ENDMDL
MODEL 7
REMARK VINA RESULT:      -6.3      1.679     10.223
REMARK  Name = *****
REMARK                            x       y       z     vdW  Elec       q    Type
REMARK                         _______ _______ _______ _____ _____    ______ ____
ROOT
ATOM      1  C   LIG    1       27.345 -21.346   6.661  0.00  0.00    +0.240 C 
ENDROOT
BRANCH   1   2
ATOM      2  C   LIG    1       28.778 -20.710   6.472  0.00  0.00    +0.220 C 
BRANCH   2   3
ATOM      3  O   LIG    1       29.201 -20.216   7.737  0.00  0.00    -0.283 OA
BRANCH   3   4
ATOM      4  P   LIG    1       30.512 -19.569   8.335  0.00  0.00    +0.475 P 
ATOM      5  O   LIG    1       30.904 -19.984   9.708  0.00  0.00    -0.227 OA
BRANCH   4   6
ATOM      6  O   LIG    1       31.696 -20.153   7.440  0.00  0.00    -0.302 OA
ATOM      7  H   LIG    1       31.569 -19.597   6.643  0.00  0.00    +0.222 HD
ENDBRANCH   4   6
BRANCH   4   8
ATOM      8  O   LIG    1       30.557 -17.970   8.045  0.00  0.00    -0.284 OA
BRANCH   8   9
ATOM      9  C   LIG    1       30.211 -17.083   9.107  0.00  0.00    +0.205 C 
BRANCH   9  10
ATOM     10  C   LIG    1       31.410 -16.265   9.602  0.00  0.00    +0.166 C 
BRANCH  10  11
ATOM     11  O   LIG    1       32.485 -16.381   8.671  0.00  0.00    -0.387 OA
ATOM     12  H   LIG    1       32.640 -17.341   8.593  0.00  0.00    +0.210 HD
ENDBRANCH  10  11
BRANCH  10  13
ATOM     13  C   LIG    1       31.855 -16.516  11.051  0.00  0.00    +0.189 C 
BRANCH  13  14
ATOM     14  O   LIG    1       32.567 -17.740  11.189  0.00  0.00    -0.392 OA
ATOM     15  H   LIG    1       31.986 -18.346  11.681  0.00  0.00    +0.209 HD
ENDBRANCH  13  14
ENDBRANCH  10  13
ENDBRANCH   9  10
ENDBRANCH   8   9
ENDBRANCH   4   8
ENDBRANCH   3   4
ENDBRANCH   2   3
ENDBRANCH   1   2
BRANCH   1  16
ATOM     16  O   LIG    1       26.626 -20.252   7.558  0.00  0.00    -0.456 OA
BRANCH  16  17
ATOM     17  C   LIG    1       25.763 -20.550   8.634  0.00  0.00    +0.307 C 
ATOM     18  O   LIG    1       25.910 -20.182   9.848  0.00  0.00    -0.251 OA
BRANCH  17  19
ATOM     19  C   LIG    1       24.425 -21.239   8.365  0.00  0.00    +0.120 C 
BRANCH  19  20
ATOM     20  C   LIG    1       23.622 -20.562   7.288  0.00  0.00    +0.011 C 
BRANCH  20  21
ATOM     21  C   LIG    1       23.249 -21.581   6.211  0.00  0.00    +0.000 C 
BRANCH  21  22
ATOM     22  C   LIG    1       22.788 -21.030   4.883  0.00  0.00    +0.000 C 
BRANCH  22  23
ATOM     23  C   LIG    1       22.044 -19.698   5.010  0.00  0.00    +0.000 C 
BRANCH  23  24
ATOM     24  C   LIG    1       22.764 -18.540   4.354  0.00  0.00    +0.004 C 
BRANCH  24  25
ATOM     25  C   LIG    1       23.725 -18.867   3.229  0.00  0.00    +0.027 C 
BRANCH  25  27
ATOM     26  C   LIG    1       26.217 -18.237   3.513  0.00  0.00    -0.031 C 
ATOM     27  C   LIG    1       25.069 -19.010   3.724  0.00  0.00    -0.031 C 
BRANCH  26  28
ATOM     28  C   LIG    1       26.173 -16.776   3.471  0.00  0.00    +0.027 C 
BRANCH  28  29
ATOM     29  C   LIG    1       27.350 -16.183   3.492  0.00  0.00    +0.004 C 
BRANCH  29  30
ATOM     30  C   LIG    1       27.611 -14.913   4.238  0.00  0.00    +0.000 C 
BRANCH  30  31
ATOM     31  C   LIG    1       26.796 -13.720   3.742  0.00  0.00    +0.000 C 
BRANCH  31  32
ATOM     32  C   LIG    1       25.307 -13.615   4.154  0.00  0.00    -0.000 C 
BRANCH  32  33
ATOM     33  C   LIG    1       24.213 -13.575   3.073  0.00  0.00    -0.000 C 
BRANCH  33  35
ATOM     34  C   LIG    1       23.104 -15.250   4.709  0.00  0.00    +0.004 C 
ATOM     35  C   LIG    1       23.069 -14.237   3.673  0.00  0.00    -0.003 C 
ENDBRANCH  33  35
ENDBRANCH  32  33
ENDBRANCH  31  32
ENDBRANCH  30  31
ENDBRANCH  29  30
ENDBRANCH  28  29
ENDBRANCH  26  28
ENDBRANCH  25  27
ENDBRANCH  24  25
ENDBRANCH  23  24
ENDBRANCH  22  23
ENDBRANCH  21  22
ENDBRANCH  20  21
ENDBRANCH  19  20
ENDBRANCH  17  19
ENDBRANCH  16  17
ENDBRANCH   1  16
BRANCH   1  36
ATOM     36  C   LIG    1       27.118 -23.131   6.787  0.00  0.00    +0.279 C 
BRANCH  36  37
ATOM     37  O   LIG    1       25.903 -23.827   7.055  0.00  0.00    -0.461 OA
BRANCH  37  38
ATOM     38  C   LIG    1       25.469 -24.689   6.049  0.00  0.00    +0.307 C 
ATOM     39  O   LIG    1       25.082 -24.223   5.048  0.00  0.00    -0.251 OA
BRANCH  38  40
ATOM     40  C   LIG    1       25.341 -26.241   6.477  0.00  0.00    +0.120 C 
BRANCH  40  41
ATOM     41  C   LIG    1       24.329 -27.296   5.859  0.00  0.00    +0.011 C 
BRANCH  41  42
ATOM     42  C   LIG    1       24.066 -28.742   6.224  0.00  0.00    +0.000 C 
BRANCH  42  43
ATOM     43  C   LIG    1       25.094 -29.391   7.239  0.00  0.00    +0.000 C 
BRANCH  43  44
ATOM     44  C   LIG    1       24.393 -29.936   8.509  0.00  0.00    -0.000 C 
BRANCH  44  45
ATOM     45  C   LIG    1       25.266 -29.992   9.825  0.00  0.00    -0.000 C 
BRANCH  45  46
ATOM     46  C   LIG    1       26.720 -29.276   9.911  0.00  0.00    -0.000 C 
BRANCH  46  47
ATOM     47  C   LIG    1       26.928 -27.849  10.692  0.00  0.00    -0.000 C 
BRANCH  47  48
ATOM     48  C   LIG    1       26.676 -27.752  12.295  0.00  0.00    -0.000 C 
BRANCH  48  49
ATOM     49  C   LIG    1       26.743 -26.474  13.251  0.00  0.00    -0.000 C 
BRANCH  49  50
ATOM     50  C   LIG    1       25.629 -26.214  14.251  0.00  0.00    -0.000 C 
BRANCH  50  51
ATOM     51  C   LIG    1       24.230 -25.883  13.721  0.00  0.00    -0.000 C 
BRANCH  51  52
ATOM     52  C   LIG    1       23.116 -26.933  13.858  0.00  0.00    -0.000 C 
BRANCH  52  53
ATOM     53  C   LIG    1       21.810 -26.442  13.101  0.00  0.00    -0.003 C 
ATOM     54  C   LIG    1       20.456 -27.194  13.334  0.00  0.00    +0.004 C 
ENDBRANCH  52  53
ENDBRANCH  51  52
ENDBRANCH  50  51
ENDBRANCH  49  50
ENDBRANCH  48  49
ENDBRANCH  47  48
ENDBRANCH  46  47
ENDBRANCH  45  46
ENDBRANCH  44  45
ENDBRANCH  43  44
ENDBRANCH  42  43
ENDBRANCH  41  42
ENDBRANCH  40  41
ENDBRANCH  38  40
ENDBRANCH  37  38
ENDBRANCH  36  37
ENDBRANCH   1  36
TORSDOF 44
ENDMDL
MODEL 8
REMARK VINA RESULT:      -6.3      6.647     11.112
REMARK  Name = *****
REMARK                            x       y       z     vdW  Elec       q    Type
REMARK                         _______ _______ _______ _____ _____    ______ ____
ROOT
ATOM      1  C   LIG    1       24.932 -32.361   5.847  0.00  0.00    +0.240 C 
ENDROOT
BRANCH   1   2
ATOM      2  C   LIG    1       23.504 -32.607   6.474  0.00  0.00    +0.220 C 
BRANCH   2   3
ATOM      3  O   LIG    1       23.685 -32.918   7.851  0.00  0.00    -0.283 OA
BRANCH   3   4
ATOM      4  P   LIG    1       22.914 -32.638   9.201  0.00  0.00    +0.475 P 
ATOM      5  O   LIG    1       23.650 -32.902  10.466  0.00  0.00    -0.227 OA
BRANCH   4   6
ATOM      6  O   LIG    1       22.717 -31.055   9.233  0.00  0.00    -0.302 OA
ATOM      7  H   LIG    1       23.360 -30.839   9.941  0.00  0.00    +0.222 HD
ENDBRANCH   4   6
BRANCH   4   8
ATOM      8  O   LIG    1       21.396 -33.217   9.136  0.00  0.00    -0.284 OA
BRANCH   8   9
ATOM      9  C   LIG    1       20.747 -33.542  10.364  0.00  0.00    +0.205 C 
BRANCH   9  10
ATOM     10  C   LIG    1       19.447 -32.754  10.566  0.00  0.00    +0.166 C 
BRANCH  10  11
ATOM     11  O   LIG    1       18.592 -32.949   9.440  0.00  0.00    -0.387 OA
ATOM     12  H   LIG    1       18.599 -33.912   9.289  0.00  0.00    +0.210 HD
ENDBRANCH  10  11
BRANCH  10  13
ATOM     13  C   LIG    1       19.597 -31.273  10.944  0.00  0.00    +0.189 C 
BRANCH  13  14
ATOM     14  O   LIG    1       19.186 -30.407   9.892  0.00  0.00    -0.392 OA
ATOM     15  H   LIG    1       18.692 -29.679  10.307  0.00  0.00    +0.209 HD
ENDBRANCH  13  14
ENDBRANCH  10  13
ENDBRANCH   9  10
ENDBRANCH   8   9
ENDBRANCH   4   8
ENDBRANCH   3   4
ENDBRANCH   2   3
ENDBRANCH   1   2
BRANCH   1  16
ATOM     16  O   LIG    1       25.816 -33.411   6.646  0.00  0.00    -0.456 OA
BRANCH  16  17
ATOM     17  C   LIG    1       27.035 -33.099   7.283  0.00  0.00    +0.307 C 
ATOM     18  O   LIG    1       28.193 -33.095   6.743  0.00  0.00    -0.251 OA
BRANCH  17  19
ATOM     19  C   LIG    1       27.027 -32.549   8.709  0.00  0.00    +0.120 C 
BRANCH  19  20
ATOM     20  C   LIG    1       26.624 -31.101   8.779  0.00  0.00    +0.011 C 
BRANCH  20  21
ATOM     21  C   LIG    1       26.497 -30.677  10.242  0.00  0.00    +0.000 C 
BRANCH  21  22
ATOM     22  C   LIG    1       27.469 -29.631  10.734  0.00  0.00    +0.000 C 
BRANCH  22  23
ATOM     23  C   LIG    1       26.826 -28.254  10.923  0.00  0.00    +0.000 C 
BRANCH  23  24
ATOM     24  C   LIG    1       26.905 -27.742  12.344  0.00  0.00    +0.004 C 
BRANCH  24  25
ATOM     25  C   LIG    1       26.529 -26.293  12.583  0.00  0.00    +0.027 C 
BRANCH  25  27
ATOM     26  C   LIG    1       25.631 -25.895  14.975  0.00  0.00    -0.031 C 
ATOM     27  C   LIG    1       26.614 -25.962  13.981  0.00  0.00    -0.031 C 
BRANCH  26  28
ATOM     28  C   LIG    1       24.552 -26.878  15.068  0.00  0.00    +0.027 C 
BRANCH  28  29
ATOM     29  C   LIG    1       23.354 -26.417  14.773  0.00  0.00    +0.004 C 
BRANCH  29  30
ATOM     30  C   LIG    1       22.853 -26.279  13.371  0.00  0.00    +0.000 C 
BRANCH  30  31
ATOM     31  C   LIG    1       21.711 -27.233  13.020  0.00  0.00    +0.000 C 
BRANCH  31  32
ATOM     32  C   LIG    1       22.043 -28.719  12.740  0.00  0.00    -0.000 C 
BRANCH  32  33
ATOM     33  C   LIG    1       23.394 -29.097  12.113  0.00  0.00    -0.000 C 
BRANCH  33  35
ATOM     34  C   LIG    1       24.868 -30.306  13.867  0.00  0.00    +0.004 C 
ATOM     35  C   LIG    1       23.836 -30.267  12.850  0.00  0.00    -0.003 C 
ENDBRANCH  33  35
ENDBRANCH  32  33
ENDBRANCH  31  32
ENDBRANCH  30  31
ENDBRANCH  29  30
ENDBRANCH  28  29
ENDBRANCH  26  28
ENDBRANCH  25  27
ENDBRANCH  24  25
ENDBRANCH  23  24
ENDBRANCH  22  23
ENDBRANCH  21  22
ENDBRANCH  20  21
ENDBRANCH  19  20
ENDBRANCH  17  19
ENDBRANCH  16  17
ENDBRANCH   1  16
BRANCH   1  36
ATOM     36  C   LIG    1       25.460 -30.718   5.323  0.00  0.00    +0.279 C 
BRANCH  36  37
ATOM     37  O   LIG    1       24.734 -29.499   5.453  0.00  0.00    -0.461 OA
BRANCH  37  38
ATOM     38  C   LIG    1       24.645 -28.986   6.747  0.00  0.00    +0.307 C 
ATOM     39  O   LIG    1       23.750 -29.328   7.419  0.00  0.00    -0.251 OA
BRANCH  38  40
ATOM     40  C   LIG    1       25.679 -27.794   7.089  0.00  0.00    +0.120 C 
BRANCH  40  41
ATOM     41  C   LIG    1       26.218 -26.708   6.065  0.00  0.00    +0.011 C 
BRANCH  41  42
ATOM     42  C   LIG    1       25.530 -26.014   4.909  0.00  0.00    +0.000 C 
BRANCH  42  43
ATOM     43  C   LIG    1       25.008 -24.548   5.200  0.00  0.00    +0.000 C 
BRANCH  43  44
ATOM     44  C   LIG    1       24.318 -24.441   6.583  0.00  0.00    -0.000 C 
BRANCH  44  45
ATOM     45  C   LIG    1       23.086 -23.454   6.679  0.00  0.00    -0.000 C 
BRANCH  45  46
ATOM     46  C   LIG    1       23.192 -22.036   7.461  0.00  0.00    -0.000 C 
BRANCH  46  47
ATOM     47  C   LIG    1       23.266 -20.613   6.647  0.00  0.00    -0.000 C 
BRANCH  47  48
ATOM     48  C   LIG    1       24.525 -20.298   5.667  0.00  0.00    -0.000 C 
BRANCH  48  49
ATOM     49  C   LIG    1       25.927 -21.053   5.551  0.00  0.00    -0.000 C 
BRANCH  49  50
ATOM     50  C   LIG    1       26.720 -21.378   6.806  0.00  0.00    -0.000 C 
BRANCH  50  51
ATOM     51  C   LIG    1       27.413 -20.234   7.553  0.00  0.00    -0.000 C 
BRANCH  51  52
ATOM     52  C   LIG    1       28.923 -20.330   7.823  0.00  0.00    -0.000 C 
BRANCH  52  53
ATOM     53  C   LIG    1       29.733 -19.696   6.614  0.00  0.00    -0.003 C 
ATOM     54  C   LIG    1       29.000 -18.744   5.610  0.00  0.00    +0.004 C 
ENDBRANCH  52  53
ENDBRANCH  51  52
ENDBRANCH  50  51
ENDBRANCH  49  50
ENDBRANCH  48  49
ENDBRANCH  47  48
ENDBRANCH  46  47
ENDBRANCH  45  46
ENDBRANCH  44  45
ENDBRANCH  43  44
ENDBRANCH  42  43
ENDBRANCH  41  42
ENDBRANCH  40  41
ENDBRANCH  38  40
ENDBRANCH  37  38
ENDBRANCH  36  37
ENDBRANCH   1  36
TORSDOF 44
ENDMDL
MODEL 9
REMARK VINA RESULT:      -6.3      5.426     10.283
REMARK  Name = *****
REMARK                            x       y       z     vdW  Elec       q    Type
REMARK                         _______ _______ _______ _____ _____    ______ ____
ROOT
ATOM      1  C   LIG    1       24.906 -28.555   6.204  0.00  0.00    +0.240 C 
ENDROOT
BRANCH   1   2
ATOM      2  C   LIG    1       25.165 -29.554   5.010  0.00  0.00    +0.220 C 
BRANCH   2   3
ATOM      3  O   LIG    1       25.840 -30.691   5.538  0.00  0.00    -0.283 OA
BRANCH   3   4
ATOM      4  P   LIG    1       25.912 -32.234   5.213  0.00  0.00    +0.475 P 
ATOM      5  O   LIG    1       24.656 -33.016   5.364  0.00  0.00    -0.227 OA
BRANCH   4   6
ATOM      6  O   LIG    1       26.184 -32.305   3.643  0.00  0.00    -0.302 OA
ATOM      7  H   LIG    1       27.075 -32.714   3.664  0.00  0.00    +0.222 HD
ENDBRANCH   4   6
BRANCH   4   8
ATOM      8  O   LIG    1       27.240 -32.906   5.868  0.00  0.00    -0.284 OA
BRANCH   8   9
ATOM      9  C   LIG    1       27.072 -33.794   6.972  0.00  0.00    +0.205 C 
BRANCH   9  10
ATOM     10  C   LIG    1       26.426 -33.107   8.182  0.00  0.00    +0.166 C 
BRANCH  10  11
ATOM     11  O   LIG    1       27.426 -32.823   9.159  0.00  0.00    -0.387 OA
ATOM     12  H   LIG    1       27.082 -33.213   9.984  0.00  0.00    +0.210 HD
ENDBRANCH  10  11
BRANCH  10  13
ATOM     13  C   LIG    1       25.193 -33.800   8.783  0.00  0.00    +0.189 C 
BRANCH  13  14
ATOM     14  O   LIG    1       23.978 -33.196   8.356  0.00  0.00    -0.392 OA
ATOM     15  H   LIG    1       24.024 -33.132   7.387  0.00  0.00    +0.209 HD
ENDBRANCH  13  14
ENDBRANCH  10  13
ENDBRANCH   9  10
ENDBRANCH   8   9
ENDBRANCH   4   8
ENDBRANCH   3   4
ENDBRANCH   2   3
ENDBRANCH   1   2
BRANCH   1  16
ATOM     16  O   LIG    1       23.815 -29.340   7.048  0.00  0.00    -0.456 OA
BRANCH  16  17
ATOM     17  C   LIG    1       24.009 -29.792   8.370  0.00  0.00    +0.307 C 
ATOM     18  O   LIG    1       23.168 -30.440   9.081  0.00  0.00    -0.251 OA
BRANCH  17  19
ATOM     19  C   LIG    1       25.388 -29.671   9.019  0.00  0.00    +0.120 C 
BRANCH  19  20
ATOM     20  C   LIG    1       25.426 -30.207  10.424  0.00  0.00    +0.011 C 
BRANCH  20  21
ATOM     21  C   LIG    1       25.503 -29.043  11.412  0.00  0.00    +0.000 C 
BRANCH  21  22
ATOM     22  C   LIG    1       26.881 -28.507  11.725  0.00  0.00    +0.000 C 
BRANCH  22  23
ATOM     23  C   LIG    1       26.890 -27.005  12.017  0.00  0.00    +0.000 C 
BRANCH  23  24
ATOM     24  C   LIG    1       26.319 -26.652  13.374  0.00  0.00    +0.004 C 
BRANCH  24  25
ATOM     25  C   LIG    1       25.335 -25.500  13.436  0.00  0.00    +0.027 C 
BRANCH  25  27
ATOM     26  C   LIG    1       22.992 -26.319  14.161  0.00  0.00    -0.031 C 
ATOM     27  C   LIG    1       24.269 -25.783  14.361  0.00  0.00    -0.031 C 
BRANCH  26  28
ATOM     28  C   LIG    1       22.749 -27.423  13.233  0.00  0.00    +0.027 C 
BRANCH  28  29
ATOM     29  C   LIG    1       21.479 -27.696  13.013  0.00  0.00    +0.004 C 
BRANCH  29  30
ATOM     30  C   LIG    1       20.429 -26.641  12.870  0.00  0.00    +0.000 C 
BRANCH  30  31
ATOM     31  C   LIG    1       19.332 -26.706  13.932  0.00  0.00    +0.000 C 
BRANCH  31  32
ATOM     32  C   LIG    1       19.571 -27.567  15.197  0.00  0.00    -0.000 C 
BRANCH  32  33
ATOM     33  C   LIG    1       18.646 -28.757  15.500  0.00  0.00    -0.000 C 
BRANCH  33  35
ATOM     34  C   LIG    1       19.000 -30.315  13.461  0.00  0.00    +0.004 C 
ATOM     35  C   LIG    1       18.285 -29.293  14.200  0.00  0.00    -0.003 C 
ENDBRANCH  33  35
ENDBRANCH  32  33
ENDBRANCH  31  32
ENDBRANCH  30  31
ENDBRANCH  29  30
ENDBRANCH  28  29
ENDBRANCH  26  28
ENDBRANCH  25  27
ENDBRANCH  24  25
ENDBRANCH  23  24
ENDBRANCH  22  23
ENDBRANCH  21  22
ENDBRANCH  20  21
ENDBRANCH  19  20
ENDBRANCH  17  19
ENDBRANCH  16  17
ENDBRANCH   1  16
BRANCH   1  36
ATOM     36  C   LIG    1       24.972 -26.768   5.967  0.00  0.00    +0.279 C 
BRANCH  36  37
ATOM     37  O   LIG    1       23.907 -25.836   6.143  0.00  0.00    -0.461 OA
BRANCH  37  38
ATOM     38  C   LIG    1       24.293 -24.537   6.472  0.00  0.00    +0.307 C 
ATOM     39  O   LIG    1       25.428 -24.327   6.661  0.00  0.00    -0.251 OA
BRANCH  38  40
ATOM     40  C   LIG    1       23.081 -23.514   6.775  0.00  0.00    +0.120 C 
BRANCH  40  41
ATOM     41  C   LIG    1       23.217 -22.087   7.459  0.00  0.00    +0.011 C 
BRANCH  41  42
ATOM     42  C   LIG    1       23.263 -20.702   6.850  0.00  0.00    +0.000 C 
BRANCH  42  43
ATOM     43  C   LIG    1       22.977 -20.626   5.294  0.00  0.00    +0.000 C 
BRANCH  43  44
ATOM     44  C   LIG    1       24.284 -20.627   4.462  0.00  0.00    -0.000 C 
BRANCH  44  45
ATOM     45  C   LIG    1       25.590 -21.119   5.205  0.00  0.00    -0.000 C 
BRANCH  45  46
ATOM     46  C   LIG    1       26.720 -20.074   5.717  0.00  0.00    -0.000 C 
BRANCH  46  47
ATOM     47  C   LIG    1       27.460 -20.257   7.170  0.00  0.00    -0.000 C 
BRANCH  47  48
ATOM     48  C   LIG    1       28.825 -21.132   7.287  0.00  0.00    -0.000 C 
BRANCH  48  49
ATOM     49  C   LIG    1       30.204 -20.760   8.001  0.00  0.00    -0.000 C 
BRANCH  49  50
ATOM     50  C   LIG    1       31.041 -19.605   7.480  0.00  0.00    -0.000 C 
BRANCH  50  51
ATOM     51  C   LIG    1       30.970 -18.259   8.209  0.00  0.00    -0.000 C 
BRANCH  51  52
ATOM     52  C   LIG    1       29.971 -18.094   9.365  0.00  0.00    -0.000 C 
BRANCH  52  53
ATOM     53  C   LIG    1       30.716 -17.539  10.653  0.00  0.00    -0.003 C 
ATOM     54  C   LIG    1       32.145 -16.916  10.507  0.00  0.00    +0.004 C 
ENDBRANCH  52  53
ENDBRANCH  51  52
ENDBRANCH  50  51
ENDBRANCH  49  50
ENDBRANCH  48  49
ENDBRANCH  47  48
ENDBRANCH  46  47
ENDBRANCH  45  46
ENDBRANCH  44  45
ENDBRANCH  43  44
ENDBRANCH  42  43
ENDBRANCH  41  42
ENDBRANCH  40  41
ENDBRANCH  38  40
ENDBRANCH  37  38
ENDBRANCH  36  37
ENDBRANCH   1  36
TORSDOF 44
ENDMDL
