MODEL 1
REMARK VINA RESULT:      -5.9      0.000      0.000
REMARK  Name = *****
REMARK                            x       y       z     vdW  Elec       q    Type
REMARK                         _______ _______ _______ _____ _____    ______ ____
ROOT
ATOM      1  C   LIG    1       23.999 -31.394   8.432  0.00  0.00    +0.130 C 
ATOM      2  C   LIG    1       24.001 -31.299   9.975  0.00  0.00    +0.011 C 
ATOM      3  C   LIG    1       22.625 -31.683  10.586  0.00  0.00    +0.007 C 
ATOM      4  C   LIG    1       21.751 -30.477  10.983  0.00  0.00    +0.088 C 
ATOM      5  N   LIG    1       22.447 -29.393  11.662  0.00  0.00    -0.293 NA
ATOM      6  C   LIG    1       23.893 -29.597  11.859  0.00  0.00    +0.104 C 
ATOM      7  C   LIG    1       24.467 -28.360  12.480  0.00  0.00    +0.038 C 
ATOM      8  C   LIG    1       23.750 -27.408  13.179  0.00  0.00    -0.016 C 
ATOM      9  C   LIG    1       24.662 -26.425  13.645  0.00  0.00    +0.003 C 
ATOM     10  C   LIG    1       25.934 -26.819  13.217  0.00  0.00    +0.047 C 
ATOM     11  C   LIG    1       27.086 -26.075  13.498  0.00  0.00    +0.026 C 
ATOM     12  C   LIG    1       26.932 -24.896  14.236  0.00  0.00    +0.002 C 
ATOM     13  C   LIG    1       25.678 -24.481  14.675  0.00  0.00    +0.001 C 
ATOM     14  C   LIG    1       24.535 -25.236  14.387  0.00  0.00    +0.010 C 
ATOM     15  C   LIG    1       22.269 -27.503  13.313  0.00  0.00    +0.053 C 
ATOM     16  N   LIG    1       25.788 -28.002  12.521  0.00  0.00    -0.356 NA
ATOM     17  H   LIG    1       26.552 -28.513  12.102  0.00  0.00    +0.166 HD
ATOM     18  C   LIG    1       21.762 -28.900  12.872  0.00  0.00    +0.090 C 
ATOM     19  C   LIG    1       21.811 -32.636   9.692  0.00  0.00    +0.007 C 
ATOM     20  C   LIG    1       22.722 -33.573   8.919  0.00  0.00    +0.032 C 
ATOM     21  C   LIG    1       24.498 -29.931  10.493  0.00  0.00    +0.029 C 
ATOM     22  C   LIG    1       23.610 -32.804   7.935  0.00  0.00    +0.129 C 
ENDROOT
BRANCH   1  23
ATOM     23  C   LIG    1       25.333 -30.994   7.829  0.00  0.00    +0.313 C 
ATOM     24  O   LIG    1       26.403 -31.512   8.122  0.00  0.00    -0.250 OA
BRANCH  23  26
ATOM     25  C   LIG    1       25.308 -30.418   5.561  0.00  0.00    +0.280 C 
ATOM     26  O   LIG    1       25.158 -29.997   6.918  0.00  0.00    -0.468 OA
ENDBRANCH  23  26
ENDBRANCH   1  23
BRANCH  22  27
ATOM     27  O   LIG    1       24.730 -33.637   7.641  0.00  0.00    -0.391 OA
ATOM     28  H   LIG    1       24.872 -34.255   8.382  0.00  0.00    +0.210 HD
ENDBRANCH  22  27
TORSDOF 3
ENDMDL
MODEL 2
REMARK VINA RESULT:      -5.9      2.614      3.748
REMARK  Name = *****
REMARK                            x       y       z     vdW  Elec       q    Type
REMARK                         _______ _______ _______ _____ _____    ______ ____
ROOT
ATOM      1  C   LIG    1       24.229 -30.765   7.180  0.00  0.00    +0.130 C 
ATOM      2  C   LIG    1       24.144 -31.186   8.665  0.00  0.00    +0.011 C 
ATOM      3  C   LIG    1       23.627 -32.642   8.830  0.00  0.00    +0.007 C 
ATOM      4  C   LIG    1       22.135 -32.745   9.205  0.00  0.00    +0.088 C 
ATOM      5  N   LIG    1       21.676 -31.808  10.221  0.00  0.00    -0.293 NA
ATOM      6  C   LIG    1       22.702 -30.883  10.735  0.00  0.00    +0.104 C 
ATOM      7  C   LIG    1       22.049 -29.934  11.693  0.00  0.00    +0.038 C 
ATOM      8  C   LIG    1       20.852 -30.154  12.348  0.00  0.00    -0.016 C 
ATOM      9  C   LIG    1       20.605 -29.044  13.197  0.00  0.00    +0.003 C 
ATOM     10  C   LIG    1       21.682 -28.167  13.040  0.00  0.00    +0.047 C 
ATOM     11  C   LIG    1       21.771 -26.953  13.731  0.00  0.00    +0.026 C 
ATOM     12  C   LIG    1       20.729 -26.627  14.606  0.00  0.00    +0.002 C 
ATOM     13  C   LIG    1       19.645 -27.483  14.783  0.00  0.00    +0.001 C 
ATOM     14  C   LIG    1       19.570 -28.693  14.085  0.00  0.00    +0.010 C 
ATOM     15  C   LIG    1       20.043 -31.378  12.086  0.00  0.00    +0.053 C 
ATOM     16  N   LIG    1       22.549 -28.736  12.129  0.00  0.00    -0.356 NA
ATOM     17  H   LIG    1       23.418 -28.316  11.831  0.00  0.00    +0.166 HD
ATOM     18  C   LIG    1       20.864 -32.423  11.287  0.00  0.00    +0.090 C 
ATOM     19  C   LIG    1       23.911 -33.528   7.604  0.00  0.00    +0.007 C 
ATOM     20  C   LIG    1       25.211 -33.129   6.929  0.00  0.00    +0.032 C 
ATOM     21  C   LIG    1       23.340 -30.190   9.529  0.00  0.00    +0.029 C 
ATOM     22  C   LIG    1       25.131 -31.710   6.356  0.00  0.00    +0.129 C 
ENDROOT
BRANCH   1  23
ATOM     23  C   LIG    1       24.708 -29.335   7.015  0.00  0.00    +0.313 C 
ATOM     24  O   LIG    1       25.577 -28.816   7.705  0.00  0.00    -0.250 OA
BRANCH  23  26
ATOM     25  C   LIG    1       24.414 -27.366   5.783  0.00  0.00    +0.280 C 
ATOM     26  O   LIG    1       24.045 -28.731   5.989  0.00  0.00    -0.468 OA
ENDBRANCH  23  26
ENDBRANCH   1  23
BRANCH  22  27
ATOM     27  O   LIG    1       26.469 -31.240   6.209  0.00  0.00    -0.391 OA
ATOM     28  H   LIG    1       26.529 -30.332   6.558  0.00  0.00    +0.210 HD
ENDBRANCH  22  27
TORSDOF 3
ENDMDL
MODEL 3
REMARK VINA RESULT:      -5.7      1.548      2.199
REMARK  Name = *****
REMARK                            x       y       z     vdW  Elec       q    Type
REMARK                         _______ _______ _______ _____ _____    ______ ____
ROOT
ATOM      1  C   LIG    1       23.753 -31.190   6.477  0.00  0.00    +0.130 C 
ATOM      2  C   LIG    1       24.297 -31.558   7.876  0.00  0.00    +0.011 C 
ATOM      3  C   LIG    1       23.407 -32.613   8.590  0.00  0.00    +0.007 C 
ATOM      4  C   LIG    1       22.444 -32.023   9.638  0.00  0.00    +0.088 C 
ATOM      5  N   LIG    1       23.010 -31.003  10.509  0.00  0.00    -0.293 NA
ATOM      6  C   LIG    1       24.422 -30.669  10.254  0.00  0.00    +0.104 C 
ATOM      7  C   LIG    1       24.818 -29.547  11.165  0.00  0.00    +0.038 C 
ATOM      8  C   LIG    1       24.175 -29.204  12.339  0.00  0.00    -0.016 C 
ATOM      9  C   LIG    1       24.883 -28.125  12.929  0.00  0.00    +0.003 C 
ATOM     10  C   LIG    1       25.963 -27.842  12.088  0.00  0.00    +0.047 C 
ATOM     11  C   LIG    1       26.882 -26.822  12.360  0.00  0.00    +0.026 C 
ATOM     12  C   LIG    1       26.691 -26.071  13.525  0.00  0.00    +0.002 C 
ATOM     13  C   LIG    1       25.625 -26.332  14.381  0.00  0.00    +0.001 C 
ATOM     14  C   LIG    1       24.714 -27.355  14.095  0.00  0.00    +0.010 C 
ATOM     15  C   LIG    1       22.936 -29.909  12.773  0.00  0.00    +0.053 C 
ATOM     16  N   LIG    1       25.906 -28.726  11.029  0.00  0.00    -0.356 NA
ATOM     17  H   LIG    1       26.572 -28.749  10.270  0.00  0.00    +0.166 HD
ATOM     18  C   LIG    1       22.710 -31.197  11.940  0.00  0.00    +0.090 C 
ATOM     19  C   LIG    1       22.620 -33.502   7.611  0.00  0.00    +0.007 C 
ATOM     20  C   LIG    1       23.403 -33.734   6.331  0.00  0.00    +0.032 C 
ATOM     21  C   LIG    1       24.550 -30.322   8.768  0.00  0.00    +0.029 C 
ATOM     22  C   LIG    1       23.616 -32.427   5.561  0.00  0.00    +0.129 C 
ENDROOT
BRANCH   1  23
ATOM     23  C   LIG    1       24.605 -30.140   5.787  0.00  0.00    +0.313 C 
ATOM     24  O   LIG    1       25.789 -30.287   5.511  0.00  0.00    -0.250 OA
BRANCH  23  26
ATOM     25  C   LIG    1       24.615 -27.823   5.458  0.00  0.00    +0.280 C 
ATOM     26  O   LIG    1       23.859 -29.034   5.514  0.00  0.00    -0.468 OA
ENDBRANCH  23  26
ENDBRANCH   1  23
BRANCH  22  27
ATOM     27  O   LIG    1       24.733 -32.625   4.697  0.00  0.00    -0.391 OA
ATOM     28  H   LIG    1       25.266 -33.372   5.029  0.00  0.00    +0.210 HD
ENDBRANCH  22  27
TORSDOF 3
ENDMDL
MODEL 4
REMARK VINA RESULT:      -5.6      4.635      6.498
REMARK  Name = *****
REMARK                            x       y       z     vdW  Elec       q    Type
REMARK                         _______ _______ _______ _____ _____    ______ ____
ROOT
ATOM      1  C   LIG    1       24.353 -30.917   8.336  0.00  0.00    +0.130 C 
ATOM      2  C   LIG    1       23.931 -30.124   7.078  0.00  0.00    +0.011 C 
ATOM      3  C   LIG    1       24.671 -30.616   5.803  0.00  0.00    +0.007 C 
ATOM      4  C   LIG    1       25.862 -29.731   5.383  0.00  0.00    +0.088 C 
ATOM      5  N   LIG    1       25.632 -28.294   5.449  0.00  0.00    -0.293 NA
ATOM      6  C   LIG    1       24.296 -27.890   5.923  0.00  0.00    +0.104 C 
ATOM      7  C   LIG    1       24.258 -26.396   6.020  0.00  0.00    +0.038 C 
ATOM      8  C   LIG    1       25.103 -25.528   5.355  0.00  0.00    -0.016 C 
ATOM      9  C   LIG    1       24.712 -24.202   5.675  0.00  0.00    +0.003 C 
ATOM     10  C   LIG    1       23.613 -24.300   6.533  0.00  0.00    +0.047 C 
ATOM     11  C   LIG    1       22.963 -23.176   7.056  0.00  0.00    +0.026 C 
ATOM     12  C   LIG    1       23.452 -21.917   6.692  0.00  0.00    +0.002 C 
ATOM     13  C   LIG    1       24.544 -21.790   5.837  0.00  0.00    +0.001 C 
ATOM     14  C   LIG    1       25.183 -22.923   5.322  0.00  0.00    +0.010 C 
ATOM     15  C   LIG    1       26.218 -26.036   4.507  0.00  0.00    +0.053 C 
ATOM     16  N   LIG    1       23.352 -25.643   6.718  0.00  0.00    -0.356 NA
ATOM     17  H   LIG    1       22.604 -26.003   7.293  0.00  0.00    +0.166 HD
ATOM     18  C   LIG    1       26.068 -27.558   4.248  0.00  0.00    +0.090 C 
ATOM     19  C   LIG    1       25.128 -32.082   5.895  0.00  0.00    +0.007 C 
ATOM     20  C   LIG    1       24.156 -32.907   6.719  0.00  0.00    +0.032 C 
ATOM     21  C   LIG    1       24.052 -28.595   7.259  0.00  0.00    +0.029 C 
ATOM     22  C   LIG    1       24.116 -32.435   8.176  0.00  0.00    +0.129 C 
ENDROOT
BRANCH   1  23
ATOM     23  C   LIG    1       23.652 -30.423   9.588  0.00  0.00    +0.313 C 
ATOM     24  O   LIG    1       22.436 -30.412   9.737  0.00  0.00    -0.250 OA
BRANCH  23  26
ATOM     25  C   LIG    1       23.994 -29.595  11.750  0.00  0.00    +0.280 C 
ATOM     26  O   LIG    1       24.567 -30.015  10.511  0.00  0.00    -0.468 OA
ENDBRANCH  23  26
ENDBRANCH   1  23
BRANCH  22  27
ATOM     27  O   LIG    1       22.881 -32.883   8.730  0.00  0.00    -0.391 OA
ATOM     28  H   LIG    1       23.018 -33.748   9.159  0.00  0.00    +0.210 HD
ENDBRANCH  22  27
TORSDOF 3
ENDMDL
MODEL 5
REMARK VINA RESULT:      -5.5      3.239      7.149
REMARK  Name = *****
REMARK                            x       y       z     vdW  Elec       q    Type
REMARK                         _______ _______ _______ _____ _____    ______ ____
ROOT
ATOM      1  C   LIG    1       26.173 -26.832  13.969  0.00  0.00    +0.130 C 
ATOM      2  C   LIG    1       24.742 -26.565  13.446  0.00  0.00    +0.011 C 
ATOM      3  C   LIG    1       23.918 -25.684  14.425  0.00  0.00    +0.007 C 
ATOM      4  C   LIG    1       22.938 -26.474  15.314  0.00  0.00    +0.088 C 
ATOM      5  N   LIG    1       22.183 -27.521  14.641  0.00  0.00    -0.293 NA
ATOM      6  C   LIG    1       22.475 -27.687  13.206  0.00  0.00    +0.104 C 
ATOM      7  C   LIG    1       21.691 -28.855  12.692  0.00  0.00    +0.038 C 
ATOM      8  C   LIG    1       20.559 -29.383  13.285  0.00  0.00    -0.016 C 
ATOM      9  C   LIG    1       20.090 -30.445  12.468  0.00  0.00    +0.003 C 
ATOM     10  C   LIG    1       20.958 -30.529  11.376  0.00  0.00    +0.047 C 
ATOM     11  C   LIG    1       20.799 -31.478  10.359  0.00  0.00    +0.026 C 
ATOM     12  C   LIG    1       19.721 -32.364  10.462  0.00  0.00    +0.002 C 
ATOM     13  C   LIG    1       18.840 -32.301  11.539  0.00  0.00    +0.001 C 
ATOM     14  C   LIG    1       19.013 -31.347  12.548  0.00  0.00    +0.010 C 
ATOM     15  C   LIG    1       20.049 -28.853  14.581  0.00  0.00    +0.053 C 
ATOM     16  N   LIG    1       21.915 -29.546  11.532  0.00  0.00    -0.356 NA
ATOM     17  H   LIG    1       22.669 -29.378  10.881  0.00  0.00    +0.166 HD
ATOM     18  C   LIG    1       20.738 -27.512  14.940  0.00  0.00    +0.090 C 
ATOM     19  C   LIG    1       24.795 -24.776  15.307  0.00  0.00    +0.007 C 
ATOM     20  C   LIG    1       26.043 -24.334  14.565  0.00  0.00    +0.032 C 
ATOM     21  C   LIG    1       23.989 -27.858  13.064  0.00  0.00    +0.029 C 
ATOM     22  C   LIG    1       26.950 -25.524  14.236  0.00  0.00    +0.129 C 
ENDROOT
BRANCH   1  23
ATOM     23  C   LIG    1       26.973 -27.714  13.028  0.00  0.00    +0.313 C 
ATOM     24  O   LIG    1       27.597 -28.707  13.379  0.00  0.00    -0.250 OA
BRANCH  23  26
ATOM     25  C   LIG    1       26.922 -28.269  10.754  0.00  0.00    +0.280 C 
ATOM     26  O   LIG    1       26.880 -27.247  11.751  0.00  0.00    -0.468 OA
ENDBRANCH  23  26
ENDBRANCH   1  23
BRANCH  22  27
ATOM     27  O   LIG    1       27.790 -25.126  13.154  0.00  0.00    -0.391 OA
ATOM     28  H   LIG    1       27.301 -25.227  12.316  0.00  0.00    +0.210 HD
ENDBRANCH  22  27
TORSDOF 3
ENDMDL
MODEL 6
REMARK VINA RESULT:      -5.5      3.246      7.027
REMARK  Name = *****
REMARK                            x       y       z     vdW  Elec       q    Type
REMARK                         _______ _______ _______ _____ _____    ______ ____
ROOT
ATOM      1  C   LIG    1       25.377 -27.988  13.483  0.00  0.00    +0.130 C 
ATOM      2  C   LIG    1       23.990 -27.448  13.067  0.00  0.00    +0.011 C 
ATOM      3  C   LIG    1       23.638 -26.121  13.796  0.00  0.00    +0.007 C 
ATOM      4  C   LIG    1       22.687 -26.292  14.997  0.00  0.00    +0.088 C 
ATOM      5  N   LIG    1       21.566 -27.198  14.788  0.00  0.00    -0.293 NA
ATOM      6  C   LIG    1       21.509 -27.835  13.460  0.00  0.00    +0.104 C 
ATOM      7  C   LIG    1       20.362 -28.799  13.444  0.00  0.00    +0.038 C 
ATOM      8  C   LIG    1       19.277 -28.767  14.299  0.00  0.00    -0.016 C 
ATOM      9  C   LIG    1       18.394 -29.813  13.928  0.00  0.00    +0.003 C 
ATOM     10  C   LIG    1       18.971 -30.460  12.831  0.00  0.00    +0.047 C 
ATOM     11  C   LIG    1       18.368 -31.554  12.200  0.00  0.00    +0.026 C 
ATOM     12  C   LIG    1       17.142 -32.000  12.706  0.00  0.00    +0.002 C 
ATOM     13  C   LIG    1       16.544 -31.374  13.796  0.00  0.00    +0.001 C 
ATOM     14  C   LIG    1       17.159 -30.280  14.417  0.00  0.00    +0.010 C 
ATOM     15  C   LIG    1       19.195 -27.769  15.403  0.00  0.00    +0.053 C 
ATOM     16  N   LIG    1       20.160 -29.817  12.552  0.00  0.00    -0.356 NA
ATOM     17  H   LIG    1       20.784 -30.077  11.801  0.00  0.00    +0.166 HD
ATOM     18  C   LIG    1       20.266 -26.661  15.230  0.00  0.00    +0.090 C 
ATOM     19  C   LIG    1       24.879 -25.322  14.232  0.00  0.00    +0.007 C 
ATOM     20  C   LIG    1       26.022 -25.509  13.251  0.00  0.00    +0.032 C 
ATOM     21  C   LIG    1       22.866 -28.498  13.211  0.00  0.00    +0.029 C 
ATOM     22  C   LIG    1       26.504 -26.963  13.224  0.00  0.00    +0.129 C 
ENDROOT
BRANCH   1  23
ATOM     23  C   LIG    1       25.714 -29.297  12.794  0.00  0.00    +0.313 C 
ATOM     24  O   LIG    1       26.115 -30.298  13.374  0.00  0.00    -0.250 OA
BRANCH  23  26
ATOM     25  C   LIG    1       25.107 -30.422  10.833  0.00  0.00    +0.280 C 
ATOM     26  O   LIG    1       25.492 -29.194  11.453  0.00  0.00    -0.468 OA
ENDBRANCH  23  26
ENDBRANCH   1  23
BRANCH  22  27
ATOM     27  O   LIG    1       27.181 -27.159  11.984  0.00  0.00    -0.391 OA
ATOM     28  H   LIG    1       28.003 -26.635  11.983  0.00  0.00    +0.210 HD
ENDBRANCH  22  27
TORSDOF 3
ENDMDL
MODEL 7
REMARK VINA RESULT:      -5.4      1.866      2.492
REMARK  Name = *****
REMARK                            x       y       z     vdW  Elec       q    Type
REMARK                         _______ _______ _______ _____ _____    ______ ____
ROOT
ATOM      1  C   LIG    1       24.370 -29.948   6.911  0.00  0.00    +0.130 C 
ATOM      2  C   LIG    1       25.181 -30.339   8.168  0.00  0.00    +0.011 C 
ATOM      3  C   LIG    1       24.667 -31.659   8.807  0.00  0.00    +0.007 C 
ATOM      4  C   LIG    1       23.758 -31.455  10.034  0.00  0.00    +0.088 C 
ATOM      5  N   LIG    1       24.199 -30.441  10.982  0.00  0.00    -0.293 NA
ATOM      6  C   LIG    1       25.447 -29.743  10.624  0.00  0.00    +0.104 C 
ATOM      7  C   LIG    1       25.706 -28.678  11.645  0.00  0.00    +0.038 C 
ATOM      8  C   LIG    1       25.180 -28.648  12.923  0.00  0.00    -0.016 C 
ATOM      9  C   LIG    1       25.704 -27.509  13.587  0.00  0.00    +0.003 C 
ATOM     10  C   LIG    1       26.557 -26.870  12.683  0.00  0.00    +0.047 C 
ATOM     11  C   LIG    1       27.251 -25.697  13.003  0.00  0.00    +0.026 C 
ATOM     12  C   LIG    1       27.066 -25.163  14.283  0.00  0.00    +0.002 C 
ATOM     13  C   LIG    1       26.223 -25.780  15.204  0.00  0.00    +0.001 C 
ATOM     14  C   LIG    1       25.536 -26.952  14.869  0.00  0.00    +0.010 C 
ATOM     15  C   LIG    1       24.210 -29.683  13.381  0.00  0.00    +0.053 C 
ATOM     16  N   LIG    1       26.548 -27.606  11.515  0.00  0.00    -0.356 NA
ATOM     17  H   LIG    1       27.083 -27.372  10.691  0.00  0.00    +0.166 HD
ATOM     18  C   LIG    1       24.163 -30.875  12.391  0.00  0.00    +0.090 C 
ATOM     19  C   LIG    1       23.968 -32.588   7.798  0.00  0.00    +0.007 C 
ATOM     20  C   LIG    1       24.588 -32.463   6.418  0.00  0.00    +0.032 C 
ATOM     21  C   LIG    1       25.274 -29.197   9.204  0.00  0.00    +0.029 C 
ATOM     22  C   LIG    1       24.385 -31.060   5.838  0.00  0.00    +0.129 C 
ENDROOT
BRANCH   1  23
ATOM     23  C   LIG    1       24.851 -28.646   6.298  0.00  0.00    +0.313 C 
ATOM     24  O   LIG    1       25.974 -28.473   5.842  0.00  0.00    -0.250 OA
BRANCH  23  26
ATOM     25  C   LIG    1       24.293 -26.388   6.038  0.00  0.00    +0.280 C 
ATOM     26  O   LIG    1       23.854 -27.717   6.322  0.00  0.00    -0.468 OA
ENDBRANCH  23  26
ENDBRANCH   1  23
BRANCH  22  27
ATOM     27  O   LIG    1       25.379 -30.872   4.833  0.00  0.00    -0.391 OA
ATOM     28  H   LIG    1       25.154 -31.415   4.055  0.00  0.00    +0.210 HD
ENDBRANCH  22  27
TORSDOF 3
ENDMDL
MODEL 8
REMARK VINA RESULT:      -5.3      3.797      6.032
REMARK  Name = *****
REMARK                            x       y       z     vdW  Elec       q    Type
REMARK                         _______ _______ _______ _____ _____    ______ ____
ROOT
ATOM      1  C   LIG    1       21.830 -31.678  12.568  0.00  0.00    +0.130 C 
ATOM      2  C   LIG    1       23.061 -31.896  11.658  0.00  0.00    +0.011 C 
ATOM      3  C   LIG    1       24.370 -32.066  12.478  0.00  0.00    +0.007 C 
ATOM      4  C   LIG    1       25.239 -30.795  12.550  0.00  0.00    +0.088 C 
ATOM      5  N   LIG    1       25.383 -30.059  11.302  0.00  0.00    -0.293 NA
ATOM      6  C   LIG    1       24.663 -30.628  10.148  0.00  0.00    +0.104 C 
ATOM      7  C   LIG    1       24.837 -29.707   8.979  0.00  0.00    +0.038 C 
ATOM      8  C   LIG    1       25.847 -28.774   8.837  0.00  0.00    -0.016 C 
ATOM      9  C   LIG    1       25.688 -28.143   7.576  0.00  0.00    +0.003 C 
ATOM     10  C   LIG    1       24.572 -28.726   6.969  0.00  0.00    +0.047 C 
ATOM     11  C   LIG    1       24.116 -28.341   5.704  0.00  0.00    +0.026 C 
ATOM     12  C   LIG    1       24.821 -27.330   5.040  0.00  0.00    +0.002 C 
ATOM     13  C   LIG    1       25.937 -26.733   5.621  0.00  0.00    +0.001 C 
ATOM     14  C   LIG    1       26.381 -27.129   6.888  0.00  0.00    +0.010 C 
ATOM     15  C   LIG    1       26.845 -28.549   9.920  0.00  0.00    +0.053 C 
ATOM     16  N   LIG    1       24.080 -29.680   7.838  0.00  0.00    -0.356 NA
ATOM     17  H   LIG    1       23.275 -30.260   7.650  0.00  0.00    +0.166 HD
ATOM     18  C   LIG    1       26.771 -29.673  10.985  0.00  0.00    +0.090 C 
ATOM     19  C   LIG    1       24.129 -32.606  13.899  0.00  0.00    +0.007 C 
ATOM     20  C   LIG    1       22.944 -33.554  13.930  0.00  0.00    +0.032 C 
ATOM     21  C   LIG    1       23.202 -30.813  10.566  0.00  0.00    +0.029 C 
ATOM     22  C   LIG    1       21.640 -32.832  13.578  0.00  0.00    +0.129 C 
ENDROOT
BRANCH   1  23
ATOM     23  C   LIG    1       20.553 -31.486  11.771  0.00  0.00    +0.313 C 
ATOM     24  O   LIG    1       20.230 -32.176  10.812  0.00  0.00    -0.250 OA
BRANCH  23  26
ATOM     25  C   LIG    1       20.619 -29.361  12.749  0.00  0.00    +0.280 C 
ATOM     26  O   LIG    1       19.827 -30.456  12.287  0.00  0.00    -0.468 OA
ENDBRANCH  23  26
ENDBRANCH   1  23
BRANCH  22  27
ATOM     27  O   LIG    1       20.713 -33.825  13.145  0.00  0.00    -0.391 OA
ATOM     28  H   LIG    1       21.186 -34.667  13.009  0.00  0.00    +0.210 HD
ENDBRANCH  22  27
TORSDOF 3
ENDMDL
MODEL 9
REMARK VINA RESULT:      -5.3      5.999      8.580
REMARK  Name = *****
REMARK                            x       y       z     vdW  Elec       q    Type
REMARK                         _______ _______ _______ _____ _____    ______ ____
ROOT
ATOM      1  C   LIG    1       25.269 -22.229   7.258  0.00  0.00    +0.130 C 
ATOM      2  C   LIG    1       25.795 -23.495   6.542  0.00  0.00    +0.011 C 
ATOM      3  C   LIG    1       25.034 -23.776   5.217  0.00  0.00    +0.007 C 
ATOM      4  C   LIG    1       23.949 -24.865   5.330  0.00  0.00    +0.088 C 
ATOM      5  N   LIG    1       24.324 -26.049   6.090  0.00  0.00    -0.293 NA
ATOM      6  C   LIG    1       25.685 -26.031   6.656  0.00  0.00    +0.104 C 
ATOM      7  C   LIG    1       25.875 -27.269   7.478  0.00  0.00    +0.038 C 
ATOM      8  C   LIG    1       25.136 -28.431   7.358  0.00  0.00    -0.016 C 
ATOM      9  C   LIG    1       25.656 -29.378   8.278  0.00  0.00    +0.003 C 
ATOM     10  C   LIG    1       26.722 -28.760   8.938  0.00  0.00    +0.047 C 
ATOM     11  C   LIG    1       27.473 -29.406   9.926  0.00  0.00    +0.026 C 
ATOM     12  C   LIG    1       27.124 -30.722  10.249  0.00  0.00    +0.002 C 
ATOM     13  C   LIG    1       26.068 -31.364   9.606  0.00  0.00    +0.001 C 
ATOM     14  C   LIG    1       25.326 -30.704   8.620  0.00  0.00    +0.010 C 
ATOM     15  C   LIG    1       23.993 -28.523   6.408  0.00  0.00    +0.053 C 
ATOM     16  N   LIG    1       26.839 -27.483   8.426  0.00  0.00    -0.356 NA
ATOM     17  H   LIG    1       27.535 -26.813   8.722  0.00  0.00    +0.166 HD
ATOM     18  C   LIG    1       23.991 -27.323   5.425  0.00  0.00    +0.090 C 
ATOM     19  C   LIG    1       24.427 -22.509   4.587  0.00  0.00    +0.007 C 
ATOM     20  C   LIG    1       25.292 -21.292   4.862  0.00  0.00    +0.032 C 
ATOM     21  C   LIG    1       25.829 -24.736   7.460  0.00  0.00    +0.029 C 
ATOM     22  C   LIG    1       25.351 -20.975   6.360  0.00  0.00    +0.129 C 
ENDROOT
BRANCH   1  23
ATOM     23  C   LIG    1       25.992 -21.966   8.565  0.00  0.00    +0.313 C 
ATOM     24  O   LIG    1       25.480 -21.431   9.540  0.00  0.00    -0.250 OA
BRANCH  23  26
ATOM     25  C   LIG    1       28.250 -21.387   8.355  0.00  0.00    +0.280 C 
ATOM     26  O   LIG    1       27.275 -22.421   8.494  0.00  0.00    -0.468 OA
ENDBRANCH  23  26
ENDBRANCH   1  23
BRANCH  22  27
ATOM     27  O   LIG    1       26.523 -20.191   6.578  0.00  0.00    -0.391 OA
ATOM     28  H   LIG    1       27.276 -20.785   6.753  0.00  0.00    +0.210 HD
ENDBRANCH  22  27
TORSDOF 3
ENDMDL
