MODEL 1
REMARK VINA RESULT:      -3.7      0.000      0.000
REMARK  Name = *****
REMARK                            x       y       z     vdW  Elec       q    Type
REMARK                         _______ _______ _______ _____ _____    ______ ____
ROOT
ATOM      1  N   LIG    1       25.925 -18.893   3.999  0.00  0.00    -0.340 NA
ATOM      2  C   LIG    1       27.107 -19.076   4.709  0.00  0.00    +0.104 C 
ATOM      3  C   LIG    1       27.269 -19.937   5.726  0.00  0.00    +0.077 C 
ATOM      4  I   LIG    1       29.062 -20.171   6.680  0.00  0.00    -0.038 I 
ATOM      5  C   LIG    1       26.079 -20.755   6.147  0.00  0.00    +0.208 C 
ATOM      6  O   LIG    1       26.149 -21.572   7.062  0.00  0.00    -0.286 OA
ATOM      7  C   LIG    1       24.797 -20.522   5.395  0.00  0.00    +0.077 C 
ATOM      8  I   LIG    1       23.109 -21.558   5.900  0.00  0.00    -0.038 I 
ATOM      9  C   LIG    1       24.814 -19.628   4.395  0.00  0.00    +0.104 C 
ENDROOT
BRANCH   1  10
ATOM     10  C   LIG    1       25.845 -17.926   2.883  0.00  0.00    +0.241 C 
BRANCH  10  11
ATOM     11  C   LIG    1       25.785 -16.497   3.385  0.00  0.00    +0.327 C 
ATOM     12  O   LIG    1       24.755 -15.949   3.748  0.00  0.00    -0.249 OA
BRANCH  11  13
ATOM     13  O   LIG    1       27.018 -15.910   3.367  0.00  0.00    -0.463 OA
BRANCH  13  14
ATOM     14  C   LIG    1       27.029 -14.525   2.977  0.00  0.00    +0.232 C 
BRANCH  14  16
ATOM     15  C   LIG    1       26.962 -13.360   5.219  0.00  0.00    +0.007 C 
ATOM     16  C   LIG    1       27.806 -13.712   4.008  0.00  0.00    +0.038 C 
ENDBRANCH  14  16
ENDBRANCH  13  14
ENDBRANCH  11  13
ENDBRANCH  10  11
ENDBRANCH   1  10
TORSDOF 5
ENDMDL
MODEL 2
REMARK VINA RESULT:      -3.7      1.382      3.010
REMARK  Name = *****
REMARK                            x       y       z     vdW  Elec       q    Type
REMARK                         _______ _______ _______ _____ _____    ______ ____
ROOT
ATOM      1  N   LIG    1       25.971 -18.863   4.033  0.00  0.00    -0.340 NA
ATOM      2  C   LIG    1       24.765 -19.506   4.286  0.00  0.00    +0.104 C 
ATOM      3  C   LIG    1       24.562 -20.407   5.262  0.00  0.00    +0.077 C 
ATOM      4  I   LIG    1       22.737 -21.266   5.590  0.00  0.00    -0.038 I 
ATOM      5  C   LIG    1       25.732 -20.765   6.137  0.00  0.00    +0.208 C 
ATOM      6  O   LIG    1       25.625 -21.572   7.057  0.00  0.00    -0.286 OA
ATOM      7  C   LIG    1       27.040 -20.089   5.830  0.00  0.00    +0.077 C 
ATOM      8  I   LIG    1       28.703 -20.521   6.937  0.00  0.00    -0.038 I 
ATOM      9  C   LIG    1       27.063 -19.204   4.822  0.00  0.00    +0.104 C 
ENDROOT
BRANCH   1  10
ATOM     10  C   LIG    1       26.096 -17.875   2.939  0.00  0.00    +0.241 C 
BRANCH  10  11
ATOM     11  C   LIG    1       26.335 -16.476   3.475  0.00  0.00    +0.327 C 
ATOM     12  O   LIG    1       27.444 -16.015   3.694  0.00  0.00    -0.249 OA
BRANCH  11  13
ATOM     13  O   LIG    1       25.158 -15.816   3.687  0.00  0.00    -0.463 OA
BRANCH  13  14
ATOM     14  C   LIG    1       25.270 -14.385   3.786  0.00  0.00    +0.232 C 
BRANCH  14  16
ATOM     15  C   LIG    1       23.972 -12.271   3.299  0.00  0.00    +0.007 C 
ATOM     16  C   LIG    1       23.891 -13.753   3.616  0.00  0.00    +0.038 C 
ENDBRANCH  14  16
ENDBRANCH  13  14
ENDBRANCH  11  13
ENDBRANCH  10  11
ENDBRANCH   1  10
TORSDOF 5
ENDMDL
MODEL 3
REMARK VINA RESULT:      -2.7      0.284      2.510
REMARK  Name = *****
REMARK                            x       y       z     vdW  Elec       q    Type
REMARK                         _______ _______ _______ _____ _____    ______ ____
ROOT
ATOM      1  N   LIG    1       26.001 -18.877   4.018  0.00  0.00    -0.340 NA
ATOM      2  C   LIG    1       24.799 -19.528   4.273  0.00  0.00    +0.104 C 
ATOM      3  C   LIG    1       24.600 -20.422   5.254  0.00  0.00    +0.077 C 
ATOM      4  I   LIG    1       22.780 -21.292   5.583  0.00  0.00    -0.038 I 
ATOM      5  C   LIG    1       25.770 -20.765   6.136  0.00  0.00    +0.208 C 
ATOM      6  O   LIG    1       25.666 -21.565   7.062  0.00  0.00    -0.286 OA
ATOM      7  C   LIG    1       27.074 -20.082   5.827  0.00  0.00    +0.077 C 
ATOM      8  I   LIG    1       28.737 -20.492   6.943  0.00  0.00    -0.038 I 
ATOM      9  C   LIG    1       27.094 -19.204   4.813  0.00  0.00    +0.104 C 
ENDROOT
BRANCH   1  10
ATOM     10  C   LIG    1       26.122 -17.897   2.917  0.00  0.00    +0.241 C 
BRANCH  10  11
ATOM     11  C   LIG    1       25.931 -16.476   3.412  0.00  0.00    +0.327 C 
ATOM     12  O   LIG    1       24.844 -15.999   3.700  0.00  0.00    -0.249 OA
BRANCH  11  13
ATOM     13  O   LIG    1       27.121 -15.808   3.480  0.00  0.00    -0.463 OA
BRANCH  13  14
ATOM     14  C   LIG    1       27.103 -14.473   2.943  0.00  0.00    +0.232 C 
BRANCH  14  16
ATOM     15  C   LIG    1       27.050 -13.406   5.234  0.00  0.00    +0.007 C 
ATOM     16  C   LIG    1       27.795 -13.524   3.917  0.00  0.00    +0.038 C 
ENDBRANCH  14  16
ENDBRANCH  13  14
ENDBRANCH  11  13
ENDBRANCH  10  11
ENDBRANCH   1  10
TORSDOF 5
ENDMDL
MODEL 4
REMARK VINA RESULT:      -2.3      1.873      3.180
REMARK  Name = *****
REMARK                            x       y       z     vdW  Elec       q    Type
REMARK                         _______ _______ _______ _____ _____    ______ ____
ROOT
ATOM      1  N   LIG    1       25.542 -18.813   3.814  0.00  0.00    -0.340 NA
ATOM      2  C   LIG    1       24.161 -18.903   3.677  0.00  0.00    +0.104 C 
ATOM      3  C   LIG    1       23.358 -19.654   4.447  0.00  0.00    +0.077 C 
ATOM      4  I   LIG    1       21.329 -19.685   4.201  0.00  0.00    -0.038 I 
ATOM      5  C   LIG    1       23.998 -20.480   5.529  0.00  0.00    +0.208 C 
ATOM      6  O   LIG    1       23.331 -21.185   6.282  0.00  0.00    -0.286 OA
ATOM      7  C   LIG    1       25.495 -20.402   5.644  0.00  0.00    +0.077 C 
ATOM      8  I   LIG    1       26.475 -21.502   7.061  0.00  0.00    -0.038 I 
ATOM      9  C   LIG    1       26.145 -19.589   4.797  0.00  0.00    +0.104 C 
ENDROOT
BRANCH   1  10
ATOM     10  C   LIG    1       26.344 -17.947   2.923  0.00  0.00    +0.241 C 
BRANCH  10  11
ATOM     11  C   LIG    1       26.631 -16.601   3.562  0.00  0.00    +0.327 C 
ATOM     12  O   LIG    1       27.627 -16.366   4.229  0.00  0.00    -0.249 OA
BRANCH  11  13
ATOM     13  O   LIG    1       25.633 -15.705   3.303  0.00  0.00    -0.463 OA
BRANCH  13  14
ATOM     14  C   LIG    1       25.711 -14.475   4.045  0.00  0.00    +0.232 C 
BRANCH  14  16
ATOM     15  C   LIG    1       24.519 -13.032   2.346  0.00  0.00    +0.007 C 
ATOM     16  C   LIG    1       24.482 -13.620   3.744  0.00  0.00    +0.038 C 
ENDBRANCH  14  16
ENDBRANCH  13  14
ENDBRANCH  11  13
ENDBRANCH  10  11
ENDBRANCH   1  10
TORSDOF 5
ENDMDL
MODEL 5
REMARK VINA RESULT:      -1.9      3.163      5.144
REMARK  Name = *****
REMARK                            x       y       z     vdW  Elec       q    Type
REMARK                         _______ _______ _______ _____ _____    ______ ____
ROOT
ATOM      1  N   LIG    1       25.693 -20.263   4.962  0.00  0.00    -0.340 NA
ATOM      2  C   LIG    1       25.742 -19.042   4.298  0.00  0.00    +0.104 C 
ATOM      3  C   LIG    1       26.782 -18.193   4.323  0.00  0.00    +0.077 C 
ATOM      4  I   LIG    1       26.781 -16.438   3.275  0.00  0.00    -0.038 I 
ATOM      5  C   LIG    1       27.980 -18.579   5.147  0.00  0.00    +0.208 C 
ATOM      6  O   LIG    1       28.975 -17.862   5.213  0.00  0.00    -0.286 OA
ATOM      7  C   LIG    1       27.901 -19.885   5.888  0.00  0.00    +0.077 C 
ATOM      8  I   LIG    1       29.460 -20.497   7.060  0.00  0.00    -0.038 I 
ATOM      9  C   LIG    1       26.786 -20.619   5.743  0.00  0.00    +0.104 C 
ENDROOT
BRANCH   1  10
ATOM     10  C   LIG    1       24.505 -21.139   4.865  0.00  0.00    +0.241 C 
BRANCH  10  11
ATOM     11  C   LIG    1       23.533 -20.889   6.003  0.00  0.00    +0.327 C 
ATOM     12  O   LIG    1       23.506 -21.550   7.029  0.00  0.00    -0.249 OA
BRANCH  11  13
ATOM     13  O   LIG    1       22.697 -19.846   5.723  0.00  0.00    -0.463 OA
BRANCH  13  14
ATOM     14  C   LIG    1       21.963 -19.965   4.491  0.00  0.00    +0.232 C 
BRANCH  14  16
ATOM     15  C   LIG    1       22.349 -17.478   4.731  0.00  0.00    +0.007 C 
ATOM     16  C   LIG    1       21.648 -18.574   3.949  0.00  0.00    +0.038 C 
ENDBRANCH  14  16
ENDBRANCH  13  14
ENDBRANCH  11  13
ENDBRANCH  10  11
ENDBRANCH   1  10
TORSDOF 5
ENDMDL
MODEL 6
REMARK VINA RESULT:      -1.7      2.021      2.459
REMARK  Name = *****
REMARK                            x       y       z     vdW  Elec       q    Type
REMARK                         _______ _______ _______ _____ _____    ______ ____
ROOT
ATOM      1  N   LIG    1       26.456 -16.936   3.360  0.00  0.00    -0.340 NA
ATOM      2  C   LIG    1       27.576 -17.242   4.126  0.00  0.00    +0.104 C 
ATOM      3  C   LIG    1       27.768 -18.399   4.781  0.00  0.00    +0.077 C 
ATOM      4  I   LIG    1       29.472 -18.778   5.845  0.00  0.00    -0.038 I 
ATOM      5  C   LIG    1       26.683 -19.438   4.699  0.00  0.00    +0.208 C 
ATOM      6  O   LIG    1       26.788 -20.525   5.262  0.00  0.00    -0.286 OA
ATOM      7  C   LIG    1       25.462 -19.081   3.897  0.00  0.00    +0.077 C 
ATOM      8  I   LIG    1       23.913 -20.405   3.741  0.00  0.00    -0.038 I 
ATOM      9  C   LIG    1       25.439 -17.881   3.296  0.00  0.00    +0.104 C 
ENDROOT
BRANCH   1  10
ATOM     10  C   LIG    1       26.338 -15.637   2.664  0.00  0.00    +0.241 C 
BRANCH  10  11
ATOM     11  C   LIG    1       26.631 -14.476   3.595  0.00  0.00    +0.327 C 
ATOM     12  O   LIG    1       27.041 -14.610   4.738  0.00  0.00    -0.249 OA
BRANCH  11  13
ATOM     13  O   LIG    1       26.366 -13.277   2.995  0.00  0.00    -0.463 OA
BRANCH  13  14
ATOM     14  C   LIG    1       25.079 -13.184   2.360  0.00  0.00    +0.232 C 
BRANCH  14  16
ATOM     15  C   LIG    1       24.132 -12.184   4.480  0.00  0.00    +0.007 C 
ATOM     16  C   LIG    1       23.982 -13.258   3.419  0.00  0.00    +0.038 C 
ENDBRANCH  14  16
ENDBRANCH  13  14
ENDBRANCH  11  13
ENDBRANCH  10  11
ENDBRANCH   1  10
TORSDOF 5
ENDMDL
MODEL 7
REMARK VINA RESULT:      -1.3      2.722      5.602
REMARK  Name = *****
REMARK                            x       y       z     vdW  Elec       q    Type
REMARK                         _______ _______ _______ _____ _____    ______ ____
ROOT
ATOM      1  N   LIG    1       25.482 -18.557   3.603  0.00  0.00    -0.340 NA
ATOM      2  C   LIG    1       25.299 -17.219   3.271  0.00  0.00    +0.104 C 
ATOM      3  C   LIG    1       26.188 -16.240   3.501  0.00  0.00    +0.077 C 
ATOM      4  I   LIG    1       25.849 -14.305   2.932  0.00  0.00    -0.038 I 
ATOM      5  C   LIG    1       27.473 -16.609   4.189  0.00  0.00    +0.208 C 
ATOM      6  O   LIG    1       28.341 -15.772   4.425  0.00  0.00    -0.286 OA
ATOM      7  C   LIG    1       27.645 -18.052   4.575  0.00  0.00    +0.077 C 
ATOM      8  I   LIG    1       29.341 -18.663   5.539  0.00  0.00    -0.038 I 
ATOM      9  C   LIG    1       26.658 -18.904   4.258  0.00  0.00    +0.104 C 
ENDROOT
BRANCH   1  10
ATOM     10  C   LIG    1       24.448 -19.569   3.299  0.00  0.00    +0.241 C 
BRANCH  10  11
ATOM     11  C   LIG    1       23.215 -19.386   4.163  0.00  0.00    +0.327 C 
ATOM     12  O   LIG    1       22.758 -18.295   4.470  0.00  0.00    -0.249 OA
BRANCH  11  13
ATOM     13  O   LIG    1       22.699 -20.588   4.557  0.00  0.00    -0.463 OA
BRANCH  13  14
ATOM     14  C   LIG    1       23.653 -21.506   5.121  0.00  0.00    +0.232 C 
BRANCH  14  16
ATOM     15  C   LIG    1       25.100 -20.777   7.062  0.00  0.00    +0.007 C 
ATOM     16  C   LIG    1       23.738 -21.288   6.629  0.00  0.00    +0.038 C 
ENDBRANCH  14  16
ENDBRANCH  13  14
ENDBRANCH  11  13
ENDBRANCH  10  11
ENDBRANCH   1  10
TORSDOF 5
ENDMDL
MODEL 8
REMARK VINA RESULT:      -0.9      3.035      5.776
REMARK  Name = *****
REMARK                            x       y       z     vdW  Elec       q    Type
REMARK                         _______ _______ _______ _____ _____    ______ ____
ROOT
ATOM      1  N   LIG    1       25.415 -17.637   3.465  0.00  0.00    -0.340 NA
ATOM      2  C   LIG    1       26.236 -16.553   3.175  0.00  0.00    +0.104 C 
ATOM      3  C   LIG    1       25.938 -15.270   3.435  0.00  0.00    +0.077 C 
ATOM      4  I   LIG    1       27.233 -13.744   3.016  0.00  0.00    -0.038 I 
ATOM      5  C   LIG    1       24.606 -14.976   4.069  0.00  0.00    +0.208 C 
ATOM      6  O   LIG    1       24.264 -13.829   4.347  0.00  0.00    -0.286 OA
ATOM      7  C   LIG    1       23.712 -16.153   4.345  0.00  0.00    +0.077 C 
ATOM      8  I   LIG    1       21.868 -15.868   5.179  0.00  0.00    -0.038 I 
ATOM      9  C   LIG    1       24.173 -17.373   4.031  0.00  0.00    +0.104 C 
ENDROOT
BRANCH   1  10
ATOM     10  C   LIG    1       25.834 -19.020   3.152  0.00  0.00    +0.241 C 
BRANCH  10  11
ATOM     11  C   LIG    1       25.957 -19.865   4.405  0.00  0.00    +0.327 C 
ATOM     12  O   LIG    1       26.915 -19.819   5.162  0.00  0.00    -0.249 OA
BRANCH  11  13
ATOM     13  O   LIG    1       24.872 -20.679   4.565  0.00  0.00    -0.463 OA
BRANCH  13  14
ATOM     14  C   LIG    1       24.523 -20.970   5.930  0.00  0.00    +0.232 C 
BRANCH  14  16
ATOM     15  C   LIG    1       22.292 -20.300   4.949  0.00  0.00    +0.007 C 
ATOM     16  C   LIG    1       23.113 -20.461   6.215  0.00  0.00    +0.038 C 
ENDBRANCH  14  16
ENDBRANCH  13  14
ENDBRANCH  11  13
ENDBRANCH  10  11
ENDBRANCH   1  10
TORSDOF 5
ENDMDL
MODEL 9
REMARK VINA RESULT:      -0.9      3.038      6.234
REMARK  Name = *****
REMARK                            x       y       z     vdW  Elec       q    Type
REMARK                         _______ _______ _______ _____ _____    ______ ____
ROOT
ATOM      1  N   LIG    1       25.413 -17.599   3.430  0.00  0.00    -0.340 NA
ATOM      2  C   LIG    1       24.188 -17.321   4.026  0.00  0.00    +0.104 C 
ATOM      3  C   LIG    1       23.753 -16.094   4.353  0.00  0.00    +0.077 C 
ATOM      4  I   LIG    1       21.912 -15.777   5.185  0.00  0.00    -0.038 I 
ATOM      5  C   LIG    1       24.664 -14.930   4.072  0.00  0.00    +0.208 C 
ATOM      6  O   LIG    1       24.333 -13.775   4.332  0.00  0.00    -0.286 OA
ATOM      7  C   LIG    1       26.000 -15.248   3.460  0.00  0.00    +0.077 C 
ATOM      8  I   LIG    1       27.329 -13.747   3.061  0.00  0.00    -0.038 I 
ATOM      9  C   LIG    1       26.271 -16.533   3.187  0.00  0.00    +0.104 C 
ENDROOT
BRANCH   1  10
ATOM     10  C   LIG    1       25.803 -18.987   3.095  0.00  0.00    +0.241 C 
BRANCH  10  11
ATOM     11  C   LIG    1       25.892 -19.856   4.335  0.00  0.00    +0.327 C 
ATOM     12  O   LIG    1       26.832 -19.829   5.116  0.00  0.00    -0.249 OA
BRANCH  11  13
ATOM     13  O   LIG    1       24.801 -20.669   4.453  0.00  0.00    -0.463 OA
BRANCH  13  14
ATOM     14  C   LIG    1       24.455 -21.035   5.800  0.00  0.00    +0.232 C 
BRANCH  14  16
ATOM     15  C   LIG    1       22.249 -20.163   4.928  0.00  0.00    +0.007 C 
ATOM     16  C   LIG    1       23.095 -20.440   6.156  0.00  0.00    +0.038 C 
ENDBRANCH  14  16
ENDBRANCH  13  14
ENDBRANCH  11  13
ENDBRANCH  10  11
ENDBRANCH   1  10
TORSDOF 5
ENDMDL
