MODEL 1
REMARK VINA RESULT:      -4.9      0.000      0.000
REMARK  Name = *****
REMARK                            x       y       z     vdW  Elec       q    Type
REMARK                         _______ _______ _______ _____ _____    ______ ____
ROOT
ATOM      1  C   LIG    1       24.622 -28.819  12.737  0.00  0.00    +0.065 A 
ATOM      2  C   LIG    1       23.428 -29.515  12.454  0.00  0.00    +0.049 A 
ATOM      3  I   LIG    1       21.499 -28.616  12.901  0.00  0.00    -0.041 I 
ATOM      4  C   LIG    1       23.470 -30.740  11.749  0.00  0.00    +0.064 A 
ATOM      5  C   LIG    1       24.661 -31.070  11.081  0.00  0.00    +0.049 A 
ATOM      6  I   LIG    1       25.156 -33.051  10.488  0.00  0.00    -0.041 I 
ATOM      7  C   LIG    1       25.683 -30.132  10.986  0.00  0.00    +0.065 A 
ATOM      8  C   LIG    1       25.775 -29.185  12.014  0.00  0.00    +0.040 A 
ATOM      9  I   LIG    1       27.754 -28.908  12.761  0.00  0.00    -0.042 I 
ENDROOT
BRANCH   1  11
ATOM     10  O   LIG    1       24.691 -27.993  14.957  0.00  0.00    -0.270 OA
ATOM     11  C   LIG    1       24.671 -27.733  13.772  0.00  0.00    +0.246 C 
ATOM     12  N   LIG    1       24.708 -26.438  13.296  0.00  0.00    -0.309 N 
ATOM     13  H   LIG    1       24.821 -26.262  12.306  0.00  0.00    +0.149 HD
BRANCH  12  14
ATOM     14  C   LIG    1       24.786 -25.273  14.156  0.00  0.00    +0.138 C 
BRANCH  14  15
ATOM     15  C   LIG    1       26.241 -24.908  14.492  0.00  0.00    +0.157 C 
BRANCH  15  16
ATOM     16  O   LIG    1       27.016 -24.809  13.287  0.00  0.00    -0.388 OA
ATOM     17  H   LIG    1       27.903 -24.508  13.572  0.00  0.00    +0.210 HD
ENDBRANCH  15  16
BRANCH  15  18
ATOM     18  C   LIG    1       26.319 -23.575  15.242  0.00  0.00    +0.188 C 
BRANCH  18  19
ATOM     19  O   LIG    1       25.549 -22.600  14.533  0.00  0.00    -0.392 OA
ATOM     20  H   LIG    1       25.616 -22.811  13.584  0.00  0.00    +0.209 HD
ENDBRANCH  18  19
ENDBRANCH  15  18
ENDBRANCH  14  15
ENDBRANCH  12  14
ENDBRANCH   1  11
BRANCH   7  21
ATOM     21  C   LIG    1       25.969 -29.575   9.587  0.00  0.00    +0.246 C 
ATOM     22  N   LIG    1       24.925 -29.687   8.669  0.00  0.00    -0.309 N 
ATOM     23  H   LIG    1       24.069 -30.155   8.924  0.00  0.00    +0.149 HD
ATOM     24  O   LIG    1       26.996 -28.996   9.330  0.00  0.00    -0.270 OA
BRANCH  22  25
ATOM     25  C   LIG    1       24.926 -29.024   7.372  0.00  0.00    +0.138 C 
BRANCH  25  26
ATOM     26  C   LIG    1       24.569 -29.967   6.200  0.00  0.00    +0.157 C 
BRANCH  26  27
ATOM     27  O   LIG    1       23.288 -29.598   5.649  0.00  0.00    -0.388 OA
ATOM     28  H   LIG    1       23.040 -30.255   4.978  0.00  0.00    +0.210 HD
ENDBRANCH  26  27
BRANCH  26  29
ATOM     29  C   LIG    1       24.533 -31.430   6.683  0.00  0.00    +0.188 C 
BRANCH  29  30
ATOM     30  O   LIG    1       23.309 -31.740   7.347  0.00  0.00    -0.392 OA
ATOM     31  H   LIG    1       22.637 -31.923   6.668  0.00  0.00    +0.209 HD
ENDBRANCH  29  30
ENDBRANCH  26  29
ENDBRANCH  25  26
ENDBRANCH  22  25
ENDBRANCH   7  21
BRANCH   4  32
ATOM     32  N   LIG    1       22.354 -31.640  11.728  0.00  0.00    -0.265 N 
ATOM     33  C   LIG    1       21.488 -31.603  10.623  0.00  0.00    +0.245 C 
ATOM     34  O   LIG    1       21.670 -30.855   9.657  0.00  0.00    -0.273 OA
BRANCH  32  35
ATOM     35  C   LIG    1       22.371 -32.709  12.752  0.00  0.00    +0.141 C 
BRANCH  35  36
ATOM     36  C   LIG    1       21.795 -32.272  14.106  0.00  0.00    +0.175 C 
BRANCH  36  37
ATOM     37  O   LIG    1       20.375 -32.309  14.090  0.00  0.00    -0.393 OA
ATOM     38  H   LIG    1       20.080 -31.400  14.289  0.00  0.00    +0.209 HD
ENDBRANCH  36  37
ENDBRANCH  35  36
ENDBRANCH  32  35
BRANCH  33  39
ATOM     39  C   LIG    1       20.204 -32.453  10.694  0.00  0.00    +0.252 C 
BRANCH  39  40
ATOM     40  O   LIG    1       19.113 -31.881  11.391  0.00  0.00    -0.386 OA
ATOM     41  H   LIG    1       19.460 -31.132  11.910  0.00  0.00    +0.210 HD
ENDBRANCH  39  40
ENDBRANCH  33  39
ENDBRANCH   4  32
TORSDOF 18
ENDMDL
MODEL 2
REMARK VINA RESULT:      -4.8      2.988      7.673
REMARK  Name = *****
REMARK                            x       y       z     vdW  Elec       q    Type
REMARK                         _______ _______ _______ _____ _____    ______ ____
ROOT
ATOM      1  C   LIG    1       24.319 -30.870  10.592  0.00  0.00    +0.065 A 
ATOM      2  C   LIG    1       25.210 -29.907  11.109  0.00  0.00    +0.049 A 
ATOM      3  I   LIG    1       26.585 -28.861   9.788  0.00  0.00    -0.041 I 
ATOM      4  C   LIG    1       25.121 -29.511  12.464  0.00  0.00    +0.064 A 
ATOM      5  C   LIG    1       23.956 -29.853  13.170  0.00  0.00    +0.049 A 
ATOM      6  I   LIG    1       23.851 -29.903  15.293  0.00  0.00    -0.041 I 
ATOM      7  C   LIG    1       22.874 -30.405  12.493  0.00  0.00    +0.065 A 
ATOM      8  C   LIG    1       23.157 -31.149  11.340  0.00  0.00    +0.040 A 
ATOM      9  I   LIG    1       22.127 -33.015  11.240  0.00  0.00    -0.042 I 
ENDROOT
BRANCH   1  11
ATOM     10  O   LIG    1       25.388 -32.494   9.237  0.00  0.00    -0.270 OA
ATOM     11  C   LIG    1       24.592 -31.580   9.298  0.00  0.00    +0.246 C 
ATOM     12  N   LIG    1       23.880 -31.142   8.200  0.00  0.00    -0.309 N 
ATOM     13  H   LIG    1       23.134 -30.468   8.311  0.00  0.00    +0.149 HD
BRANCH  12  14
ATOM     14  C   LIG    1       24.002 -31.734   6.881  0.00  0.00    +0.138 C 
BRANCH  14  15
ATOM     15  C   LIG    1       24.987 -30.955   5.995  0.00  0.00    +0.157 C 
BRANCH  15  16
ATOM     16  O   LIG    1       25.063 -31.558   4.694  0.00  0.00    -0.388 OA
ATOM     17  H   LIG    1       24.343 -31.145   4.173  0.00  0.00    +0.210 HD
ENDBRANCH  15  16
BRANCH  15  18
ATOM     18  C   LIG    1       24.557 -29.495   5.839  0.00  0.00    +0.188 C 
BRANCH  18  19
ATOM     19  O   LIG    1       23.174 -29.456   5.474  0.00  0.00    -0.392 OA
ATOM     20  H   LIG    1       23.118 -29.049   4.591  0.00  0.00    +0.209 HD
ENDBRANCH  18  19
ENDBRANCH  15  18
ENDBRANCH  14  15
ENDBRANCH  12  14
ENDBRANCH   1  11
BRANCH   7  21
ATOM     21  C   LIG    1       21.619 -29.533  12.389  0.00  0.00    +0.246 C 
ATOM     22  N   LIG    1       21.678 -28.309  13.058  0.00  0.00    -0.309 N 
ATOM     23  H   LIG    1       22.487 -28.067  13.607  0.00  0.00    +0.149 HD
ATOM     24  O   LIG    1       20.680 -29.846  11.697  0.00  0.00    -0.270 OA
BRANCH  22  25
ATOM     25  C   LIG    1       20.682 -27.259  12.894  0.00  0.00    +0.138 C 
BRANCH  25  26
ATOM     26  C   LIG    1       19.558 -27.307  13.954  0.00  0.00    +0.157 C 
BRANCH  26  27
ATOM     27  O   LIG    1       18.771 -28.503  13.778  0.00  0.00    -0.388 OA
ATOM     28  H   LIG    1       19.353 -29.212  13.459  0.00  0.00    +0.210 HD
ENDBRANCH  26  27
BRANCH  26  29
ATOM     29  C   LIG    1       18.658 -26.062  13.834  0.00  0.00    +0.188 C 
BRANCH  29  30
ATOM     30  O   LIG    1       17.643 -26.042  14.836  0.00  0.00    -0.392 OA
ATOM     31  H   LIG    1       16.997 -26.738  14.623  0.00  0.00    +0.209 HD
ENDBRANCH  29  30
ENDBRANCH  26  29
ENDBRANCH  25  26
ENDBRANCH  22  25
ENDBRANCH   7  21
BRANCH   4  32
ATOM     32  N   LIG    1       26.186 -28.808  13.118  0.00  0.00    -0.265 N 
ATOM     33  C   LIG    1       27.252 -29.554  13.647  0.00  0.00    +0.245 C 
ATOM     34  O   LIG    1       27.325 -30.783  13.538  0.00  0.00    -0.273 OA
BRANCH  32  35
ATOM     35  C   LIG    1       26.190 -27.339  12.941  0.00  0.00    +0.141 C 
BRANCH  35  36
ATOM     36  C   LIG    1       25.351 -26.590  13.987  0.00  0.00    +0.175 C 
BRANCH  36  37
ATOM     37  O   LIG    1       24.054 -26.304  13.486  0.00  0.00    -0.393 OA
ATOM     38  H   LIG    1       24.093 -26.474  12.526  0.00  0.00    +0.209 HD
ENDBRANCH  36  37
ENDBRANCH  35  36
ENDBRANCH  32  35
BRANCH  33  39
ATOM     39  C   LIG    1       28.299 -28.802  14.491  0.00  0.00    +0.252 C 
BRANCH  39  40
ATOM     40  O   LIG    1       29.598 -28.707  13.937  0.00  0.00    -0.386 OA
ATOM     41  H   LIG    1       29.934 -29.615  13.828  0.00  0.00    +0.210 HD
ENDBRANCH  39  40
ENDBRANCH  33  39
ENDBRANCH   4  32
TORSDOF 18
ENDMDL
MODEL 3
REMARK VINA RESULT:      -4.5      2.901      7.698
REMARK  Name = *****
REMARK                            x       y       z     vdW  Elec       q    Type
REMARK                         _______ _______ _______ _____ _____    ______ ____
ROOT
ATOM      1  C   LIG    1       24.380 -30.819  10.560  0.00  0.00    +0.065 A 
ATOM      2  C   LIG    1       25.244 -29.841  11.097  0.00  0.00    +0.049 A 
ATOM      3  I   LIG    1       26.576 -28.718   9.795  0.00  0.00    -0.041 I 
ATOM      4  C   LIG    1       25.153 -29.484  12.462  0.00  0.00    +0.064 A 
ATOM      5  C   LIG    1       24.004 -29.882  13.166  0.00  0.00    +0.049 A 
ATOM      6  I   LIG    1       23.916 -29.991  15.288  0.00  0.00    -0.041 I 
ATOM      7  C   LIG    1       22.936 -30.450  12.482  0.00  0.00    +0.065 A 
ATOM      8  C   LIG    1       23.234 -31.154  11.308  0.00  0.00    +0.040 A 
ATOM      9  I   LIG    1       22.263 -33.049  11.165  0.00  0.00    -0.042 I 
ENDROOT
BRANCH   1  11
ATOM     10  O   LIG    1       25.496 -32.366   9.155  0.00  0.00    -0.270 OA
ATOM     11  C   LIG    1       24.667 -31.485   9.246  0.00  0.00    +0.246 C 
ATOM     12  N   LIG    1       23.928 -31.048   8.166  0.00  0.00    -0.309 N 
ATOM     13  H   LIG    1       23.158 -30.405   8.302  0.00  0.00    +0.149 HD
BRANCH  12  14
ATOM     14  C   LIG    1       24.058 -31.602   6.832  0.00  0.00    +0.138 C 
BRANCH  14  15
ATOM     15  C   LIG    1       25.062 -30.808   5.980  0.00  0.00    +0.157 C 
BRANCH  15  16
ATOM     16  O   LIG    1       25.256 -31.458   4.714  0.00  0.00    -0.388 OA
ATOM     17  H   LIG    1       24.656 -32.232   4.724  0.00  0.00    +0.210 HD
ENDBRANCH  15  16
BRANCH  15  18
ATOM     18  C   LIG    1       24.571 -29.379   5.733  0.00  0.00    +0.188 C 
BRANCH  18  19
ATOM     19  O   LIG    1       23.164 -29.412   5.473  0.00  0.00    -0.392 OA
ATOM     20  H   LIG    1       22.861 -30.325   5.628  0.00  0.00    +0.209 HD
ENDBRANCH  18  19
ENDBRANCH  15  18
ENDBRANCH  14  15
ENDBRANCH  12  14
ENDBRANCH   1  11
BRANCH   7  21
ATOM     21  C   LIG    1       21.652 -29.616  12.409  0.00  0.00    +0.246 C 
ATOM     22  N   LIG    1       21.716 -28.359  13.012  0.00  0.00    -0.309 N 
ATOM     23  H   LIG    1       22.548 -28.069  13.499  0.00  0.00    +0.149 HD
ATOM     24  O   LIG    1       20.685 -29.988  11.790  0.00  0.00    -0.270 OA
BRANCH  22  25
ATOM     25  C   LIG    1       20.683 -27.344  12.854  0.00  0.00    +0.138 C 
BRANCH  25  26
ATOM     26  C   LIG    1       19.585 -27.411  13.941  0.00  0.00    +0.157 C 
BRANCH  26  27
ATOM     27  O   LIG    1       18.790 -28.600  13.760  0.00  0.00    -0.388 OA
ATOM     28  H   LIG    1       18.330 -28.794  14.593  0.00  0.00    +0.210 HD
ENDBRANCH  26  27
BRANCH  26  29
ATOM     29  C   LIG    1       18.687 -26.161  13.871  0.00  0.00    +0.188 C 
BRANCH  29  30
ATOM     30  O   LIG    1       17.761 -26.110  14.954  0.00  0.00    -0.392 OA
ATOM     31  H   LIG    1       17.358 -26.991  15.046  0.00  0.00    +0.209 HD
ENDBRANCH  29  30
ENDBRANCH  26  29
ENDBRANCH  25  26
ENDBRANCH  22  25
ENDBRANCH   7  21
BRANCH   4  32
ATOM     32  N   LIG    1       26.199 -28.765  13.128  0.00  0.00    -0.265 N 
ATOM     33  C   LIG    1       26.001 -27.403  13.404  0.00  0.00    +0.245 C 
ATOM     34  O   LIG    1       24.951 -26.812  13.130  0.00  0.00    -0.273 OA
BRANCH  32  35
ATOM     35  C   LIG    1       27.285 -29.593  13.700  0.00  0.00    +0.141 C 
BRANCH  35  36
ATOM     36  C   LIG    1       28.572 -29.583  12.862  0.00  0.00    +0.175 C 
BRANCH  36  37
ATOM     37  O   LIG    1       29.667 -29.086  13.618  0.00  0.00    -0.393 OA
ATOM     38  H   LIG    1       30.471 -29.366  13.142  0.00  0.00    +0.209 HD
ENDBRANCH  36  37
ENDBRANCH  35  36
ENDBRANCH  32  35
BRANCH  33  39
ATOM     39  C   LIG    1       27.196 -26.607  13.965  0.00  0.00    +0.252 C 
BRANCH  39  40
ATOM     40  O   LIG    1       26.938 -25.816  15.111  0.00  0.00    -0.386 OA
ATOM     41  H   LIG    1       27.563 -26.097  15.804  0.00  0.00    +0.210 HD
ENDBRANCH  39  40
ENDBRANCH  33  39
ENDBRANCH   4  32
TORSDOF 18
ENDMDL
MODEL 4
REMARK VINA RESULT:      -4.4      2.115      7.197
REMARK  Name = *****
REMARK                            x       y       z     vdW  Elec       q    Type
REMARK                         _______ _______ _______ _____ _____    ______ ____
ROOT
ATOM      1  C   LIG    1       24.915 -31.186  10.680  0.00  0.00    +0.065 A 
ATOM      2  C   LIG    1       25.464 -30.079  11.359  0.00  0.00    +0.049 A 
ATOM      3  I   LIG    1       26.717 -28.651  10.301  0.00  0.00    -0.041 I 
ATOM      4  C   LIG    1       25.091 -29.810  12.697  0.00  0.00    +0.064 A 
ATOM      5  C   LIG    1       23.956 -30.464  13.203  0.00  0.00    +0.049 A 
ATOM      6  I   LIG    1       23.566 -30.683  15.282  0.00  0.00    -0.041 I 
ATOM      7  C   LIG    1       23.147 -31.206  12.350  0.00  0.00    +0.065 A 
ATOM      8  C   LIG    1       23.762 -31.781  11.230  0.00  0.00    +0.040 A 
ATOM      9  I   LIG    1       23.240 -33.825  10.911  0.00  0.00    -0.042 I 
ENDROOT
BRANCH   1  11
ATOM     10  O   LIG    1       26.556 -32.371   9.448  0.00  0.00    -0.270 OA
ATOM     11  C   LIG    1       25.533 -31.720   9.421  0.00  0.00    +0.246 C 
ATOM     12  N   LIG    1       24.864 -31.440   8.247  0.00  0.00    -0.309 N 
ATOM     13  H   LIG    1       23.950 -31.008   8.271  0.00  0.00    +0.149 HD
BRANCH  12  14
ATOM     14  C   LIG    1       25.307 -31.903   6.945  0.00  0.00    +0.138 C 
BRANCH  14  15
ATOM     15  C   LIG    1       25.445 -30.744   5.944  0.00  0.00    +0.157 C 
BRANCH  15  16
ATOM     16  O   LIG    1       25.154 -31.203   4.615  0.00  0.00    -0.388 OA
ATOM     17  H   LIG    1       25.067 -32.176   4.688  0.00  0.00    +0.210 HD
ENDBRANCH  15  16
BRANCH  15  18
ATOM     18  C   LIG    1       24.495 -29.596   6.291  0.00  0.00    +0.188 C 
BRANCH  18  19
ATOM     19  O   LIG    1       23.214 -29.864   5.712  0.00  0.00    -0.392 OA
ATOM     20  H   LIG    1       23.329 -29.877   4.745  0.00  0.00    +0.209 HD
ENDBRANCH  18  19
ENDBRANCH  15  18
ENDBRANCH  14  15
ENDBRANCH  12  14
ENDBRANCH   1  11
BRANCH   7  21
ATOM     21  C   LIG    1       21.745 -30.648  12.083  0.00  0.00    +0.246 C 
ATOM     22  N   LIG    1       20.686 -31.486  12.433  0.00  0.00    -0.309 N 
ATOM     23  H   LIG    1       20.865 -32.412  12.788  0.00  0.00    +0.149 HD
ATOM     24  O   LIG    1       21.572 -29.521  11.684  0.00  0.00    -0.270 OA
BRANCH  22  25
ATOM     25  C   LIG    1       19.297 -31.049  12.463  0.00  0.00    +0.138 C 
BRANCH  25  26
ATOM     26  C   LIG    1       18.355 -31.940  11.620  0.00  0.00    +0.157 C 
BRANCH  26  27
ATOM     27  O   LIG    1       18.916 -33.262  11.494  0.00  0.00    -0.388 OA
ATOM     28  H   LIG    1       18.286 -33.902  11.865  0.00  0.00    +0.210 HD
ENDBRANCH  26  27
BRANCH  26  29
ATOM     29  C   LIG    1       18.144 -31.322  10.225  0.00  0.00    +0.188 C 
BRANCH  29  30
ATOM     30  O   LIG    1       19.147 -30.359   9.912  0.00  0.00    -0.392 OA
ATOM     31  H   LIG    1       19.157 -30.236   8.947  0.00  0.00    +0.209 HD
ENDBRANCH  29  30
ENDBRANCH  26  29
ENDBRANCH  25  26
ENDBRANCH  22  25
ENDBRANCH   7  21
BRANCH   4  32
ATOM     32  N   LIG    1       25.850 -28.924  13.530  0.00  0.00    -0.265 N 
ATOM     33  C   LIG    1       25.434 -27.586  13.634  0.00  0.00    +0.245 C 
ATOM     34  O   LIG    1       24.425 -27.155  13.066  0.00  0.00    -0.273 OA
BRANCH  32  35
ATOM     35  C   LIG    1       26.847 -29.568  14.414  0.00  0.00    +0.141 C 
BRANCH  35  36
ATOM     36  C   LIG    1       28.172 -29.895  13.711  0.00  0.00    +0.175 C 
BRANCH  36  37
ATOM     37  O   LIG    1       28.926 -28.714  13.474  0.00  0.00    -0.393 OA
ATOM     38  H   LIG    1       28.774 -28.139  14.247  0.00  0.00    +0.209 HD
ENDBRANCH  36  37
ENDBRANCH  35  36
ENDBRANCH  32  35
BRANCH  33  39
ATOM     39  C   LIG    1       26.353 -26.611  14.395  0.00  0.00    +0.252 C 
BRANCH  39  40
ATOM     40  O   LIG    1       27.517 -26.184  13.710  0.00  0.00    -0.386 OA
ATOM     41  H   LIG    1       27.268 -25.414  13.167  0.00  0.00    +0.210 HD
ENDBRANCH  39  40
ENDBRANCH  33  39
ENDBRANCH   4  32
TORSDOF 18
ENDMDL
MODEL 5
REMARK VINA RESULT:      -4.3      2.120      6.524
REMARK  Name = *****
REMARK                            x       y       z     vdW  Elec       q    Type
REMARK                         _______ _______ _______ _____ _____    ______ ____
ROOT
ATOM      1  C   LIG    1       24.889 -31.175  10.563  0.00  0.00    +0.065 A 
ATOM      2  C   LIG    1       23.703 -31.716  11.103  0.00  0.00    +0.049 A 
ATOM      3  I   LIG    1       23.239 -33.825  10.842  0.00  0.00    -0.041 I 
ATOM      4  C   LIG    1       22.877 -30.927  11.937  0.00  0.00    +0.064 A 
ATOM      5  C   LIG    1       23.417 -29.738  12.454  0.00  0.00    +0.049 A 
ATOM      6  I   LIG    1       22.225 -28.145  13.203  0.00  0.00    -0.041 I 
ATOM      7  C   LIG    1       24.768 -29.460  12.282  0.00  0.00    +0.065 A 
ATOM      8  C   LIG    1       25.388 -29.993  11.145  0.00  0.00    +0.040 A 
ATOM      9  I   LIG    1       26.601 -28.594  10.084  0.00  0.00    -0.042 I 
ENDROOT
BRANCH   1  11
ATOM     10  O   LIG    1       26.596 -32.489   9.575  0.00  0.00    -0.270 OA
ATOM     11  C   LIG    1       25.594 -31.825   9.409  0.00  0.00    +0.246 C 
ATOM     12  N   LIG    1       25.030 -31.634   8.163  0.00  0.00    -0.309 N 
ATOM     13  H   LIG    1       24.128 -31.185   8.075  0.00  0.00    +0.149 HD
BRANCH  12  14
ATOM     14  C   LIG    1       25.567 -32.213   6.946  0.00  0.00    +0.138 C 
BRANCH  14  15
ATOM     15  C   LIG    1       25.586 -31.198   5.792  0.00  0.00    +0.157 C 
BRANCH  15  16
ATOM     16  O   LIG    1       25.128 -31.820   4.581  0.00  0.00    -0.388 OA
ATOM     17  H   LIG    1       24.751 -31.094   4.042  0.00  0.00    +0.210 HD
ENDBRANCH  15  16
BRANCH  15  18
ATOM     18  C   LIG    1       24.693 -29.993   6.098  0.00  0.00    +0.188 C 
BRANCH  18  19
ATOM     19  O   LIG    1       23.335 -30.337   5.804  0.00  0.00    -0.392 OA
ATOM     20  H   LIG    1       23.233 -31.290   5.979  0.00  0.00    +0.209 HD
ENDBRANCH  18  19
ENDBRANCH  15  18
ENDBRANCH  14  15
ENDBRANCH  12  14
ENDBRANCH   1  11
BRANCH   7  21
ATOM     21  C   LIG    1       25.636 -29.486  13.545  0.00  0.00    +0.246 C 
ATOM     22  N   LIG    1       26.056 -28.240  14.013  0.00  0.00    -0.309 N 
ATOM     23  H   LIG    1       25.831 -27.401  13.503  0.00  0.00    +0.149 HD
ATOM     24  O   LIG    1       25.859 -30.510  14.144  0.00  0.00    -0.270 OA
BRANCH  22  25
ATOM     25  C   LIG    1       26.693 -28.046  15.309  0.00  0.00    +0.138 C 
BRANCH  25  26
ATOM     26  C   LIG    1       28.153 -27.548  15.208  0.00  0.00    +0.157 C 
BRANCH  26  27
ATOM     27  O   LIG    1       28.237 -26.473  14.250  0.00  0.00    -0.388 OA
ATOM     28  H   LIG    1       29.122 -26.484  13.850  0.00  0.00    +0.210 HD
ENDBRANCH  26  27
BRANCH  26  29
ATOM     29  C   LIG    1       29.083 -28.703  14.786  0.00  0.00    +0.188 C 
BRANCH  29  30
ATOM     30  O   LIG    1       29.068 -28.908  13.375  0.00  0.00    -0.392 OA
ATOM     31  H   LIG    1       28.162 -29.150  13.116  0.00  0.00    +0.209 HD
ENDBRANCH  29  30
ENDBRANCH  26  29
ENDBRANCH  25  26
ENDBRANCH  22  25
ENDBRANCH   7  21
BRANCH   4  32
ATOM     32  N   LIG    1       21.524 -31.298  12.232  0.00  0.00    -0.265 N 
ATOM     33  C   LIG    1       20.537 -31.043  11.267  0.00  0.00    +0.245 C 
ATOM     34  O   LIG    1       20.793 -30.546  10.165  0.00  0.00    -0.273 OA
BRANCH  32  35
ATOM     35  C   LIG    1       21.339 -32.160  13.421  0.00  0.00    +0.141 C 
BRANCH  35  36
ATOM     36  C   LIG    1       21.070 -31.375  14.713  0.00  0.00    +0.175 C 
BRANCH  36  37
ATOM     37  O   LIG    1       19.700 -31.453  15.078  0.00  0.00    -0.393 OA
ATOM     38  H   LIG    1       19.202 -31.516  14.242  0.00  0.00    +0.209 HD
ENDBRANCH  36  37
ENDBRANCH  35  36
ENDBRANCH  32  35
BRANCH  33  39
ATOM     39  C   LIG    1       19.069 -31.291  11.665  0.00  0.00    +0.252 C 
BRANCH  39  40
ATOM     40  O   LIG    1       18.488 -30.341  12.539  0.00  0.00    -0.386 OA
ATOM     41  H   LIG    1       18.646 -30.650  13.450  0.00  0.00    +0.210 HD
ENDBRANCH  39  40
ENDBRANCH  33  39
ENDBRANCH   4  32
TORSDOF 18
ENDMDL
MODEL 6
REMARK VINA RESULT:      -4.2      2.745      6.671
REMARK  Name = *****
REMARK                            x       y       z     vdW  Elec       q    Type
REMARK                         _______ _______ _______ _____ _____    ______ ____
ROOT
ATOM      1  C   LIG    1       24.352 -31.397  10.225  0.00  0.00    +0.065 A 
ATOM      2  C   LIG    1       23.233 -31.810  10.977  0.00  0.00    +0.049 A 
ATOM      3  I   LIG    1       22.328 -33.755  10.623  0.00  0.00    -0.041 I 
ATOM      4  C   LIG    1       22.776 -31.025  12.062  0.00  0.00    +0.064 A 
ATOM      5  C   LIG    1       23.633 -30.027  12.552  0.00  0.00    +0.049 A 
ATOM      6  I   LIG    1       22.961 -28.385  13.725  0.00  0.00    -0.041 I 
ATOM      7  C   LIG    1       24.942 -29.949  12.088  0.00  0.00    +0.065 A 
ATOM      8  C   LIG    1       25.183 -30.407  10.787  0.00  0.00    +0.040 A 
ATOM      9  I   LIG    1       26.379 -29.086   9.612  0.00  0.00    -0.042 I 
ENDROOT
BRANCH   1  11
ATOM     10  O   LIG    1       25.549 -32.778   8.718  0.00  0.00    -0.270 OA
ATOM     11  C   LIG    1       24.650 -31.980   8.875  0.00  0.00    +0.246 C 
ATOM     12  N   LIG    1       23.836 -31.567   7.839  0.00  0.00    -0.309 N 
ATOM     13  H   LIG    1       23.018 -31.002   8.027  0.00  0.00    +0.149 HD
BRANCH  12  14
ATOM     14  C   LIG    1       23.967 -32.051   6.478  0.00  0.00    +0.138 C 
BRANCH  14  15
ATOM     15  C   LIG    1       24.180 -30.901   5.481  0.00  0.00    +0.157 C 
BRANCH  15  16
ATOM     16  O   LIG    1       23.211 -29.866   5.707  0.00  0.00    -0.388 OA
ATOM     17  H   LIG    1       22.395 -30.330   5.985  0.00  0.00    +0.210 HD
ENDBRANCH  15  16
BRANCH  15  18
ATOM     18  C   LIG    1       25.583 -30.302   5.615  0.00  0.00    +0.188 C 
BRANCH  18  19
ATOM     19  O   LIG    1       26.447 -31.278   6.206  0.00  0.00    -0.392 OA
ATOM     20  H   LIG    1       26.191 -32.147   5.848  0.00  0.00    +0.209 HD
ENDBRANCH  18  19
ENDBRANCH  15  18
ENDBRANCH  14  15
ENDBRANCH  12  14
ENDBRANCH   1  11
BRANCH   7  21
ATOM     21  C   LIG    1       26.043 -30.297  13.095  0.00  0.00    +0.246 C 
ATOM     22  N   LIG    1       26.532 -29.227  13.846  0.00  0.00    -0.309 N 
ATOM     23  H   LIG    1       26.198 -28.292  13.679  0.00  0.00    +0.149 HD
ATOM     24  O   LIG    1       26.396 -31.435  13.287  0.00  0.00    -0.270 OA
BRANCH  22  25
ATOM     25  C   LIG    1       27.411 -29.393  14.996  0.00  0.00    +0.138 C 
BRANCH  25  26
ATOM     26  C   LIG    1       28.814 -28.776  14.791  0.00  0.00    +0.157 C 
BRANCH  26  27
ATOM     27  O   LIG    1       28.687 -27.430  14.290  0.00  0.00    -0.388 OA
ATOM     28  H   LIG    1       28.887 -26.811  15.012  0.00  0.00    +0.210 HD
ENDBRANCH  26  27
BRANCH  26  29
ATOM     29  C   LIG    1       29.634 -29.630  13.804  0.00  0.00    +0.188 C 
BRANCH  29  30
ATOM     30  O   LIG    1       29.351 -29.292  12.448  0.00  0.00    -0.392 OA
ATOM     31  H   LIG    1       29.559 -28.350  12.323  0.00  0.00    +0.209 HD
ENDBRANCH  29  30
ENDBRANCH  26  29
ENDBRANCH  25  26
ENDBRANCH  22  25
ENDBRANCH   7  21
BRANCH   4  32
ATOM     32  N   LIG    1       21.475 -31.211  12.636  0.00  0.00    -0.265 N 
ATOM     33  C   LIG    1       21.372 -31.937  13.833  0.00  0.00    +0.245 C 
ATOM     34  O   LIG    1       22.357 -32.388  14.427  0.00  0.00    -0.273 OA
BRANCH  32  35
ATOM     35  C   LIG    1       20.392 -30.390  12.050  0.00  0.00    +0.141 C 
BRANCH  35  36
ATOM     36  C   LIG    1       19.507 -31.158  11.057  0.00  0.00    +0.175 C 
BRANCH  36  37
ATOM     37  O   LIG    1       19.236 -30.373   9.905  0.00  0.00    -0.393 OA
ATOM     38  H   LIG    1       18.503 -30.819   9.442  0.00  0.00    +0.209 HD
ENDBRANCH  36  37
ENDBRANCH  35  36
ENDBRANCH  32  35
BRANCH  33  39
ATOM     39  C   LIG    1       19.957 -32.271  14.344  0.00  0.00    +0.252 C 
BRANCH  39  40
ATOM     40  O   LIG    1       19.389 -33.478  13.869  0.00  0.00    -0.386 OA
ATOM     41  H   LIG    1       18.553 -33.614  14.351  0.00  0.00    +0.210 HD
ENDBRANCH  39  40
ENDBRANCH  33  39
ENDBRANCH   4  32
TORSDOF 18
ENDMDL
MODEL 7
REMARK VINA RESULT:      -4.2      3.475      7.739
REMARK  Name = *****
REMARK                            x       y       z     vdW  Elec       q    Type
REMARK                         _______ _______ _______ _____ _____    ______ ____
ROOT
ATOM      1  C   LIG    1       23.686 -30.102  10.703  0.00  0.00    +0.065 A 
ATOM      2  C   LIG    1       24.823 -29.707  11.438  0.00  0.00    +0.049 A 
ATOM      3  I   LIG    1       26.576 -28.927  10.416  0.00  0.00    -0.041 I 
ATOM      4  C   LIG    1       24.781 -29.681  12.852  0.00  0.00    +0.064 A 
ATOM      5  C   LIG    1       23.522 -29.747  13.470  0.00  0.00    +0.049 A 
ATOM      6  I   LIG    1       23.247 -30.316  15.500  0.00  0.00    -0.041 I 
ATOM      7  C   LIG    1       22.368 -29.663  12.699  0.00  0.00    +0.065 A 
ATOM      8  C   LIG    1       22.450 -30.124  11.379  0.00  0.00    +0.040 A 
ATOM      9  I   LIG    1       20.828 -31.385  10.800  0.00  0.00    -0.042 I 
ENDROOT
BRANCH   1  11
ATOM     10  O   LIG    1       23.598 -29.682   8.372  0.00  0.00    -0.270 OA
ATOM     11  C   LIG    1       23.782 -30.492   9.257  0.00  0.00    +0.246 C 
ATOM     12  N   LIG    1       24.104 -31.809   9.000  0.00  0.00    -0.309 N 
ATOM     13  H   LIG    1       24.377 -32.424   9.755  0.00  0.00    +0.149 HD
BRANCH  12  14
ATOM     14  C   LIG    1       24.264 -32.346   7.662  0.00  0.00    +0.138 C 
BRANCH  14  15
ATOM     15  C   LIG    1       25.740 -32.372   7.230  0.00  0.00    +0.157 C 
BRANCH  15  16
ATOM     16  O   LIG    1       26.240 -31.032   7.102  0.00  0.00    -0.388 OA
ATOM     17  H   LIG    1       25.685 -30.612   6.414  0.00  0.00    +0.210 HD
ENDBRANCH  15  16
BRANCH  15  18
ATOM     18  C   LIG    1       26.601 -33.127   8.246  0.00  0.00    +0.188 C 
BRANCH  18  19
ATOM     19  O   LIG    1       27.906 -33.323   7.692  0.00  0.00    -0.392 OA
ATOM     20  H   LIG    1       28.354 -33.997   8.234  0.00  0.00    +0.209 HD
ENDBRANCH  18  19
ENDBRANCH  15  18
ENDBRANCH  14  15
ENDBRANCH  12  14
ENDBRANCH   1  11
BRANCH   7  21
ATOM     21  C   LIG    1       21.521 -28.398  12.875  0.00  0.00    +0.246 C 
ATOM     22  N   LIG    1       20.235 -28.599  13.376  0.00  0.00    -0.309 N 
ATOM     23  H   LIG    1       19.896 -29.531  13.553  0.00  0.00    +0.149 HD
ATOM     24  O   LIG    1       21.974 -27.296  12.680  0.00  0.00    -0.270 OA
BRANCH  22  25
ATOM     25  C   LIG    1       19.370 -27.513  13.818  0.00  0.00    +0.138 C 
BRANCH  25  26
ATOM     26  C   LIG    1       18.138 -27.995  14.616  0.00  0.00    +0.157 C 
BRANCH  26  27
ATOM     27  O   LIG    1       17.329 -28.859  13.792  0.00  0.00    -0.388 OA
ATOM     28  H   LIG    1       16.456 -28.448  13.677  0.00  0.00    +0.210 HD
ENDBRANCH  26  27
BRANCH  26  29
ATOM     29  C   LIG    1       17.304 -26.789  15.091  0.00  0.00    +0.188 C 
BRANCH  29  30
ATOM     30  O   LIG    1       17.459 -25.663  14.229  0.00  0.00    -0.392 OA
ATOM     31  H   LIG    1       17.617 -25.995  13.328  0.00  0.00    +0.209 HD
ENDBRANCH  29  30
ENDBRANCH  26  29
ENDBRANCH  25  26
ENDBRANCH  22  25
ENDBRANCH   7  21
BRANCH   4  32
ATOM     32  N   LIG    1       25.975 -29.618  13.643  0.00  0.00    -0.265 N 
ATOM     33  C   LIG    1       26.692 -30.805  13.865  0.00  0.00    +0.245 C 
ATOM     34  O   LIG    1       26.355 -31.889  13.377  0.00  0.00    -0.273 OA
BRANCH  32  35
ATOM     35  C   LIG    1       26.485 -28.258  13.930  0.00  0.00    +0.141 C 
BRANCH  35  36
ATOM     36  C   LIG    1       25.391 -27.268  14.356  0.00  0.00    +0.175 C 
BRANCH  36  37
ATOM     37  O   LIG    1       24.975 -26.468  13.258  0.00  0.00    -0.393 OA
ATOM     38  H   LIG    1       25.280 -25.563  13.455  0.00  0.00    +0.209 HD
ENDBRANCH  36  37
ENDBRANCH  35  36
ENDBRANCH  32  35
BRANCH  33  39
ATOM     39  C   LIG    1       27.874 -30.750  14.853  0.00  0.00    +0.252 C 
BRANCH  39  40
ATOM     40  O   LIG    1       29.155 -30.556  14.284  0.00  0.00    -0.386 OA
ATOM     41  H   LIG    1       29.471 -31.425  13.977  0.00  0.00    +0.210 HD
ENDBRANCH  39  40
ENDBRANCH  33  39
ENDBRANCH   4  32
TORSDOF 18
ENDMDL
MODEL 8
REMARK VINA RESULT:      -4.1      2.413      6.840
REMARK  Name = *****
REMARK                            x       y       z     vdW  Elec       q    Type
REMARK                         _______ _______ _______ _____ _____    ______ ____
ROOT
ATOM      1  C   LIG    1       25.828 -30.872  11.052  0.00  0.00    +0.065 A 
ATOM      2  C   LIG    1       26.355 -29.978  12.007  0.00  0.00    +0.049 A 
ATOM      3  I   LIG    1       26.742 -27.905  11.477  0.00  0.00    -0.041 I 
ATOM      4  C   LIG    1       26.505 -30.384  13.353  0.00  0.00    +0.064 A 
ATOM      5  C   LIG    1       25.838 -31.550  13.763  0.00  0.00    +0.049 A 
ATOM      6  I   LIG    1       26.375 -32.654  15.499  0.00  0.00    -0.041 I 
ATOM      7  C   LIG    1       24.931 -32.164  12.906  0.00  0.00    +0.065 A 
ATOM      8  C   LIG    1       25.149 -32.010  11.531  0.00  0.00    +0.040 A 
ATOM      9  I   LIG    1       24.989 -33.824  10.420  0.00  0.00    -0.042 I 
ENDROOT
BRANCH   1  11
ATOM     10  O   LIG    1       27.071 -30.681   9.044  0.00  0.00    -0.270 OA
ATOM     11  C   LIG    1       25.983 -30.630   9.579  0.00  0.00    +0.246 C 
ATOM     12  N   LIG    1       24.825 -30.363   8.879  0.00  0.00    -0.309 N 
ATOM     13  H   LIG    1       23.923 -30.454   9.329  0.00  0.00    +0.149 HD
BRANCH  12  14
ATOM     14  C   LIG    1       24.792 -30.133   7.446  0.00  0.00    +0.138 C 
BRANCH  14  15
ATOM     15  C   LIG    1       24.766 -28.633   7.110  0.00  0.00    +0.157 C 
BRANCH  15  16
ATOM     16  O   LIG    1       26.077 -28.069   7.271  0.00  0.00    -0.388 OA
ATOM     17  H   LIG    1       25.963 -27.105   7.143  0.00  0.00    +0.210 HD
ENDBRANCH  15  16
BRANCH  15  18
ATOM     18  C   LIG    1       24.299 -28.396   5.672  0.00  0.00    +0.188 C 
BRANCH  18  19
ATOM     19  O   LIG    1       23.263 -29.332   5.361  0.00  0.00    -0.392 OA
ATOM     20  H   LIG    1       22.692 -28.921   4.688  0.00  0.00    +0.209 HD
ENDBRANCH  18  19
ENDBRANCH  15  18
ENDBRANCH  14  15
ENDBRANCH  12  14
ENDBRANCH   1  11
BRANCH   7  21
ATOM     21  C   LIG    1       23.457 -32.110  13.322  0.00  0.00    +0.246 C 
ATOM     22  N   LIG    1       22.740 -31.007  12.857  0.00  0.00    -0.309 N 
ATOM     23  H   LIG    1       23.202 -30.285  12.328  0.00  0.00    +0.149 HD
ATOM     24  O   LIG    1       22.933 -33.010  13.932  0.00  0.00    -0.270 OA
BRANCH  22  25
ATOM     25  C   LIG    1       21.291 -30.894  12.958  0.00  0.00    +0.138 C 
BRANCH  25  26
ATOM     26  C   LIG    1       20.611 -30.497  11.628  0.00  0.00    +0.157 C 
BRANCH  26  27
ATOM     27  O   LIG    1       19.180 -30.620  11.754  0.00  0.00    -0.388 OA
ATOM     28  H   LIG    1       18.833 -31.036  10.948  0.00  0.00    +0.210 HD
ENDBRANCH  26  27
BRANCH  26  29
ATOM     29  C   LIG    1       21.118 -31.392  10.481  0.00  0.00    +0.188 C 
BRANCH  29  30
ATOM     30  O   LIG    1       22.105 -30.734   9.689  0.00  0.00    -0.392 OA
ATOM     31  H   LIG    1       22.708 -31.412   9.336  0.00  0.00    +0.209 HD
ENDBRANCH  29  30
ENDBRANCH  26  29
ENDBRANCH  25  26
ENDBRANCH  22  25
ENDBRANCH   7  21
BRANCH   4  32
ATOM     32  N   LIG    1       27.329 -29.658  14.275  0.00  0.00    -0.265 N 
ATOM     33  C   LIG    1       28.716 -29.634  14.055  0.00  0.00    +0.245 C 
ATOM     34  O   LIG    1       29.246 -30.180  13.082  0.00  0.00    -0.273 OA
BRANCH  32  35
ATOM     35  C   LIG    1       26.610 -28.781  15.226  0.00  0.00    +0.141 C 
BRANCH  35  36
ATOM     36  C   LIG    1       25.160 -28.487  14.816  0.00  0.00    +0.175 C 
BRANCH  36  37
ATOM     37  O   LIG    1       24.916 -27.088  14.777  0.00  0.00    -0.393 OA
ATOM     38  H   LIG    1       25.041 -26.769  15.690  0.00  0.00    +0.209 HD
ENDBRANCH  36  37
ENDBRANCH  35  36
ENDBRANCH  32  35
BRANCH  33  39
ATOM     39  C   LIG    1       29.600 -28.995  15.143  0.00  0.00    +0.252 C 
BRANCH  39  40
ATOM     40  O   LIG    1       30.069 -27.686  14.879  0.00  0.00    -0.386 OA
ATOM     41  H   LIG    1       29.578 -27.352  14.106  0.00  0.00    +0.210 HD
ENDBRANCH  39  40
ENDBRANCH  33  39
ENDBRANCH   4  32
TORSDOF 18
ENDMDL
MODEL 9
REMARK VINA RESULT:      -4.0      1.665      2.166
REMARK  Name = *****
REMARK                            x       y       z     vdW  Elec       q    Type
REMARK                         _______ _______ _______ _____ _____    ______ ____
ROOT
ATOM      1  C   LIG    1       24.548 -29.264  11.973  0.00  0.00    +0.065 A 
ATOM      2  C   LIG    1       23.211 -29.661  12.176  0.00  0.00    +0.049 A 
ATOM      3  I   LIG    1       21.869 -28.436  13.370  0.00  0.00    -0.041 I 
ATOM      4  C   LIG    1       22.691 -30.785  11.491  0.00  0.00    +0.064 A 
ATOM      5  C   LIG    1       23.423 -31.280  10.399  0.00  0.00    +0.049 A 
ATOM      6  I   LIG    1       23.174 -33.243   9.622  0.00  0.00    -0.041 I 
ATOM      7  C   LIG    1       24.518 -30.569   9.921  0.00  0.00    +0.065 A 
ATOM      8  C   LIG    1       25.216 -29.780  10.844  0.00  0.00    +0.040 A 
ATOM      9  I   LIG    1       27.336 -30.003  10.746  0.00  0.00    -0.042 I 
ENDROOT
BRANCH   1  11
ATOM     10  O   LIG    1       25.622 -28.707  14.011  0.00  0.00    -0.270 OA
ATOM     11  C   LIG    1       25.243 -28.331  12.921  0.00  0.00    +0.246 C 
ATOM     12  N   LIG    1       25.435 -27.039  12.475  0.00  0.00    -0.309 N 
ATOM     13  H   LIG    1       25.224 -26.793  11.517  0.00  0.00    +0.149 HD
BRANCH  12  14
ATOM     14  C   LIG    1       26.112 -26.018  13.252  0.00  0.00    +0.138 C 
BRANCH  14  15
ATOM     15  C   LIG    1       25.140 -24.932  13.739  0.00  0.00    +0.157 C 
BRANCH  15  16
ATOM     16  O   LIG    1       23.999 -25.537  14.367  0.00  0.00    -0.388 OA
ATOM     17  H   LIG    1       23.999 -25.201  15.287  0.00  0.00    +0.210 HD
ENDBRANCH  15  16
BRANCH  15  18
ATOM     18  C   LIG    1       25.814 -23.991  14.740  0.00  0.00    +0.188 C 
BRANCH  18  19
ATOM     19  O   LIG    1       25.472 -22.642  14.410  0.00  0.00    -0.392 OA
ATOM     20  H   LIG    1       26.276 -22.214  14.065  0.00  0.00    +0.209 HD
ENDBRANCH  18  19
ENDBRANCH  15  18
ENDBRANCH  14  15
ENDBRANCH  12  14
ENDBRANCH   1  11
BRANCH   7  21
ATOM     21  C   LIG    1       24.368 -29.936   8.534  0.00  0.00    +0.246 C 
ATOM     22  N   LIG    1       25.316 -28.964   8.210  0.00  0.00    -0.309 N 
ATOM     23  H   LIG    1       26.010 -28.684   8.884  0.00  0.00    +0.149 HD
ATOM     24  O   LIG    1       23.540 -30.320   7.744  0.00  0.00    -0.270 OA
BRANCH  22  25
ATOM     25  C   LIG    1       25.471 -28.415   6.869  0.00  0.00    +0.138 C 
BRANCH  25  26
ATOM     26  C   LIG    1       24.161 -27.836   6.288  0.00  0.00    +0.157 C 
BRANCH  26  27
ATOM     27  O   LIG    1       23.690 -28.675   5.213  0.00  0.00    -0.388 OA
ATOM     28  H   LIG    1       24.319 -29.405   5.093  0.00  0.00    +0.210 HD
ENDBRANCH  26  27
BRANCH  26  29
ATOM     29  C   LIG    1       24.394 -26.402   5.773  0.00  0.00    +0.188 C 
BRANCH  29  30
ATOM     30  O   LIG    1       25.234 -25.654   6.649  0.00  0.00    -0.392 OA
ATOM     31  H   LIG    1       25.246 -24.731   6.339  0.00  0.00    +0.209 HD
ENDBRANCH  29  30
ENDBRANCH  26  29
ENDBRANCH  25  26
ENDBRANCH  22  25
ENDBRANCH   7  21
BRANCH   4  32
ATOM     32  N   LIG    1       21.476 -31.426  11.901  0.00  0.00    -0.265 N 
ATOM     33  C   LIG    1       20.299 -31.140  11.190  0.00  0.00    +0.245 C 
ATOM     34  O   LIG    1       20.278 -30.391  10.208  0.00  0.00    -0.273 OA
BRANCH  32  35
ATOM     35  C   LIG    1       21.629 -32.534  12.870  0.00  0.00    +0.141 C 
BRANCH  35  36
ATOM     36  C   LIG    1       21.481 -32.095  14.334  0.00  0.00    +0.175 C 
BRANCH  36  37
ATOM     37  O   LIG    1       22.752 -31.900  14.937  0.00  0.00    -0.393 OA
ATOM     38  H   LIG    1       23.139 -32.789  15.041  0.00  0.00    +0.209 HD
ENDBRANCH  36  37
ENDBRANCH  35  36
ENDBRANCH  32  35
BRANCH  33  39
ATOM     39  C   LIG    1       18.976 -31.703  11.745  0.00  0.00    +0.252 C 
BRANCH  39  40
ATOM     40  O   LIG    1       18.393 -30.986  12.817  0.00  0.00    -0.386 OA
ATOM     41  H   LIG    1       18.529 -30.037  12.640  0.00  0.00    +0.210 HD
ENDBRANCH  39  40
ENDBRANCH  33  39
ENDBRANCH   4  32
TORSDOF 18
ENDMDL
