MODEL 1
REMARK VINA RESULT:      -8.7      0.000      0.000
REMARK  Name = *****
REMARK                            x       y       z     vdW  Elec       q    Type
REMARK                         _______ _______ _______ _____ _____    ______ ____
ROOT
ATOM      1  C   LIG    1       25.737 -21.456   6.499  0.00  0.00    +0.205 C 
ENDROOT
BRANCH   1   2
ATOM      2  C   LIG    1       24.764 -20.581   5.706  0.00  0.00    -0.007 A 
ATOM      3  C   LIG    1       23.439 -20.348   6.099  0.00  0.00    +0.007 A 
ATOM      4  C   LIG    1       22.578 -19.592   5.289  0.00  0.00    +0.000 A 
ATOM      5  C   LIG    1       23.029 -19.056   4.086  0.00  0.00    +0.000 A 
ATOM      6  C   LIG    1       24.342 -19.274   3.682  0.00  0.00    +0.000 A 
ATOM      7  C   LIG    1       25.197 -20.031   4.483  0.00  0.00    +0.007 A 
ENDBRANCH   1   2
BRANCH   1   8
ATOM      8  C   LIG    1       26.741 -20.624   7.326  0.00  0.00    +0.064 C 
BRANCH   8   9
ATOM      9  C   LIG    1       28.097 -21.295   7.571  0.00  0.00    +0.084 C 
BRANCH   9  11
ATOM     10  C   LIG    1       28.908 -19.583   6.062  0.00  0.00    +0.101 C 
ATOM     11  N   LIG    1       28.967 -20.991   6.427  0.00  0.00    -0.319 NA
ATOM     12  H   LIG    1       29.930 -21.237   6.658  0.00  0.00    +0.122 HD
ENDBRANCH   9  11
ENDBRANCH   8   9
ENDBRANCH   1   8
BRANCH   1  13
ATOM     13  O   LIG    1       25.074 -22.447   7.315  0.00  0.00    -0.484 OA
BRANCH  13  14
ATOM     14  C   LIG    1       25.071 -23.746   6.852  0.00  0.00    +0.124 A 
ATOM     15  C   LIG    1       23.819 -24.339   6.590  0.00  0.00    -0.009 A 
ATOM     16  C   LIG    1       22.541 -23.553   6.680  0.00  0.00    +0.048 C 
ATOM     17  C   LIG    1       23.758 -25.684   6.182  0.00  0.00    +0.007 A 
ATOM     18  C   LIG    1       24.920 -26.432   6.008  0.00  0.00    +0.001 A 
ATOM     19  C   LIG    1       26.156 -25.829   6.196  0.00  0.00    +0.004 A 
ATOM     20  C   LIG    1       26.230 -24.495   6.606  0.00  0.00    +0.046 A 
ENDBRANCH  13  14
ENDBRANCH   1  13
TORSDOF 6
ENDMDL
MODEL 2
REMARK VINA RESULT:      -8.7      0.068      1.106
REMARK  Name = *****
REMARK                            x       y       z     vdW  Elec       q    Type
REMARK                         _______ _______ _______ _____ _____    ______ ____
ROOT
ATOM      1  C   LIG    1       25.747 -21.463   6.437  0.00  0.00    +0.205 C 
ENDROOT
BRANCH   1   2
ATOM      2  C   LIG    1       24.798 -20.626   5.576  0.00  0.00    -0.007 A 
ATOM      3  C   LIG    1       25.176 -20.038   4.362  0.00  0.00    +0.007 A 
ATOM      4  C   LIG    1       24.277 -19.225   3.655  0.00  0.00    +0.000 A 
ATOM      5  C   LIG    1       22.995 -18.995   4.146  0.00  0.00    +0.000 A 
ATOM      6  C   LIG    1       22.603 -19.574   5.348  0.00  0.00    +0.000 A 
ATOM      7  C   LIG    1       23.496 -20.379   6.055  0.00  0.00    +0.007 A 
ENDBRANCH   1   2
BRANCH   1   8
ATOM      8  C   LIG    1       26.707 -20.593   7.278  0.00  0.00    +0.064 C 
BRANCH   8   9
ATOM      9  C   LIG    1       28.069 -21.229   7.578  0.00  0.00    +0.084 C 
BRANCH   9  11
ATOM     10  C   LIG    1       28.920 -19.564   6.039  0.00  0.00    +0.101 C 
ATOM     11  N   LIG    1       28.955 -20.963   6.437  0.00  0.00    -0.319 NA
ATOM     12  H   LIG    1       29.912 -21.218   6.684  0.00  0.00    +0.122 HD
ENDBRANCH   9  11
ENDBRANCH   8   9
ENDBRANCH   1   8
BRANCH   1  13
ATOM     13  O   LIG    1       25.062 -22.436   7.256  0.00  0.00    -0.484 OA
BRANCH  13  14
ATOM     14  C   LIG    1       25.072 -23.745   6.822  0.00  0.00    +0.124 A 
ATOM     15  C   LIG    1       23.825 -24.359   6.584  0.00  0.00    -0.009 A 
ATOM     16  C   LIG    1       22.538 -23.588   6.667  0.00  0.00    +0.048 C 
ATOM     17  C   LIG    1       23.778 -25.713   6.207  0.00  0.00    +0.007 A 
ATOM     18  C   LIG    1       24.947 -26.451   6.040  0.00  0.00    +0.001 A 
ATOM     19  C   LIG    1       26.178 -25.828   6.204  0.00  0.00    +0.004 A 
ATOM     20  C   LIG    1       26.238 -24.485   6.584  0.00  0.00    +0.046 A 
ENDBRANCH  13  14
ENDBRANCH   1  13
TORSDOF 6
ENDMDL
MODEL 3
REMARK VINA RESULT:      -8.1      1.038      5.194
REMARK  Name = *****
REMARK                            x       y       z     vdW  Elec       q    Type
REMARK                         _______ _______ _______ _____ _____    ______ ____
ROOT
ATOM      1  C   LIG    1       24.831 -22.097   7.214  0.00  0.00    +0.205 C 
ENDROOT
BRANCH   1   2
ATOM      2  C   LIG    1       24.890 -23.592   6.890  0.00  0.00    -0.007 A 
ATOM      3  C   LIG    1       26.080 -24.330   6.868  0.00  0.00    +0.007 A 
ATOM      4  C   LIG    1       26.073 -25.683   6.495  0.00  0.00    +0.000 A 
ATOM      5  C   LIG    1       24.882 -26.313   6.148  0.00  0.00    +0.000 A 
ATOM      6  C   LIG    1       23.690 -25.597   6.168  0.00  0.00    +0.000 A 
ATOM      7  C   LIG    1       23.696 -24.251   6.533  0.00  0.00    +0.007 A 
ENDBRANCH   1   2
BRANCH   1   8
ATOM      8  C   LIG    1       25.541 -21.751   8.541  0.00  0.00    +0.064 C 
BRANCH   8   9
ATOM      9  C   LIG    1       26.467 -20.531   8.485  0.00  0.00    +0.084 C 
BRANCH   9  11
ATOM     10  C   LIG    1       28.550 -20.040   7.353  0.00  0.00    +0.101 C 
ATOM     11  N   LIG    1       27.821 -21.003   8.162  0.00  0.00    -0.319 NA
ATOM     12  H   LIG    1       28.335 -21.174   9.026  0.00  0.00    +0.122 HD
ENDBRANCH   9  11
ENDBRANCH   8   9
ENDBRANCH   1   8
BRANCH   1  13
ATOM     13  O   LIG    1       25.298 -21.263   6.132  0.00  0.00    -0.484 OA
BRANCH  13  14
ATOM     14  C   LIG    1       24.352 -20.526   5.450  0.00  0.00    +0.124 A 
ATOM     15  C   LIG    1       24.815 -19.619   4.475  0.00  0.00    -0.009 A 
ATOM     16  C   LIG    1       26.267 -19.547   4.092  0.00  0.00    +0.048 C 
ATOM     17  C   LIG    1       23.897 -18.795   3.799  0.00  0.00    +0.007 A 
ATOM     18  C   LIG    1       22.532 -18.880   4.061  0.00  0.00    +0.001 A 
ATOM     19  C   LIG    1       22.068 -19.822   4.969  0.00  0.00    +0.004 A 
ATOM     20  C   LIG    1       22.970 -20.643   5.651  0.00  0.00    +0.046 A 
ENDBRANCH  13  14
ENDBRANCH   1  13
TORSDOF 6
ENDMDL
MODEL 4
REMARK VINA RESULT:      -8.0      1.754      3.777
REMARK  Name = *****
REMARK                            x       y       z     vdW  Elec       q    Type
REMARK                         _______ _______ _______ _____ _____    ______ ____
ROOT
ATOM      1  C   LIG    1       25.068 -20.809   6.403  0.00  0.00    +0.205 C 
ENDROOT
BRANCH   1   2
ATOM      2  C   LIG    1       26.526 -20.420   6.654  0.00  0.00    -0.007 A 
ATOM      3  C   LIG    1       27.115 -20.415   7.926  0.00  0.00    +0.007 A 
ATOM      4  C   LIG    1       28.439 -19.981   8.096  0.00  0.00    +0.000 A 
ATOM      5  C   LIG    1       29.188 -19.556   7.003  0.00  0.00    +0.000 A 
ATOM      6  C   LIG    1       28.621 -19.559   5.733  0.00  0.00    +0.000 A 
ATOM      7  C   LIG    1       27.304 -19.985   5.563  0.00  0.00    +0.007 A 
ENDBRANCH   1   2
BRANCH   1   8
ATOM      8  C   LIG    1       24.804 -21.202   4.933  0.00  0.00    +0.064 C 
BRANCH   8   9
ATOM      9  C   LIG    1       23.414 -20.837   4.400  0.00  0.00    +0.084 C 
BRANCH   9  11
ATOM     10  C   LIG    1       22.307 -18.709   4.732  0.00  0.00    +0.101 C 
ATOM     11  N   LIG    1       22.781 -19.929   5.367  0.00  0.00    -0.319 NA
ATOM     12  H   LIG    1       21.995 -20.403   5.813  0.00  0.00    +0.122 HD
ENDBRANCH   9  11
ENDBRANCH   8   9
ENDBRANCH   1   8
BRANCH   1  13
ATOM     13  O   LIG    1       24.585 -21.820   7.314  0.00  0.00    -0.484 OA
BRANCH  13  14
ATOM     14  C   LIG    1       24.762 -23.138   6.947  0.00  0.00    +0.124 A 
ATOM     15  C   LIG    1       23.606 -23.903   6.694  0.00  0.00    -0.009 A 
ATOM     16  C   LIG    1       22.236 -23.284   6.691  0.00  0.00    +0.048 C 
ATOM     17  C   LIG    1       23.730 -25.270   6.384  0.00  0.00    +0.007 A 
ATOM     18  C   LIG    1       24.983 -25.873   6.297  0.00  0.00    +0.001 A 
ATOM     19  C   LIG    1       26.125 -25.104   6.475  0.00  0.00    +0.004 A 
ATOM     20  C   LIG    1       26.015 -23.747   6.790  0.00  0.00    +0.046 A 
ENDBRANCH  13  14
ENDBRANCH   1  13
TORSDOF 6
ENDMDL
MODEL 5
REMARK VINA RESULT:      -7.8      1.923      5.120
REMARK  Name = *****
REMARK                            x       y       z     vdW  Elec       q    Type
REMARK                         _______ _______ _______ _____ _____    ______ ____
ROOT
ATOM      1  C   LIG    1       26.371 -21.149   7.063  0.00  0.00    +0.205 C 
ENDROOT
BRANCH   1   2
ATOM      2  C   LIG    1       25.187 -20.633   6.242  0.00  0.00    -0.007 A 
ATOM      3  C   LIG    1       23.878 -20.563   6.737  0.00  0.00    +0.007 A 
ATOM      4  C   LIG    1       22.825 -20.144   5.910  0.00  0.00    +0.000 A 
ATOM      5  C   LIG    1       23.066 -19.785   4.587  0.00  0.00    +0.000 A 
ATOM      6  C   LIG    1       24.360 -19.844   4.080  0.00  0.00    +0.000 A 
ATOM      7  C   LIG    1       25.407 -20.266   4.900  0.00  0.00    +0.007 A 
ENDBRANCH   1   2
BRANCH   1   8
ATOM      8  C   LIG    1       26.065 -22.489   7.765  0.00  0.00    +0.064 C 
BRANCH   8   9
ATOM      9  C   LIG    1       25.905 -23.693   6.830  0.00  0.00    +0.084 C 
BRANCH   9  11
ATOM     10  C   LIG    1       24.274 -25.336   6.120  0.00  0.00    +0.101 C 
ATOM     11  N   LIG    1       24.489 -24.087   6.833  0.00  0.00    -0.319 NA
ATOM     12  H   LIG    1       24.168 -24.190   7.796  0.00  0.00    +0.122 HD
ENDBRANCH   9  11
ENDBRANCH   8   9
ENDBRANCH   1   8
BRANCH   1  13
ATOM     13  O   LIG    1       27.599 -21.218   6.306  0.00  0.00    -0.484 OA
BRANCH  13  14
ATOM     14  C   LIG    1       28.744 -20.751   6.917  0.00  0.00    +0.124 A 
ATOM     15  C   LIG    1       29.304 -19.557   6.420  0.00  0.00    -0.009 A 
ATOM     16  C   LIG    1       28.617 -18.746   5.357  0.00  0.00    +0.048 C 
ATOM     17  C   LIG    1       30.510 -19.075   6.963  0.00  0.00    +0.007 A 
ATOM     18  C   LIG    1       31.145 -19.748   8.004  0.00  0.00    +0.001 A 
ATOM     19  C   LIG    1       30.557 -20.885   8.543  0.00  0.00    +0.004 A 
ATOM     20  C   LIG    1       29.363 -21.376   8.009  0.00  0.00    +0.046 A 
ENDBRANCH  13  14
ENDBRANCH   1  13
TORSDOF 6
ENDMDL
MODEL 6
REMARK VINA RESULT:      -7.7      1.709      5.228
REMARK  Name = *****
REMARK                            x       y       z     vdW  Elec       q    Type
REMARK                         _______ _______ _______ _____ _____    ______ ____
ROOT
ATOM      1  C   LIG    1       27.024 -21.316   6.872  0.00  0.00    +0.205 C 
ENDROOT
BRANCH   1   2
ATOM      2  C   LIG    1       28.442 -20.766   7.042  0.00  0.00    -0.007 A 
ATOM      3  C   LIG    1       29.353 -21.259   7.986  0.00  0.00    +0.007 A 
ATOM      4  C   LIG    1       30.615 -20.664   8.137  0.00  0.00    +0.000 A 
ATOM      5  C   LIG    1       30.982 -19.578   7.347  0.00  0.00    +0.000 A 
ATOM      6  C   LIG    1       30.092 -19.078   6.403  0.00  0.00    +0.000 A 
ATOM      7  C   LIG    1       28.836 -19.665   6.255  0.00  0.00    +0.007 A 
ENDBRANCH   1   2
BRANCH   1   8
ATOM      8  C   LIG    1       26.681 -22.399   7.917  0.00  0.00    +0.064 C 
BRANCH   8   9
ATOM      9  C   LIG    1       25.871 -23.586   7.383  0.00  0.00    +0.084 C 
BRANCH   9  11
ATOM     10  C   LIG    1       25.031 -24.547   5.325  0.00  0.00    +0.101 C 
ATOM     11  N   LIG    1       25.834 -23.488   5.918  0.00  0.00    -0.319 NA
ATOM     12  H   LIG    1       25.447 -22.583   5.648  0.00  0.00    +0.122 HD
ENDBRANCH   9  11
ENDBRANCH   8   9
ENDBRANCH   1   8
BRANCH   1  13
ATOM     13  O   LIG    1       26.016 -20.284   6.830  0.00  0.00    -0.484 OA
BRANCH  13  14
ATOM     14  C   LIG    1       25.197 -20.245   5.720  0.00  0.00    +0.124 A 
ATOM     15  C   LIG    1       23.844 -20.597   5.899  0.00  0.00    -0.009 A 
ATOM     16  C   LIG    1       23.275 -20.877   7.262  0.00  0.00    +0.048 C 
ATOM     17  C   LIG    1       22.984 -20.640   4.786  0.00  0.00    +0.007 A 
ATOM     18  C   LIG    1       23.444 -20.313   3.513  0.00  0.00    +0.001 A 
ATOM     19  C   LIG    1       24.758 -19.896   3.348  0.00  0.00    +0.004 A 
ATOM     20  C   LIG    1       25.624 -19.855   4.444  0.00  0.00    +0.046 A 
ENDBRANCH  13  14
ENDBRANCH   1  13
TORSDOF 6
ENDMDL
MODEL 7
REMARK VINA RESULT:      -7.7      1.772      4.832
REMARK  Name = *****
REMARK                            x       y       z     vdW  Elec       q    Type
REMARK                         _______ _______ _______ _____ _____    ______ ____
ROOT
ATOM      1  C   LIG    1       24.712 -21.009   5.182  0.00  0.00    +0.205 C 
ENDROOT
BRANCH   1   2
ATOM      2  C   LIG    1       24.325 -22.428   5.605  0.00  0.00    -0.007 A 
ATOM      3  C   LIG    1       23.203 -22.720   6.391  0.00  0.00    +0.007 A 
ATOM      4  C   LIG    1       22.943 -24.036   6.802  0.00  0.00    +0.000 A 
ATOM      5  C   LIG    1       23.793 -25.073   6.428  0.00  0.00    +0.000 A 
ATOM      6  C   LIG    1       24.909 -24.802   5.644  0.00  0.00    +0.000 A 
ATOM      7  C   LIG    1       25.172 -23.493   5.240  0.00  0.00    +0.007 A 
ENDBRANCH   1   2
BRANCH   1   8
ATOM      8  C   LIG    1       23.558 -20.267   4.473  0.00  0.00    +0.064 C 
BRANCH   8   9
ATOM      9  C   LIG    1       23.939 -18.926   3.837  0.00  0.00    +0.084 C 
BRANCH   9  11
ATOM     10  C   LIG    1       25.932 -17.667   3.283  0.00  0.00    +0.101 C 
ATOM     11  N   LIG    1       25.356 -18.992   3.453  0.00  0.00    -0.319 NA
ATOM     12  H   LIG    1       25.878 -19.495   4.170  0.00  0.00    +0.122 HD
ENDBRANCH   9  11
ENDBRANCH   8   9
ENDBRANCH   1   8
BRANCH   1  13
ATOM     13  O   LIG    1       25.259 -20.223   6.263  0.00  0.00    -0.484 OA
BRANCH  13  14
ATOM     14  C   LIG    1       26.589 -20.418   6.575  0.00  0.00    +0.124 A 
ATOM     15  C   LIG    1       26.882 -21.061   7.795  0.00  0.00    -0.009 A 
ATOM     16  C   LIG    1       25.798 -21.634   8.664  0.00  0.00    +0.048 C 
ATOM     17  C   LIG    1       28.222 -21.222   8.192  0.00  0.00    +0.007 A 
ATOM     18  C   LIG    1       29.266 -20.778   7.383  0.00  0.00    +0.001 A 
ATOM     19  C   LIG    1       28.980 -20.210   6.149  0.00  0.00    +0.004 A 
ATOM     20  C   LIG    1       27.653 -20.039   5.746  0.00  0.00    +0.046 A 
ENDBRANCH  13  14
ENDBRANCH   1  13
TORSDOF 6
ENDMDL
MODEL 8
REMARK VINA RESULT:      -7.5      2.069      5.341
REMARK  Name = *****
REMARK                            x       y       z     vdW  Elec       q    Type
REMARK                         _______ _______ _______ _____ _____    ______ ____
ROOT
ATOM      1  C   LIG    1       25.213 -21.218   4.957  0.00  0.00    +0.205 C 
ENDROOT
BRANCH   1   2
ATOM      2  C   LIG    1       24.609 -22.481   5.575  0.00  0.00    -0.007 A 
ATOM      3  C   LIG    1       25.173 -23.755   5.432  0.00  0.00    +0.007 A 
ATOM      4  C   LIG    1       24.531 -24.882   5.967  0.00  0.00    +0.000 A 
ATOM      5  C   LIG    1       23.328 -24.750   6.654  0.00  0.00    +0.000 A 
ATOM      6  C   LIG    1       22.756 -23.492   6.809  0.00  0.00    +0.000 A 
ATOM      7  C   LIG    1       23.390 -22.371   6.273  0.00  0.00    +0.007 A 
ENDBRANCH   1   2
BRANCH   1   8
ATOM      8  C   LIG    1       24.343 -20.641   3.820  0.00  0.00    +0.064 C 
BRANCH   8   9
ATOM      9  C   LIG    1       24.406 -19.118   3.659  0.00  0.00    +0.084 C 
BRANCH   9  11
ATOM     10  C   LIG    1       22.340 -19.088   4.921  0.00  0.00    +0.101 C 
ATOM     11  N   LIG    1       23.036 -18.595   3.743  0.00  0.00    -0.319 NA
ATOM     12  H   LIG    1       23.063 -17.575   3.772  0.00  0.00    +0.122 HD
ENDBRANCH   9  11
ENDBRANCH   8   9
ENDBRANCH   1   8
BRANCH   1  13
ATOM     13  O   LIG    1       25.541 -20.207   5.935  0.00  0.00    -0.484 OA
BRANCH  13  14
ATOM     14  C   LIG    1       26.845 -20.160   6.382  0.00  0.00    +0.124 A 
ATOM     15  C   LIG    1       27.077 -20.456   7.740  0.00  0.00    -0.009 A 
ATOM     16  C   LIG    1       25.974 -20.934   8.642  0.00  0.00    +0.048 C 
ATOM     17  C   LIG    1       28.380 -20.355   8.261  0.00  0.00    +0.007 A 
ATOM     18  C   LIG    1       29.450 -19.992   7.447  0.00  0.00    +0.001 A 
ATOM     19  C   LIG    1       29.235 -19.770   6.093  0.00  0.00    +0.004 A 
ATOM     20  C   LIG    1       27.944 -19.862   5.565  0.00  0.00    +0.046 A 
ENDBRANCH  13  14
ENDBRANCH   1  13
TORSDOF 6
ENDMDL
MODEL 9
REMARK VINA RESULT:      -7.5      1.703      5.034
REMARK  Name = *****
REMARK                            x       y       z     vdW  Elec       q    Type
REMARK                         _______ _______ _______ _____ _____    ______ ____
ROOT
ATOM      1  C   LIG    1       25.712 -21.009   6.729  0.00  0.00    +0.205 C 
ENDROOT
BRANCH   1   2
ATOM      2  C   LIG    1       24.728 -20.386   5.736  0.00  0.00    -0.007 A 
ATOM      3  C   LIG    1       25.101 -19.921   4.469  0.00  0.00    +0.007 A 
ATOM      4  C   LIG    1       24.162 -19.297   3.633  0.00  0.00    +0.000 A 
ATOM      5  C   LIG    1       22.844 -19.137   4.049  0.00  0.00    +0.000 A 
ATOM      6  C   LIG    1       22.454 -19.596   5.303  0.00  0.00    +0.000 A 
ATOM      7  C   LIG    1       23.388 -20.212   6.137  0.00  0.00    +0.007 A 
ENDBRANCH   1   2
BRANCH   1   8
ATOM      8  C   LIG    1       25.125 -22.242   7.449  0.00  0.00    +0.064 C 
BRANCH   8   9
ATOM      9  C   LIG    1       25.655 -23.595   6.962  0.00  0.00    +0.084 C 
BRANCH   9  11
ATOM     10  C   LIG    1       25.188 -25.133   5.150  0.00  0.00    +0.101 C 
ATOM     11  N   LIG    1       25.301 -23.736   5.543  0.00  0.00    -0.319 NA
ATOM     12  H   LIG    1       24.414 -23.265   5.366  0.00  0.00    +0.122 HD
ENDBRANCH   9  11
ENDBRANCH   8   9
ENDBRANCH   1   8
BRANCH   1  13
ATOM     13  O   LIG    1       26.999 -21.302   6.144  0.00  0.00    -0.484 OA
BRANCH  13  14
ATOM     14  C   LIG    1       28.008 -20.382   6.342  0.00  0.00    +0.124 A 
ATOM     15  C   LIG    1       28.786 -20.513   7.510  0.00  0.00    -0.009 A 
ATOM     16  C   LIG    1       28.620 -21.681   8.441  0.00  0.00    +0.048 C 
ATOM     17  C   LIG    1       29.782 -19.560   7.793  0.00  0.00    +0.007 A 
ATOM     18  C   LIG    1       30.028 -18.503   6.921  0.00  0.00    +0.001 A 
ATOM     19  C   LIG    1       29.311 -18.413   5.735  0.00  0.00    +0.004 A 
ATOM     20  C   LIG    1       28.315 -19.350   5.445  0.00  0.00    +0.046 A 
ENDBRANCH  13  14
ENDBRANCH   1  13
TORSDOF 6
ENDMDL
