MODEL 1
REMARK VINA RESULT:      -6.8      0.000      0.000
REMARK  Name = *****
REMARK                            x       y       z     vdW  Elec       q    Type
REMARK                         _______ _______ _______ _____ _____    ______ ____
ROOT
ATOM      1  C   LIG    1       27.979 -20.117   6.010  0.00  0.00    +0.165 A 
ATOM      2  C   LIG    1       28.494 -20.765   7.160  0.00  0.00    +0.204 A 
ATOM      3  C   LIG    1       29.614 -20.221   7.871  0.00  0.00    +0.170 A 
ATOM      4  C   LIG    1       30.262 -19.070   7.362  0.00  0.00    +0.012 A 
ATOM      5  C   LIG    1       29.632 -18.455   6.329  0.00  0.00    +0.012 A 
ATOM      6  C   LIG    1       28.676 -19.008   5.533  0.00  0.00    +0.050 A 
ENDROOT
BRANCH   1   8
ATOM      7  C   LIG    1       26.274 -19.499   4.436  0.00  0.00    +0.277 C 
ATOM      8  O   LIG    1       26.819 -20.461   5.362  0.00  0.00    -0.491 OA
ENDBRANCH   1   8
BRANCH   2   9
ATOM      9  O   LIG    1       27.935 -21.932   7.644  0.00  0.00    -0.488 OA
ATOM     10  C   LIG    1       26.684 -21.776   8.316  0.00  0.00    +0.277 C 
ENDBRANCH   2   9
BRANCH   3  11
ATOM     11  O   LIG    1       30.209 -20.619   9.030  0.00  0.00    -0.491 OA
ATOM     12  C   LIG    1       30.992 -21.792   9.116  0.00  0.00    +0.277 C 
ENDBRANCH   3  11
BRANCH   4  13
ATOM     13  C   LIG    1       31.509 -18.450   7.982  0.00  0.00    +0.123 C 
BRANCH  13  14
ATOM     14  N   LIG    1       31.386 -17.177   8.739  0.00  0.00    -0.296 NA
ATOM     15  C   LIG    1       30.244 -17.085   9.657  0.00  0.00    +0.100 C 
ATOM     16  C   LIG    1       30.551 -17.514  11.105  0.00  0.00    +0.096 C 
ATOM     17  N   LIG    1       31.655 -16.725  11.699  0.00  0.00    -0.314 NA
ATOM     18  H   LIG    1       31.406 -15.740  11.672  0.00  0.00    +0.122 HD
ATOM     19  C   LIG    1       32.841 -16.904  10.862  0.00  0.00    +0.096 C 
ATOM     20  C   LIG    1       32.601 -16.605   9.337  0.00  0.00    +0.100 C 
ENDBRANCH  13  14
ENDBRANCH   4  13
TORSDOF 5
ENDMDL
MODEL 2
REMARK VINA RESULT:      -6.5      2.544      4.464
REMARK  Name = *****
REMARK                            x       y       z     vdW  Elec       q    Type
REMARK                         _______ _______ _______ _____ _____    ______ ____
ROOT
ATOM      1  C   LIG    1       24.460 -21.156   6.501  0.00  0.00    +0.165 A 
ATOM      2  C   LIG    1       25.467 -20.716   5.606  0.00  0.00    +0.204 A 
ATOM      3  C   LIG    1       26.757 -20.319   6.089  0.00  0.00    +0.170 A 
ATOM      4  C   LIG    1       26.992 -20.287   7.485  0.00  0.00    +0.012 A 
ATOM      5  C   LIG    1       26.016 -20.833   8.253  0.00  0.00    +0.012 A 
ATOM      6  C   LIG    1       24.732 -21.070   7.865  0.00  0.00    +0.050 A 
ENDROOT
BRANCH   1   8
ATOM      7  C   LIG    1       22.918 -22.986   6.709  0.00  0.00    +0.277 C 
ATOM      8  O   LIG    1       23.260 -21.710   6.130  0.00  0.00    -0.491 OA
ENDBRANCH   1   8
BRANCH   2   9
ATOM      9  O   LIG    1       25.250 -20.662   4.243  0.00  0.00    -0.488 OA
ATOM     10  C   LIG    1       24.600 -19.476   3.777  0.00  0.00    +0.277 C 
ENDBRANCH   2   9
BRANCH   3  11
ATOM     11  O   LIG    1       27.884 -19.954   5.416  0.00  0.00    -0.491 OA
ATOM     12  C   LIG    1       28.090 -18.640   4.941  0.00  0.00    +0.277 C 
ENDBRANCH   3  11
BRANCH   4  13
ATOM     13  C   LIG    1       28.292 -19.806   8.119  0.00  0.00    +0.123 C 
BRANCH  13  14
ATOM     14  N   LIG    1       29.579 -20.404   7.678  0.00  0.00    -0.296 NA
ATOM     15  C   LIG    1       30.733 -19.498   7.658  0.00  0.00    +0.100 C 
ATOM     16  C   LIG    1       31.573 -19.501   8.950  0.00  0.00    +0.096 C 
ATOM     17  N   LIG    1       32.082 -20.852   9.280  0.00  0.00    -0.314 NA
ATOM     18  H   LIG    1       32.640 -21.192   8.501  0.00  0.00    +0.122 HD
ATOM     19  C   LIG    1       30.934 -21.746   9.426  0.00  0.00    +0.096 C 
ATOM     20  C   LIG    1       29.946 -21.726   8.204  0.00  0.00    +0.100 C 
ENDBRANCH  13  14
ENDBRANCH   4  13
TORSDOF 5
ENDMDL
MODEL 3
REMARK VINA RESULT:      -6.4      2.892      5.229
REMARK  Name = *****
REMARK                            x       y       z     vdW  Elec       q    Type
REMARK                         _______ _______ _______ _____ _____    ______ ____
ROOT
ATOM      1  C   LIG    1       24.533 -23.545   6.287  0.00  0.00    +0.165 A 
ATOM      2  C   LIG    1       24.505 -22.243   5.730  0.00  0.00    +0.204 A 
ATOM      3  C   LIG    1       25.497 -21.270   6.084  0.00  0.00    +0.170 A 
ATOM      4  C   LIG    1       26.462 -21.594   7.068  0.00  0.00    +0.012 A 
ATOM      5  C   LIG    1       26.483 -22.894   7.457  0.00  0.00    +0.012 A 
ATOM      6  C   LIG    1       25.482 -23.800   7.275  0.00  0.00    +0.050 A 
ENDROOT
BRANCH   1   8
ATOM      7  C   LIG    1       24.369 -25.879   5.746  0.00  0.00    +0.277 C 
ATOM      8  O   LIG    1       23.737 -24.591   5.891  0.00  0.00    -0.491 OA
ENDBRANCH   1   8
BRANCH   2   9
ATOM      9  O   LIG    1       23.533 -21.864   4.824  0.00  0.00    -0.488 OA
ATOM     10  C   LIG    1       22.492 -21.042   5.356  0.00  0.00    +0.277 C 
ENDBRANCH   2   9
BRANCH   3  11
ATOM     11  O   LIG    1       25.712 -20.009   5.614  0.00  0.00    -0.491 OA
ATOM     12  C   LIG    1       25.879 -19.731   4.240  0.00  0.00    +0.277 C 
ENDBRANCH   3  11
BRANCH   4  13
ATOM     13  C   LIG    1       27.512 -20.619   7.585  0.00  0.00    +0.123 C 
BRANCH  13  14
ATOM     14  N   LIG    1       28.905 -20.715   7.076  0.00  0.00    -0.296 NA
ATOM     15  C   LIG    1       29.270 -19.762   6.022  0.00  0.00    +0.100 C 
ATOM     16  C   LIG    1       29.915 -18.459   6.533  0.00  0.00    +0.096 C 
ATOM     17  N   LIG    1       31.136 -18.717   7.331  0.00  0.00    -0.314 NA
ATOM     18  H   LIG    1       31.799 -19.234   6.760  0.00  0.00    +0.122 HD
ATOM     19  C   LIG    1       30.766 -19.569   8.461  0.00  0.00    +0.096 C 
ATOM     20  C   LIG    1       29.992 -20.875   8.053  0.00  0.00    +0.100 C 
ENDBRANCH  13  14
ENDBRANCH   4  13
TORSDOF 5
ENDMDL
MODEL 4
REMARK VINA RESULT:      -6.3      2.713      4.421
REMARK  Name = *****
REMARK                            x       y       z     vdW  Elec       q    Type
REMARK                         _______ _______ _______ _____ _____    ______ ____
ROOT
ATOM      1  C   LIG    1       23.814 -20.196   4.953  0.00  0.00    +0.165 A 
ATOM      2  C   LIG    1       24.127 -20.841   6.175  0.00  0.00    +0.204 A 
ATOM      3  C   LIG    1       25.485 -20.945   6.625  0.00  0.00    +0.170 A 
ATOM      4  C   LIG    1       26.526 -20.472   5.791  0.00  0.00    +0.012 A 
ATOM      5  C   LIG    1       26.127 -19.769   4.701  0.00  0.00    +0.012 A 
ATOM      6  C   LIG    1       24.879 -19.780   4.156  0.00  0.00    +0.050 A 
ENDROOT
BRANCH   1   8
ATOM      7  C   LIG    1       22.202 -18.503   4.400  0.00  0.00    +0.277 C 
ATOM      8  O   LIG    1       22.546 -19.899   4.518  0.00  0.00    -0.491 OA
ENDBRANCH   1   8
BRANCH   2   9
ATOM      9  O   LIG    1       23.143 -21.383   6.979  0.00  0.00    -0.488 OA
ATOM     10  C   LIG    1       22.898 -22.777   6.785  0.00  0.00    +0.277 C 
ENDBRANCH   2   9
BRANCH   3  11
ATOM     11  O   LIG    1       26.000 -21.434   7.787  0.00  0.00    -0.491 OA
ATOM     12  C   LIG    1       25.805 -20.795   9.031  0.00  0.00    +0.277 C 
ENDBRANCH   3  11
BRANCH   4  13
ATOM     13  C   LIG    1       28.008 -20.601   6.123  0.00  0.00    +0.123 C 
BRANCH  13  14
ATOM     14  N   LIG    1       28.678 -19.516   6.885  0.00  0.00    -0.296 NA
ATOM     15  C   LIG    1       29.119 -19.862   8.241  0.00  0.00    +0.100 C 
ATOM     16  C   LIG    1       30.577 -20.354   8.334  0.00  0.00    +0.096 C 
ATOM     17  N   LIG    1       31.536 -19.359   7.802  0.00  0.00    -0.314 NA
ATOM     18  H   LIG    1       31.428 -18.490   8.319  0.00  0.00    +0.122 HD
ATOM     19  C   LIG    1       31.186 -19.091   6.408  0.00  0.00    +0.096 C 
ATOM     20  C   LIG    1       29.680 -18.695   6.190  0.00  0.00    +0.100 C 
ENDBRANCH  13  14
ENDBRANCH   4  13
TORSDOF 5
ENDMDL
MODEL 5
REMARK VINA RESULT:      -6.3      2.462      4.667
REMARK  Name = *****
REMARK                            x       y       z     vdW  Elec       q    Type
REMARK                         _______ _______ _______ _____ _____    ______ ____
ROOT
ATOM      1  C   LIG    1       24.284 -21.645   7.221  0.00  0.00    +0.165 A 
ATOM      2  C   LIG    1       24.695 -20.965   6.048  0.00  0.00    +0.204 A 
ATOM      3  C   LIG    1       26.034 -20.468   5.917  0.00  0.00    +0.170 A 
ATOM      4  C   LIG    1       26.924 -20.587   7.011  0.00  0.00    +0.012 A 
ATOM      5  C   LIG    1       26.483 -21.351   8.042  0.00  0.00    +0.012 A 
ATOM      6  C   LIG    1       25.189 -21.703   8.279  0.00  0.00    +0.050 A 
ENDROOT
BRANCH   1   8
ATOM      7  C   LIG    1       22.973 -23.610   6.787  0.00  0.00    +0.277 C 
ATOM      8  O   LIG    1       23.087 -22.299   7.377  0.00  0.00    -0.491 OA
ENDBRANCH   1   8
BRANCH   2   9
ATOM      9  O   LIG    1       23.832 -20.762   4.989  0.00  0.00    -0.488 OA
ATOM     10  C   LIG    1       22.759 -19.852   5.243  0.00  0.00    +0.277 C 
ENDBRANCH   2   9
BRANCH   3  11
ATOM     11  O   LIG    1       26.662 -19.873   4.864  0.00  0.00    -0.491 OA
ATOM     12  C   LIG    1       25.996 -18.993   3.984  0.00  0.00    +0.277 C 
ENDBRANCH   3  11
BRANCH   4  13
ATOM     13  C   LIG    1       28.342 -20.026   7.021  0.00  0.00    +0.123 C 
BRANCH  13  14
ATOM     14  N   LIG    1       29.040 -19.841   8.320  0.00  0.00    -0.296 NA
ATOM     15  C   LIG    1       29.809 -20.993   8.804  0.00  0.00    +0.100 C 
ATOM     16  C   LIG    1       31.296 -20.985   8.399  0.00  0.00    +0.096 C 
ATOM     17  N   LIG    1       31.995 -19.765   8.865  0.00  0.00    -0.314 NA
ATOM     18  H   LIG    1       31.908 -19.702   9.875  0.00  0.00    +0.122 HD
ATOM     19  C   LIG    1       31.313 -18.605   8.290  0.00  0.00    +0.096 C 
ATOM     20  C   LIG    1       29.762 -18.581   8.546  0.00  0.00    +0.100 C 
ENDBRANCH  13  14
ENDBRANCH   4  13
TORSDOF 5
ENDMDL
MODEL 6
REMARK VINA RESULT:      -6.2      2.384      3.970
REMARK  Name = *****
REMARK                            x       y       z     vdW  Elec       q    Type
REMARK                         _______ _______ _______ _____ _____    ______ ____
ROOT
ATOM      1  C   LIG    1       24.913 -20.363   4.893  0.00  0.00    +0.165 A 
ATOM      2  C   LIG    1       24.574 -20.714   6.223  0.00  0.00    +0.204 A 
ATOM      3  C   LIG    1       25.544 -20.632   7.276  0.00  0.00    +0.170 A 
ATOM      4  C   LIG    1       26.878 -20.278   6.959  0.00  0.00    +0.012 A 
ATOM      5  C   LIG    1       27.081 -19.849   5.688  0.00  0.00    +0.012 A 
ATOM      6  C   LIG    1       26.247 -20.057   4.631  0.00  0.00    +0.050 A 
ENDROOT
BRANCH   1   8
ATOM      7  C   LIG    1       23.288 -19.012   3.753  0.00  0.00    +0.277 C 
ATOM      8  O   LIG    1       24.023 -20.249   3.854  0.00  0.00    -0.491 OA
ENDBRANCH   1   8
BRANCH   2   9
ATOM      9  O   LIG    1       23.302 -21.138   6.557  0.00  0.00    -0.488 OA
ATOM     10  C   LIG    1       23.112 -22.555   6.554  0.00  0.00    +0.277 C 
ENDBRANCH   2   9
BRANCH   3  11
ATOM     11  O   LIG    1       25.418 -20.831   8.618  0.00  0.00    -0.491 OA
ATOM     12  C   LIG    1       25.604 -22.095   9.217  0.00  0.00    +0.277 C 
ENDBRANCH   3  11
BRANCH   4  13
ATOM     13  C   LIG    1       28.013 -20.237   7.976  0.00  0.00    +0.123 C 
BRANCH  13  14
ATOM     14  N   LIG    1       29.418 -20.226   7.494  0.00  0.00    -0.296 NA
ATOM     15  C   LIG    1       30.117 -18.938   7.585  0.00  0.00    +0.100 C 
ATOM     16  C   LIG    1       30.925 -18.739   8.882  0.00  0.00    +0.096 C 
ATOM     17  N   LIG    1       31.938 -19.802   9.076  0.00  0.00    -0.314 NA
ATOM     18  H   LIG    1       32.563 -19.812   8.275  0.00  0.00    +0.122 HD
ATOM     19  C   LIG    1       31.244 -21.089   9.111  0.00  0.00    +0.096 C 
ATOM     20  C   LIG    1       30.295 -21.339   7.884  0.00  0.00    +0.100 C 
ENDBRANCH  13  14
ENDBRANCH   4  13
TORSDOF 5
ENDMDL
MODEL 7
REMARK VINA RESULT:      -6.1      3.341      6.503
REMARK  Name = *****
REMARK                            x       y       z     vdW  Elec       q    Type
REMARK                         _______ _______ _______ _____ _____    ______ ____
ROOT
ATOM      1  C   LIG    1       30.166 -18.951   7.213  0.00  0.00    +0.165 A 
ATOM      2  C   LIG    1       29.569 -20.109   7.771  0.00  0.00    +0.204 A 
ATOM      3  C   LIG    1       28.466 -20.754   7.121  0.00  0.00    +0.170 A 
ATOM      4  C   LIG    1       27.917 -20.171   5.953  0.00  0.00    +0.012 A 
ATOM      5  C   LIG    1       28.622 -19.136   5.430  0.00  0.00    +0.012 A 
ATOM      6  C   LIG    1       29.564 -18.401   6.083  0.00  0.00    +0.050 A 
ENDROOT
BRANCH   1   8
ATOM      7  C   LIG    1       31.230 -17.582   8.874  0.00  0.00    +0.277 C 
ATOM      8  O   LIG    1       31.320 -18.362   7.664  0.00  0.00    -0.491 OA
ENDBRANCH   1   8
BRANCH   2   9
ATOM      9  O   LIG    1       30.029 -20.663   8.950  0.00  0.00    -0.488 OA
ATOM     10  C   LIG    1       31.066 -21.635   8.803  0.00  0.00    +0.277 C 
ENDBRANCH   2   9
BRANCH   3  11
ATOM     11  O   LIG    1       27.806 -21.907   7.424  0.00  0.00    -0.491 OA
ATOM     12  C   LIG    1       26.826 -21.974   8.438  0.00  0.00    +0.277 C 
ENDBRANCH   3  11
BRANCH   4  13
ATOM     13  C   LIG    1       26.696 -20.718   5.222  0.00  0.00    +0.123 C 
BRANCH  13  14
ATOM     14  N   LIG    1       25.370 -20.088   5.454  0.00  0.00    -0.296 NA
ATOM     15  C   LIG    1       24.607 -19.737   4.250  0.00  0.00    +0.100 C 
ATOM     16  C   LIG    1       23.622 -20.824   3.778  0.00  0.00    +0.096 C 
ATOM     17  N   LIG    1       22.641 -21.183   4.828  0.00  0.00    -0.314 NA
ATOM     18  H   LIG    1       22.133 -20.347   5.103  0.00  0.00    +0.122 HD
ATOM     19  C   LIG    1       23.382 -21.653   5.998  0.00  0.00    +0.096 C 
ATOM     20  C   LIG    1       24.500 -20.664   6.490  0.00  0.00    +0.100 C 
ENDBRANCH  13  14
ENDBRANCH   4  13
TORSDOF 5
ENDMDL
MODEL 8
REMARK VINA RESULT:      -5.8      5.258      8.604
REMARK  Name = *****
REMARK                            x       y       z     vdW  Elec       q    Type
REMARK                         _______ _______ _______ _____ _____    ______ ____
ROOT
ATOM      1  C   LIG    1       26.618 -21.093   6.737  0.00  0.00    +0.165 A 
ATOM      2  C   LIG    1       25.430 -21.019   5.968  0.00  0.00    +0.204 A 
ATOM      3  C   LIG    1       24.498 -22.109   5.948  0.00  0.00    +0.170 A 
ATOM      4  C   LIG    1       24.816 -23.302   6.640  0.00  0.00    +0.012 A 
ATOM      5  C   LIG    1       25.911 -23.238   7.439  0.00  0.00    +0.012 A 
ATOM      6  C   LIG    1       26.898 -22.302   7.370  0.00  0.00    +0.050 A 
ENDROOT
BRANCH   1   8
ATOM      7  C   LIG    1       28.547 -19.871   5.995  0.00  0.00    +0.277 C 
ATOM      8  O   LIG    1       27.485 -20.051   6.954  0.00  0.00    -0.491 OA
ENDBRANCH   1   8
BRANCH   2   9
ATOM      9  O   LIG    1       25.122 -19.900   5.218  0.00  0.00    -0.488 OA
ATOM     10  C   LIG    1       25.442 -19.992   3.828  0.00  0.00    +0.277 C 
ENDBRANCH   2   9
BRANCH   3  11
ATOM     11  O   LIG    1       23.273 -22.219   5.362  0.00  0.00    -0.491 OA
ATOM     12  C   LIG    1       22.326 -21.171   5.381  0.00  0.00    +0.277 C 
ENDBRANCH   3  11
BRANCH   4  13
ATOM     13  C   LIG    1       23.945 -24.553   6.626  0.00  0.00    +0.123 C 
BRANCH  13  14
ATOM     14  N   LIG    1       24.234 -25.626   5.639  0.00  0.00    -0.296 NA
ATOM     15  C   LIG    1       25.540 -25.552   4.974  0.00  0.00    +0.100 C 
ATOM     16  C   LIG    1       26.656 -26.362   5.662  0.00  0.00    +0.096 C 
ATOM     17  N   LIG    1       26.309 -27.796   5.785  0.00  0.00    -0.314 NA
ATOM     18  H   LIG    1       26.127 -28.171   4.858  0.00  0.00    +0.122 HD
ATOM     19  C   LIG    1       25.069 -27.898   6.555  0.00  0.00    +0.096 C 
ATOM     20  C   LIG    1       23.896 -27.010   6.001  0.00  0.00    +0.100 C 
ENDBRANCH  13  14
ENDBRANCH   4  13
TORSDOF 5
ENDMDL
MODEL 9
REMARK VINA RESULT:      -5.7      3.612      6.662
REMARK  Name = *****
REMARK                            x       y       z     vdW  Elec       q    Type
REMARK                         _______ _______ _______ _____ _____    ______ ____
ROOT
ATOM      1  C   LIG    1       30.084 -19.752   6.923  0.00  0.00    +0.165 A 
ATOM      2  C   LIG    1       29.353 -20.406   7.945  0.00  0.00    +0.204 A 
ATOM      3  C   LIG    1       27.955 -20.686   7.786  0.00  0.00    +0.170 A 
ATOM      4  C   LIG    1       27.286 -20.223   6.629  0.00  0.00    +0.012 A 
ATOM      5  C   LIG    1       28.085 -19.712   5.658  0.00  0.00    +0.012 A 
ATOM      6  C   LIG    1       29.369 -19.287   5.821  0.00  0.00    +0.050 A 
ENDROOT
BRANCH   1   8
ATOM      7  C   LIG    1       32.000 -18.597   7.796  0.00  0.00    +0.277 C 
ATOM      8  O   LIG    1       31.446 -19.589   6.907  0.00  0.00    -0.491 OA
ENDBRANCH   1   8
BRANCH   2   9
ATOM      9  O   LIG    1       29.955 -20.806   9.123  0.00  0.00    -0.488 OA
ATOM     10  C   LIG    1       30.798 -21.955   9.016  0.00  0.00    +0.277 C 
ENDBRANCH   2   9
BRANCH   3  11
ATOM     11  O   LIG    1       27.090 -21.371   8.586  0.00  0.00    -0.491 OA
ATOM     12  C   LIG    1       25.954 -20.765   9.166  0.00  0.00    +0.277 C 
ENDBRANCH   3  11
BRANCH   4  13
ATOM     13  C   LIG    1       25.790 -20.387   6.386  0.00  0.00    +0.123 C 
BRANCH  13  14
ATOM     14  N   LIG    1       25.307 -21.540   5.584  0.00  0.00    -0.296 NA
ATOM     15  C   LIG    1       25.443 -22.860   6.212  0.00  0.00    +0.100 C 
ATOM     16  C   LIG    1       24.199 -23.327   6.993  0.00  0.00    +0.096 C 
ATOM     17  N   LIG    1       22.989 -23.370   6.141  0.00  0.00    -0.314 NA
ATOM     18  H   LIG    1       23.161 -23.992   5.356  0.00  0.00    +0.122 HD
ATOM     19  C   LIG    1       22.766 -22.029   5.602  0.00  0.00    +0.096 C 
ATOM     20  C   LIG    1       24.020 -21.410   4.885  0.00  0.00    +0.100 C 
ENDBRANCH  13  14
ENDBRANCH   4  13
TORSDOF 5
ENDMDL
