MODEL 1
REMARK VINA RESULT:      -7.4      0.000      0.000
REMARK  Name = *****
REMARK                            x       y       z     vdW  Elec       q    Type
REMARK                         _______ _______ _______ _____ _____    ______ ____
ROOT
ATOM      1  C   LIG    1       28.974 -19.953   6.811  0.00  0.00    +0.039 A 
ATOM      2  C   LIG    1       27.733 -20.289   6.230  0.00  0.00    +0.056 A 
ATOM      3  C   LIG    1       26.933 -21.423   6.782  0.00  0.00    +0.196 C 
ATOM      4  C   LIG    1       25.468 -21.356   6.634  0.00  0.00    +0.036 A 
ATOM      5  C   LIG    1       24.940 -20.594   5.606  0.00  0.00    +0.051 A 
ATOM      6  C   LIG    1       25.837 -19.896   4.675  0.00  0.00    +0.198 C 
ATOM      7  O   LIG    1       25.471 -19.637   3.541  0.00  0.00    -0.286 OA
ATOM      8  C   LIG    1       23.566 -20.506   5.497  0.00  0.00    +0.123 A 
ATOM      9  N   LIG    1       22.715 -21.117   6.360  0.00  0.00    -0.263 NA
ATOM     10  C   LIG    1       23.262 -21.867   7.345  0.00  0.00    +0.111 A 
ATOM     11  C   LIG    1       24.625 -22.027   7.518  0.00  0.00    +0.032 A 
ATOM     12  O   LIG    1       27.442 -22.367   7.368  0.00  0.00    -0.286 OA
ATOM     13  C   LIG    1       27.181 -19.517   5.185  0.00  0.00    +0.056 A 
ATOM     14  C   LIG    1       27.853 -18.387   4.669  0.00  0.00    +0.039 A 
ATOM     15  C   LIG    1       29.074 -18.057   5.268  0.00  0.00    +0.025 A 
ATOM     16  C   LIG    1       29.625 -18.829   6.298  0.00  0.00    +0.025 A 
ENDROOT
BRANCH   1  17
ATOM     17  N   LIG    1       29.422 -20.594   7.960  0.00  0.00    -0.342 N 
ATOM     18  H   LIG    1       28.842 -21.392   8.244  0.00  0.00    +0.146 HD
BRANCH  17  19
ATOM     19  C   LIG    1       30.809 -20.592   8.405  0.00  0.00    +0.116 C 
BRANCH  19  20
ATOM     20  C   LIG    1       31.116 -21.882   9.185  0.00  0.00    +0.096 C 
BRANCH  20  21
ATOM     21  N   LIG    1       32.155 -22.697   8.551  0.00  0.00    -0.329 NA
ATOM     22  H   LIG    1       31.737 -23.282   7.828  0.00  0.00    +0.118 HD
ATOM     23  H   LIG    1       32.808 -22.079   8.070  0.00  0.00    +0.118 HD
ENDBRANCH  20  21
ENDBRANCH  19  20
ENDBRANCH  17  19
ENDBRANCH   1  17
BRANCH  14  24
ATOM     24  N   LIG    1       27.248 -17.526   3.738  0.00  0.00    -0.342 N 
ATOM     25  H   LIG    1       27.390 -17.858   2.778  0.00  0.00    +0.146 HD
BRANCH  24  26
ATOM     26  C   LIG    1       27.403 -16.070   3.882  0.00  0.00    +0.116 C 
BRANCH  26  27
ATOM     27  C   LIG    1       26.218 -15.316   3.243  0.00  0.00    +0.096 C 
BRANCH  27  28
ATOM     28  N   LIG    1       26.629 -14.401   2.176  0.00  0.00    -0.329 NA
ATOM     29  H   LIG    1       26.263 -14.730   1.285  0.00  0.00    +0.118 HD
ATOM     30  H   LIG    1       26.210 -13.486   2.346  0.00  0.00    +0.118 HD
ENDBRANCH  27  28
ENDBRANCH  26  27
ENDBRANCH  24  26
ENDBRANCH  14  24
TORSDOF 8
ENDMDL
MODEL 2
REMARK VINA RESULT:      -6.6      1.810      4.957
REMARK  Name = *****
REMARK                            x       y       z     vdW  Elec       q    Type
REMARK                         _______ _______ _______ _____ _____    ______ ____
ROOT
ATOM      1  C   LIG    1       25.417 -21.680   6.401  0.00  0.00    +0.039 A 
ATOM      2  C   LIG    1       26.556 -20.885   6.643  0.00  0.00    +0.056 A 
ATOM      3  C   LIG    1       27.419 -21.158   7.833  0.00  0.00    +0.196 C 
ATOM      4  C   LIG    1       28.846 -20.807   7.731  0.00  0.00    +0.036 A 
ATOM      5  C   LIG    1       29.226 -19.825   6.833  0.00  0.00    +0.051 A 
ATOM      6  C   LIG    1       28.209 -19.136   6.026  0.00  0.00    +0.198 C 
ATOM      7  O   LIG    1       28.407 -18.006   5.615  0.00  0.00    -0.286 OA
ATOM      8  C   LIG    1       30.570 -19.529   6.716  0.00  0.00    +0.123 A 
ATOM      9  N   LIG    1       31.532 -20.168   7.429  0.00  0.00    -0.263 NA
ATOM     10  C   LIG    1       31.128 -21.114   8.309  0.00  0.00    +0.111 A 
ATOM     11  C   LIG    1       29.803 -21.461   8.505  0.00  0.00    +0.032 A 
ATOM     12  O   LIG    1       26.992 -21.680   8.851  0.00  0.00    -0.286 OA
ATOM     13  C   LIG    1       26.957 -19.883   5.733  0.00  0.00    +0.056 A 
ATOM     14  C   LIG    1       26.227 -19.627   4.551  0.00  0.00    +0.039 A 
ATOM     15  C   LIG    1       25.110 -20.436   4.317  0.00  0.00    +0.025 A 
ATOM     16  C   LIG    1       24.708 -21.423   5.225  0.00  0.00    +0.025 A 
ENDROOT
BRANCH   1  17
ATOM     17  N   LIG    1       25.136 -22.786   7.195  0.00  0.00    -0.342 N 
ATOM     18  H   LIG    1       24.311 -22.669   7.794  0.00  0.00    +0.146 HD
BRANCH  17  19
ATOM     19  C   LIG    1       25.520 -24.150   6.857  0.00  0.00    +0.116 C 
BRANCH  19  20
ATOM     20  C   LIG    1       24.332 -24.892   6.219  0.00  0.00    +0.096 C 
BRANCH  20  21
ATOM     21  N   LIG    1       23.035 -24.350   6.633  0.00  0.00    -0.329 NA
ATOM     22  H   LIG    1       23.161 -23.409   7.007  0.00  0.00    +0.118 HD
ATOM     23  H   LIG    1       22.445 -24.248   5.808  0.00  0.00    +0.118 HD
ENDBRANCH  20  21
ENDBRANCH  19  20
ENDBRANCH  17  19
ENDBRANCH   1  17
BRANCH  14  24
ATOM     24  N   LIG    1       26.698 -18.741   3.567  0.00  0.00    -0.342 N 
ATOM     25  H   LIG    1       27.703 -18.568   3.673  0.00  0.00    +0.146 HD
BRANCH  24  26
ATOM     26  C   LIG    1       25.927 -17.529   3.248  0.00  0.00    +0.116 C 
BRANCH  26  27
ATOM     27  C   LIG    1       26.759 -16.255   3.507  0.00  0.00    +0.096 C 
BRANCH  27  28
ATOM     28  N   LIG    1       26.337 -15.118   2.686  0.00  0.00    -0.329 NA
ATOM     29  H   LIG    1       25.938 -14.396   3.284  0.00  0.00    +0.118 HD
ATOM     30  H   LIG    1       27.158 -14.709   2.239  0.00  0.00    +0.118 HD
ENDBRANCH  27  28
ENDBRANCH  26  27
ENDBRANCH  24  26
ENDBRANCH  14  24
TORSDOF 8
ENDMDL
MODEL 3
REMARK VINA RESULT:      -6.6      2.278      5.990
REMARK  Name = *****
REMARK                            x       y       z     vdW  Elec       q    Type
REMARK                         _______ _______ _______ _____ _____    ______ ____
ROOT
ATOM      1  C   LIG    1       26.229 -20.030   4.895  0.00  0.00    +0.039 A 
ATOM      2  C   LIG    1       25.952 -21.126   5.739  0.00  0.00    +0.056 A 
ATOM      3  C   LIG    1       24.769 -21.997   5.469  0.00  0.00    +0.196 C 
ATOM      4  C   LIG    1       24.851 -23.405   5.896  0.00  0.00    +0.036 A 
ATOM      5  C   LIG    1       25.711 -23.736   6.928  0.00  0.00    +0.051 A 
ATOM      6  C   LIG    1       26.499 -22.687   7.591  0.00  0.00    +0.198 C 
ATOM      7  O   LIG    1       26.869 -22.828   8.744  0.00  0.00    -0.286 OA
ATOM      8  C   LIG    1       25.811 -25.063   7.297  0.00  0.00    +0.123 A 
ATOM      9  N   LIG    1       25.116 -26.055   6.683  0.00  0.00    -0.263 NA
ATOM     10  C   LIG    1       24.272 -25.697   5.687  0.00  0.00    +0.111 A 
ATOM     11  C   LIG    1       24.095 -24.392   5.266  0.00  0.00    +0.032 A 
ATOM     12  O   LIG    1       23.772 -21.594   4.889  0.00  0.00    -0.286 OA
ATOM     13  C   LIG    1       26.824 -21.477   6.792  0.00  0.00    +0.056 A 
ATOM     14  C   LIG    1       28.000 -20.739   7.052  0.00  0.00    +0.039 A 
ATOM     15  C   LIG    1       28.268 -19.665   6.195  0.00  0.00    +0.025 A 
ATOM     16  C   LIG    1       27.398 -19.312   5.156  0.00  0.00    +0.025 A 
ENDROOT
BRANCH   1  17
ATOM     17  N   LIG    1       25.476 -19.804   3.748  0.00  0.00    -0.342 N 
ATOM     18  H   LIG    1       25.141 -20.661   3.295  0.00  0.00    +0.146 HD
BRANCH  17  19
ATOM     19  C   LIG    1       24.721 -18.583   3.497  0.00  0.00    +0.116 C 
BRANCH  19  20
ATOM     20  C   LIG    1       23.211 -18.884   3.511  0.00  0.00    +0.096 C 
BRANCH  20  21
ATOM     21  N   LIG    1       22.646 -18.896   4.861  0.00  0.00    -0.329 NA
ATOM     22  H   LIG    1       21.996 -18.117   4.967  0.00  0.00    +0.118 HD
ATOM     23  H   LIG    1       22.090 -19.743   4.976  0.00  0.00    +0.118 HD
ENDBRANCH  20  21
ENDBRANCH  19  20
ENDBRANCH  17  19
ENDBRANCH   1  17
BRANCH  14  24
ATOM     24  N   LIG    1       28.950 -21.166   7.996  0.00  0.00    -0.342 N 
ATOM     25  H   LIG    1       28.540 -21.226   8.934  0.00  0.00    +0.146 HD
BRANCH  24  26
ATOM     26  C   LIG    1       30.302 -20.585   7.985  0.00  0.00    +0.116 C 
BRANCH  26  27
ATOM     27  C   LIG    1       31.167 -21.166   9.123  0.00  0.00    +0.096 C 
BRANCH  27  28
ATOM     28  N   LIG    1       31.906 -22.367   8.726  0.00  0.00    -0.329 NA
ATOM     29  H   LIG    1       32.737 -22.098   8.202  0.00  0.00    +0.118 HD
ATOM     30  H   LIG    1       32.229 -22.849   9.565  0.00  0.00    +0.118 HD
ENDBRANCH  27  28
ENDBRANCH  26  27
ENDBRANCH  24  26
ENDBRANCH  14  24
TORSDOF 8
ENDMDL
MODEL 4
REMARK VINA RESULT:      -6.5      1.765      5.337
REMARK  Name = *****
REMARK                            x       y       z     vdW  Elec       q    Type
REMARK                         _______ _______ _______ _____ _____    ______ ____
ROOT
ATOM      1  C   LIG    1       27.306 -18.890   4.796  0.00  0.00    +0.039 A 
ATOM      2  C   LIG    1       26.858 -19.896   5.677  0.00  0.00    +0.056 A 
ATOM      3  C   LIG    1       25.548 -20.572   5.434  0.00  0.00    +0.196 C 
ATOM      4  C   LIG    1       25.401 -21.959   5.909  0.00  0.00    +0.036 A 
ATOM      5  C   LIG    1       26.199 -22.389   6.955  0.00  0.00    +0.051 A 
ATOM      6  C   LIG    1       27.148 -21.460   7.584  0.00  0.00    +0.198 C 
ATOM      7  O   LIG    1       27.493 -21.619   8.742  0.00  0.00    -0.286 OA
ATOM      8  C   LIG    1       26.082 -23.702   7.370  0.00  0.00    +0.123 A 
ATOM      9  N   LIG    1       25.234 -24.588   6.789  0.00  0.00    -0.263 NA
ATOM     10  C   LIG    1       24.456 -24.133   5.779  0.00  0.00    +0.111 A 
ATOM     11  C   LIG    1       24.493 -22.831   5.312  0.00  0.00    +0.032 A 
ATOM     12  O   LIG    1       24.627 -20.033   4.838  0.00  0.00    -0.286 OA
ATOM     13  C   LIG    1       27.664 -20.347   6.744  0.00  0.00    +0.056 A 
ATOM     14  C   LIG    1       28.945 -19.802   6.982  0.00  0.00    +0.039 A 
ATOM     15  C   LIG    1       29.382 -18.817   6.088  0.00  0.00    +0.025 A 
ATOM     16  C   LIG    1       28.577 -18.363   5.036  0.00  0.00    +0.025 A 
ENDROOT
BRANCH   1  17
ATOM     17  N   LIG    1       26.597 -18.584   3.640  0.00  0.00    -0.342 N 
ATOM     18  H   LIG    1       26.231 -19.407   3.147  0.00  0.00    +0.146 HD
BRANCH  17  19
ATOM     19  C   LIG    1       25.912 -17.318   3.416  0.00  0.00    +0.116 C 
BRANCH  19  20
ATOM     20  C   LIG    1       26.914 -16.153   3.494  0.00  0.00    +0.096 C 
BRANCH  20  21
ATOM     21  N   LIG    1       26.480 -14.977   2.738  0.00  0.00    -0.329 NA
ATOM     22  H   LIG    1       27.284 -14.548   2.281  0.00  0.00    +0.118 HD
ATOM     23  H   LIG    1       25.860 -15.281   1.987  0.00  0.00    +0.118 HD
ENDBRANCH  20  21
ENDBRANCH  19  20
ENDBRANCH  17  19
ENDBRANCH   1  17
BRANCH  14  24
ATOM     24  N   LIG    1       29.815 -20.344   7.942  0.00  0.00    -0.342 N 
ATOM     25  H   LIG    1       29.370 -20.387   8.865  0.00  0.00    +0.146 HD
BRANCH  24  26
ATOM     26  C   LIG    1       31.217 -19.901   7.990  0.00  0.00    +0.116 C 
BRANCH  26  27
ATOM     27  C   LIG    1       31.383 -18.674   8.911  0.00  0.00    +0.096 C 
BRANCH  27  28
ATOM     28  N   LIG    1       32.171 -17.601   8.300  0.00  0.00    -0.329 NA
ATOM     29  H   LIG    1       33.145 -17.691   8.583  0.00  0.00    +0.118 HD
ATOM     30  H   LIG    1       32.147 -17.709   7.286  0.00  0.00    +0.118 HD
ENDBRANCH  27  28
ENDBRANCH  26  27
ENDBRANCH  24  26
ENDBRANCH  14  24
TORSDOF 8
ENDMDL
MODEL 5
REMARK VINA RESULT:      -6.3      1.870      6.827
REMARK  Name = *****
REMARK                            x       y       z     vdW  Elec       q    Type
REMARK                         _______ _______ _______ _____ _____    ______ ____
ROOT
ATOM      1  C   LIG    1       27.179 -18.782   4.601  0.00  0.00    +0.039 A 
ATOM      2  C   LIG    1       28.066 -19.393   5.512  0.00  0.00    +0.056 A 
ATOM      3  C   LIG    1       29.409 -18.791   5.766  0.00  0.00    +0.196 C 
ATOM      4  C   LIG    1       30.015 -19.016   7.090  0.00  0.00    +0.036 A 
ATOM      5  C   LIG    1       29.624 -20.126   7.819  0.00  0.00    +0.051 A 
ATOM      6  C   LIG    1       28.645 -21.065   7.255  0.00  0.00    +0.198 C 
ATOM      7  O   LIG    1       28.635 -22.233   7.605  0.00  0.00    -0.286 OA
ATOM      8  C   LIG    1       30.168 -20.309   9.075  0.00  0.00    +0.123 A 
ATOM      9  N   LIG    1       31.052 -19.442   9.631  0.00  0.00    -0.263 NA
ATOM     10  C   LIG    1       31.426 -18.374   8.888  0.00  0.00    +0.111 A 
ATOM     11  C   LIG    1       30.947 -18.123   7.614  0.00  0.00    +0.032 A 
ATOM     12  O   LIG    1       29.993 -18.107   4.939  0.00  0.00    -0.286 OA
ATOM     13  C   LIG    1       27.678 -20.523   6.264  0.00  0.00    +0.056 A 
ATOM     14  C   LIG    1       26.394 -21.095   6.127  0.00  0.00    +0.039 A 
ATOM     15  C   LIG    1       25.521 -20.465   5.232  0.00  0.00    +0.025 A 
ATOM     16  C   LIG    1       25.909 -19.351   4.479  0.00  0.00    +0.025 A 
ENDROOT
BRANCH   1  17
ATOM     17  N   LIG    1       27.492 -17.564   4.008  0.00  0.00    -0.342 N 
ATOM     18  H   LIG    1       28.463 -17.499   3.680  0.00  0.00    +0.146 HD
BRANCH  17  19
ATOM     19  C   LIG    1       26.515 -16.698   3.363  0.00  0.00    +0.116 C 
BRANCH  19  20
ATOM     20  C   LIG    1       26.975 -15.231   3.441  0.00  0.00    +0.096 C 
BRANCH  20  21
ATOM     21  N   LIG    1       26.675 -14.476   2.223  0.00  0.00    -0.329 NA
ATOM     22  H   LIG    1       27.327 -14.743   1.485  0.00  0.00    +0.118 HD
ATOM     23  H   LIG    1       25.750 -14.743   1.890  0.00  0.00    +0.118 HD
ENDBRANCH  20  21
ENDBRANCH  19  20
ENDBRANCH  17  19
ENDBRANCH   1  17
BRANCH  14  24
ATOM     24  N   LIG    1       25.944 -22.121   6.975  0.00  0.00    -0.342 N 
ATOM     25  H   LIG    1       26.642 -22.342   7.693  0.00  0.00    +0.146 HD
BRANCH  24  26
ATOM     26  C   LIG    1       25.299 -23.312   6.401  0.00  0.00    +0.116 C 
BRANCH  26  27
ATOM     27  C   LIG    1       23.808 -23.383   6.795  0.00  0.00    +0.096 C 
BRANCH  27  28
ATOM     28  N   LIG    1       23.181 -24.658   6.440  0.00  0.00    -0.329 NA
ATOM     29  H   LIG    1       22.285 -24.740   6.916  0.00  0.00    +0.118 HD
ATOM     30  H   LIG    1       22.985 -24.663   5.439  0.00  0.00    +0.118 HD
ENDBRANCH  27  28
ENDBRANCH  26  27
ENDBRANCH  24  26
ENDBRANCH  14  24
TORSDOF 8
ENDMDL
MODEL 6
REMARK VINA RESULT:      -6.2      2.506      5.810
REMARK  Name = *****
REMARK                            x       y       z     vdW  Elec       q    Type
REMARK                         _______ _______ _______ _____ _____    ______ ____
ROOT
ATOM      1  C   LIG    1       24.097 -19.770   4.352  0.00  0.00    +0.039 A 
ATOM      2  C   LIG    1       24.557 -20.733   5.275  0.00  0.00    +0.056 A 
ATOM      3  C   LIG    1       23.617 -21.765   5.807  0.00  0.00    +0.196 C 
ATOM      4  C   LIG    1       24.189 -23.063   6.205  0.00  0.00    +0.036 A 
ATOM      5  C   LIG    1       25.525 -23.117   6.564  0.00  0.00    +0.051 A 
ATOM      6  C   LIG    1       26.333 -21.890   6.568  0.00  0.00    +0.198 C 
ATOM      7  O   LIG    1       27.306 -21.793   7.296  0.00  0.00    -0.286 OA
ATOM      8  C   LIG    1       26.063 -24.344   6.899  0.00  0.00    +0.123 A 
ATOM      9  N   LIG    1       25.346 -25.497   6.877  0.00  0.00    -0.263 NA
ATOM     10  C   LIG    1       24.039 -25.409   6.537  0.00  0.00    +0.111 A 
ATOM     11  C   LIG    1       23.413 -24.221   6.206  0.00  0.00    +0.032 A 
ATOM     12  O   LIG    1       22.412 -21.581   5.890  0.00  0.00    -0.286 OA
ATOM     13  C   LIG    1       25.917 -20.802   5.644  0.00  0.00    +0.056 A 
ATOM     14  C   LIG    1       26.871 -19.902   5.118  0.00  0.00    +0.039 A 
ATOM     15  C   LIG    1       26.401 -18.965   4.191  0.00  0.00    +0.025 A 
ATOM     16  C   LIG    1       25.050 -18.891   3.832  0.00  0.00    +0.025 A 
ENDROOT
BRANCH   1  17
ATOM     17  N   LIG    1       22.804 -19.825   3.846  0.00  0.00    -0.342 N 
ATOM     18  H   LIG    1       22.397 -20.768   3.847  0.00  0.00    +0.146 HD
BRANCH  17  19
ATOM     19  C   LIG    1       21.875 -18.703   3.859  0.00  0.00    +0.116 C 
BRANCH  19  20
ATOM     20  C   LIG    1       22.200 -17.762   5.033  0.00  0.00    +0.096 C 
BRANCH  20  21
ATOM     21  N   LIG    1       22.432 -16.380   4.606  0.00  0.00    -0.329 NA
ATOM     22  H   LIG    1       23.118 -16.366   3.851  0.00  0.00    +0.118 HD
ATOM     23  H   LIG    1       21.569 -16.011   4.209  0.00  0.00    +0.118 HD
ENDBRANCH  20  21
ENDBRANCH  19  20
ENDBRANCH  17  19
ENDBRANCH   1  17
BRANCH  14  24
ATOM     24  N   LIG    1       28.246 -20.055   5.359  0.00  0.00    -0.342 N 
ATOM     25  H   LIG    1       28.432 -20.878   5.943  0.00  0.00    +0.146 HD
BRANCH  24  26
ATOM     26  C   LIG    1       29.058 -18.884   5.726  0.00  0.00    +0.116 C 
BRANCH  26  27
ATOM     27  C   LIG    1       30.226 -19.283   6.652  0.00  0.00    +0.096 C 
BRANCH  27  28
ATOM     28  N   LIG    1       30.040 -20.594   7.277  0.00  0.00    -0.329 NA
ATOM     29  H   LIG    1       29.830 -20.472   8.266  0.00  0.00    +0.118 HD
ATOM     30  H   LIG    1       29.229 -21.049   6.857  0.00  0.00    +0.118 HD
ENDBRANCH  27  28
ENDBRANCH  26  27
ENDBRANCH  24  26
ENDBRANCH  14  24
TORSDOF 8
ENDMDL
MODEL 7
REMARK VINA RESULT:      -6.2      1.827      5.934
REMARK  Name = *****
REMARK                            x       y       z     vdW  Elec       q    Type
REMARK                         _______ _______ _______ _____ _____    ______ ____
ROOT
ATOM      1  C   LIG    1       24.896 -22.185   6.977  0.00  0.00    +0.039 A 
ATOM      2  C   LIG    1       25.659 -21.357   6.127  0.00  0.00    +0.056 A 
ATOM      3  C   LIG    1       25.096 -20.908   4.819  0.00  0.00    +0.196 C 
ATOM      4  C   LIG    1       25.566 -19.617   4.285  0.00  0.00    +0.036 A 
ATOM      5  C   LIG    1       26.804 -19.145   4.685  0.00  0.00    +0.051 A 
ATOM      6  C   LIG    1       27.630 -19.941   5.603  0.00  0.00    +0.198 C 
ATOM      7  O   LIG    1       28.844 -19.825   5.599  0.00  0.00    -0.286 OA
ATOM      8  C   LIG    1       27.220 -17.916   4.210  0.00  0.00    +0.123 A 
ATOM      9  N   LIG    1       26.464 -17.148   3.384  0.00  0.00    -0.263 NA
ATOM     10  C   LIG    1       25.265 -17.644   2.999  0.00  0.00    +0.111 A 
ATOM     11  C   LIG    1       24.778 -18.872   3.410  0.00  0.00    +0.032 A 
ATOM     12  O   LIG    1       24.254 -21.548   4.208  0.00  0.00    -0.286 OA
ATOM     13  C   LIG    1       26.920 -20.865   6.526  0.00  0.00    +0.056 A 
ATOM     14  C   LIG    1       27.476 -21.191   7.783  0.00  0.00    +0.039 A 
ATOM     15  C   LIG    1       26.698 -21.999   8.620  0.00  0.00    +0.025 A 
ATOM     16  C   LIG    1       25.451 -22.495   8.220  0.00  0.00    +0.025 A 
ENDROOT
BRANCH   1  17
ATOM     17  N   LIG    1       23.580 -22.509   6.665  0.00  0.00    -0.342 N 
ATOM     18  H   LIG    1       23.139 -21.864   6.000  0.00  0.00    +0.146 HD
BRANCH  17  19
ATOM     19  C   LIG    1       23.034 -23.858   6.740  0.00  0.00    +0.116 C 
BRANCH  19  20
ATOM     20  C   LIG    1       24.076 -24.878   6.247  0.00  0.00    +0.096 C 
BRANCH  20  21
ATOM     21  N   LIG    1       24.541 -24.604   4.886  0.00  0.00    -0.329 NA
ATOM     22  H   LIG    1       25.280 -23.903   4.911  0.00  0.00    +0.118 HD
ATOM     23  H   LIG    1       24.969 -25.450   4.510  0.00  0.00    +0.118 HD
ENDBRANCH  20  21
ENDBRANCH  19  20
ENDBRANCH  17  19
ENDBRANCH   1  17
BRANCH  14  24
ATOM     24  N   LIG    1       28.655 -20.588   8.251  0.00  0.00    -0.342 N 
ATOM     25  H   LIG    1       28.766 -19.643   7.870  0.00  0.00    +0.146 HD
BRANCH  24  26
ATOM     26  C   LIG    1       29.909 -21.359   8.276  0.00  0.00    +0.116 C 
BRANCH  26  27
ATOM     27  C   LIG    1       31.137 -20.425   8.293  0.00  0.00    +0.096 C 
BRANCH  27  28
ATOM     28  N   LIG    1       32.110 -20.776   9.329  0.00  0.00    -0.329 NA
ATOM     29  H   LIG    1       32.926 -21.207   8.897  0.00  0.00    +0.118 HD
ATOM     30  H   LIG    1       32.435 -19.922   9.783  0.00  0.00    +0.118 HD
ENDBRANCH  27  28
ENDBRANCH  26  27
ENDBRANCH  24  26
ENDBRANCH  14  24
TORSDOF 8
ENDMDL
MODEL 8
REMARK VINA RESULT:      -6.0      2.603      4.530
REMARK  Name = *****
REMARK                            x       y       z     vdW  Elec       q    Type
REMARK                         _______ _______ _______ _____ _____    ______ ____
ROOT
ATOM      1  C   LIG    1       26.193 -22.339   6.790  0.00  0.00    +0.039 A 
ATOM      2  C   LIG    1       25.671 -21.463   5.815  0.00  0.00    +0.056 A 
ATOM      3  C   LIG    1       24.274 -21.648   5.317  0.00  0.00    +0.196 C 
ATOM      4  C   LIG    1       23.556 -20.449   4.850  0.00  0.00    +0.036 A 
ATOM      5  C   LIG    1       24.294 -19.366   4.405  0.00  0.00    +0.051 A 
ATOM      6  C   LIG    1       25.761 -19.438   4.381  0.00  0.00    +0.198 C 
ATOM      7  O   LIG    1       26.401 -18.760   3.595  0.00  0.00    -0.286 OA
ATOM      8  C   LIG    1       23.614 -18.232   4.004  0.00  0.00    +0.123 A 
ATOM      9  N   LIG    1       22.261 -18.129   4.042  0.00  0.00    -0.263 NA
ATOM     10  C   LIG    1       21.568 -19.210   4.468  0.00  0.00    +0.111 A 
ATOM     11  C   LIG    1       22.164 -20.392   4.869  0.00  0.00    +0.032 A 
ATOM     12  O   LIG    1       23.712 -22.732   5.317  0.00  0.00    -0.286 OA
ATOM     13  C   LIG    1       26.411 -20.352   5.357  0.00  0.00    +0.056 A 
ATOM     14  C   LIG    1       27.708 -20.079   5.845  0.00  0.00    +0.039 A 
ATOM     15  C   LIG    1       28.205 -20.947   6.824  0.00  0.00    +0.025 A 
ATOM     16  C   LIG    1       27.474 -22.054   7.271  0.00  0.00    +0.025 A 
ENDROOT
BRANCH   1  17
ATOM     17  N   LIG    1       25.395 -23.314   7.376  0.00  0.00    -0.342 N 
ATOM     18  H   LIG    1       24.424 -23.019   7.530  0.00  0.00    +0.146 HD
BRANCH  17  19
ATOM     19  C   LIG    1       25.643 -24.745   7.265  0.00  0.00    +0.116 C 
BRANCH  19  20
ATOM     20  C   LIG    1       25.701 -25.158   5.783  0.00  0.00    +0.096 C 
BRANCH  20  21
ATOM     21  N   LIG    1       24.385 -25.493   5.235  0.00  0.00    -0.329 NA
ATOM     22  H   LIG    1       24.277 -25.061   4.317  0.00  0.00    +0.118 HD
ATOM     23  H   LIG    1       24.343 -26.500   5.077  0.00  0.00    +0.118 HD
ENDBRANCH  20  21
ENDBRANCH  19  20
ENDBRANCH  17  19
ENDBRANCH   1  17
BRANCH  14  24
ATOM     24  N   LIG    1       28.391 -18.897   5.512  0.00  0.00    -0.342 N 
ATOM     25  H   LIG    1       27.978 -18.449   4.687  0.00  0.00    +0.146 HD
BRANCH  24  26
ATOM     26  C   LIG    1       29.863 -18.880   5.511  0.00  0.00    +0.116 C 
BRANCH  26  27
ATOM     27  C   LIG    1       30.420 -18.808   6.948  0.00  0.00    +0.096 C 
BRANCH  27  28
ATOM     28  N   LIG    1       31.567 -19.692   7.163  0.00  0.00    -0.329 NA
ATOM     29  H   LIG    1       32.069 -19.818   6.286  0.00  0.00    +0.118 HD
ATOM     30  H   LIG    1       32.215 -19.242   7.811  0.00  0.00    +0.118 HD
ENDBRANCH  27  28
ENDBRANCH  26  27
ENDBRANCH  24  26
ENDBRANCH  14  24
TORSDOF 8
ENDMDL
MODEL 9
REMARK VINA RESULT:      -6.0      1.633      6.625
REMARK  Name = *****
REMARK                            x       y       z     vdW  Elec       q    Type
REMARK                         _______ _______ _______ _____ _____    ______ ____
ROOT
ATOM      1  C   LIG    1       25.720 -19.164   4.091  0.00  0.00    +0.039 A 
ATOM      2  C   LIG    1       26.607 -19.726   5.033  0.00  0.00    +0.056 A 
ATOM      3  C   LIG    1       28.013 -19.231   5.124  0.00  0.00    +0.196 C 
ATOM      4  C   LIG    1       28.683 -19.325   6.433  0.00  0.00    +0.036 A 
ATOM      5  C   LIG    1       28.243 -20.276   7.337  0.00  0.00    +0.051 A 
ATOM      6  C   LIG    1       27.147 -21.184   6.970  0.00  0.00    +0.198 C 
ATOM      7  O   LIG    1       27.055 -22.283   7.489  0.00  0.00    -0.286 OA
ATOM      8  C   LIG    1       28.851 -20.333   8.576  0.00  0.00    +0.123 A 
ATOM      9  N   LIG    1       29.846 -19.489   8.950  0.00  0.00    -0.263 NA
ATOM     10  C   LIG    1       30.264 -18.579   8.039  0.00  0.00    +0.111 A 
ATOM     11  C   LIG    1       29.727 -18.465   6.769  0.00  0.00    +0.032 A 
ATOM     12  O   LIG    1       28.600 -18.733   4.175  0.00  0.00    -0.286 OA
ATOM     13  C   LIG    1       26.169 -20.693   5.963  0.00  0.00    +0.056 A 
ATOM     14  C   LIG    1       24.832 -21.148   5.980  0.00  0.00    +0.039 A 
ATOM     15  C   LIG    1       23.961 -20.568   5.050  0.00  0.00    +0.025 A 
ATOM     16  C   LIG    1       24.399 -19.615   4.122  0.00  0.00    +0.025 A 
ENDROOT
BRANCH   1  17
ATOM     17  N   LIG    1       26.102 -18.080   3.309  0.00  0.00    -0.342 N 
ATOM     18  H   LIG    1       26.435 -18.339   2.373  0.00  0.00    +0.146 HD
BRANCH  17  19
ATOM     19  C   LIG    1       25.580 -16.731   3.476  0.00  0.00    +0.116 C 
BRANCH  19  20
ATOM     20  C   LIG    1       26.734 -15.713   3.477  0.00  0.00    +0.096 C 
BRANCH  20  21
ATOM     21  N   LIG    1       26.567 -14.663   2.470  0.00  0.00    -0.329 NA
ATOM     22  H   LIG    1       25.906 -13.964   2.809  0.00  0.00    +0.118 HD
ATOM     23  H   LIG    1       27.455 -14.176   2.354  0.00  0.00    +0.118 HD
ENDBRANCH  20  21
ENDBRANCH  19  20
ENDBRANCH  17  19
ENDBRANCH   1  17
BRANCH  14  24
ATOM     24  N   LIG    1       24.349 -21.993   6.993  0.00  0.00    -0.342 N 
ATOM     25  H   LIG    1       25.107 -22.309   7.607  0.00  0.00    +0.146 HD
BRANCH  24  26
ATOM     26  C   LIG    1       23.387 -23.056   6.660  0.00  0.00    +0.116 C 
BRANCH  26  27
ATOM     27  C   LIG    1       24.100 -24.407   6.447  0.00  0.00    +0.096 C 
BRANCH  27  28
ATOM     28  N   LIG    1       24.711 -24.530   5.122  0.00  0.00    -0.329 NA
ATOM     29  H   LIG    1       25.709 -24.707   5.222  0.00  0.00    +0.118 HD
ATOM     30  H   LIG    1       24.314 -25.343   4.648  0.00  0.00    +0.118 HD
ENDBRANCH  27  28
ENDBRANCH  26  27
ENDBRANCH  24  26
ENDBRANCH  14  24
TORSDOF 8
ENDMDL
