MODEL 1
REMARK VINA RESULT:       0.9      0.000      0.000
REMARK  Name = *****
REMARK                            x       y       z     vdW  Elec       q    Type
REMARK                         _______ _______ _______ _____ _____    ______ ____
ROOT
ATOM      1  C   LIG    1       26.380 -16.968   3.281  0.00  0.00    +0.151 C 
ENDROOT
BRANCH   1   2
ATOM      2  O   LIG    1       27.722 -16.858   3.778  0.00  0.00    -0.389 OA
ATOM      3  H   LIG    1       28.364 -16.999   3.070  0.00  0.00    +0.210 HD
ENDBRANCH   1   2
BRANCH   1   4
ATOM      4  C   LIG    1       25.536 -17.719   4.329  0.00  0.00    +0.142 C 
BRANCH   4   5
ATOM      5  N   LIG    1       25.956 -19.117   4.669  0.00  0.00    -0.174 NA
BRANCH   5   6
ATOM      6  S   LIG    1       24.901 -20.340   5.236  0.00  0.00    +0.061 S 
ATOM      7  O   LIG    1       24.951 -20.350   6.681  0.00  0.00    -0.153 OA
ATOM      8  O   LIG    1       25.012 -21.571   4.479  0.00  0.00    -0.153 OA
BRANCH   6   9
ATOM      9  C   LIG    1       23.297 -19.708   4.784  0.00  0.00    +0.106 A 
ATOM     10  C   LIG    1       22.193 -20.556   4.847  0.00  0.00    +0.030 A 
ATOM     11  C   LIG    1       20.987 -20.137   4.291  0.00  0.00    +0.024 A 
ATOM     12  C   LIG    1       20.849 -18.847   3.766  0.00  0.00    +0.025 A 
ATOM     13  C   LIG    1       21.946 -17.979   3.796  0.00  0.00    +0.024 A 
ATOM     14  C   LIG    1       23.169 -18.396   4.323  0.00  0.00    +0.030 A 
BRANCH  12  15
ATOM     15  N   LIG    1       19.728 -18.531   2.990  0.00  0.00    -0.358 N 
ATOM     16  H   LIG    1       18.839 -18.696   3.448  0.00  0.00    +0.142 HD
ATOM     17  H   LIG    1       19.776 -17.623   2.540  0.00  0.00    +0.142 HD
ENDBRANCH  12  15
ENDBRANCH   6   9
ENDBRANCH   5   6
BRANCH   5  18
ATOM     18  C   LIG    1       27.443 -19.340   4.676  0.00  0.00    +0.112 C 
BRANCH  18  20
ATOM     19  C   LIG    1       28.353 -20.866   6.497  0.00  0.00    +0.008 C 
ATOM     20  C   LIG    1       28.078 -19.412   6.082  0.00  0.00    -0.002 C 
ATOM     21  C   LIG    1       29.403 -18.663   6.193  0.00  0.00    +0.008 C 
ENDBRANCH  18  20
ENDBRANCH   5  18
ENDBRANCH   4   5
ENDBRANCH   1   4
BRANCH   1  22
ATOM     22  C   LIG    1       25.804 -15.579   2.908  0.00  0.00    +0.110 C 
BRANCH  22  23
ATOM     23  N   LIG    1       25.160 -14.951   4.053  0.00  0.00    -0.275 N 
ATOM     24  H   LIG    1       25.703 -14.478   4.763  0.00  0.00    +0.152 HD
ATOM     25  C   LIG    1       23.837 -14.662   4.082  0.00  0.00    +0.401 C 
ATOM     26  O   LIG    1       22.969 -15.147   3.352  0.00  0.00    -0.227 OA
BRANCH  25  27
ATOM     27  O   LIG    1       23.612 -13.830   5.109  0.00  0.00    -0.445 OA
BRANCH  27  28
ATOM     28  C   LIG    1       23.179 -12.515   4.734  0.00  0.00    +0.206 C 
ATOM     29  C   LIG    1       23.790 -12.065   3.417  0.00  0.00    +0.204 C 
ATOM     30  O   LIG    1       25.079 -11.490   3.713  0.00  0.00    -0.376 OA
ATOM     31  C   LIG    1       25.239 -11.468   5.136  0.00  0.00    +0.163 C 
ATOM     32  C   LIG    1       23.848 -11.590   5.726  0.00  0.00    +0.075 C 
ENDBRANCH  27  28
ENDBRANCH  25  27
ENDBRANCH  22  23
BRANCH  22  33
ATOM     33  C   LIG    1       26.923 -14.657   2.356  0.00  0.00    +0.060 C 
BRANCH  33  34
ATOM     34  C   LIG    1       27.608 -13.849   3.432  0.00  0.00    -0.045 A 
ATOM     35  C   LIG    1       27.299 -14.057   4.784  0.00  0.00    +0.003 A 
ATOM     36  C   LIG    1       27.893 -13.277   5.774  0.00  0.00    +0.000 A 
ATOM     37  C   LIG    1       28.814 -12.293   5.423  0.00  0.00    +0.000 A 
ATOM     38  C   LIG    1       29.129 -12.079   4.081  0.00  0.00    +0.000 A 
ATOM     39  C   LIG    1       28.522 -12.846   3.088  0.00  0.00    +0.003 A 
ENDBRANCH  33  34
ENDBRANCH  22  33
ENDBRANCH   1  22
TORSDOF 14
ENDMDL
MODEL 2
REMARK VINA RESULT:       3.7      1.465      3.096
REMARK  Name = *****
REMARK                            x       y       z     vdW  Elec       q    Type
REMARK                         _______ _______ _______ _____ _____    ______ ____
ROOT
ATOM      1  C   LIG    1       25.704 -17.281   3.451  0.00  0.00    +0.151 C 
ENDROOT
BRANCH   1   2
ATOM      2  O   LIG    1       26.822 -17.717   2.662  0.00  0.00    -0.389 OA
ATOM      3  H   LIG    1       26.906 -18.679   2.687  0.00  0.00    +0.210 HD
ENDBRANCH   1   2
BRANCH   1   4
ATOM      4  C   LIG    1       25.685 -18.100   4.757  0.00  0.00    +0.142 C 
BRANCH   4   5
ATOM      5  N   LIG    1       26.041 -19.552   4.656  0.00  0.00    -0.174 NA
BRANCH   5   6
ATOM      6  S   LIG    1       24.906 -20.826   4.528  0.00  0.00    +0.061 S 
ATOM      7  O   LIG    1       24.838 -21.507   5.802  0.00  0.00    -0.153 OA
ATOM      8  O   LIG    1       25.037 -21.572   3.291  0.00  0.00    -0.153 OA
BRANCH   6   9
ATOM      9  C   LIG    1       23.364 -19.952   4.333  0.00  0.00    +0.106 A 
ATOM     10  C   LIG    1       22.190 -20.537   4.807  0.00  0.00    +0.030 A 
ATOM     11  C   LIG    1       20.967 -19.966   4.465  0.00  0.00    +0.024 A 
ATOM     12  C   LIG    1       20.910 -18.768   3.744  0.00  0.00    +0.025 A 
ATOM     13  C   LIG    1       22.105 -18.150   3.357  0.00  0.00    +0.024 A 
ATOM     14  C   LIG    1       23.337 -18.727   3.666  0.00  0.00    +0.030 A 
BRANCH  12  15
ATOM     15  N   LIG    1       19.695 -18.348   3.193  0.00  0.00    -0.358 N 
ATOM     16  H   LIG    1       19.648 -17.356   2.988  0.00  0.00    +0.142 HD
ATOM     17  H   LIG    1       19.362 -18.924   2.427  0.00  0.00    +0.142 HD
ENDBRANCH  12  15
ENDBRANCH   6   9
ENDBRANCH   5   6
BRANCH   5  18
ATOM     18  C   LIG    1       27.496 -19.858   4.884  0.00  0.00    +0.112 C 
BRANCH  18  20
ATOM     19  C   LIG    1       28.438 -21.208   6.824  0.00  0.00    +0.008 C 
ATOM     20  C   LIG    1       27.938 -19.829   6.364  0.00  0.00    -0.002 C 
ATOM     21  C   LIG    1       29.060 -18.835   6.647  0.00  0.00    +0.008 C 
ENDBRANCH  18  20
ENDBRANCH   5  18
ENDBRANCH   4   5
ENDBRANCH   1   4
BRANCH   1  22
ATOM     22  C   LIG    1       25.746 -15.750   3.685  0.00  0.00    +0.110 C 
BRANCH  22  23
ATOM     23  N   LIG    1       27.005 -15.181   3.227  0.00  0.00    -0.275 N 
ATOM     24  H   LIG    1       27.040 -14.576   2.418  0.00  0.00    +0.152 HD
ATOM     25  C   LIG    1       28.114 -15.135   4.003  0.00  0.00    +0.401 C 
ATOM     26  O   LIG    1       28.326 -15.813   5.012  0.00  0.00    -0.227 OA
BRANCH  25  27
ATOM     27  O   LIG    1       28.991 -14.297   3.433  0.00  0.00    -0.445 OA
BRANCH  27  28
ATOM     28  C   LIG    1       29.088 -13.009   4.058  0.00  0.00    +0.206 C 
ATOM     29  C   LIG    1       28.226 -12.913   5.306  0.00  0.00    +0.204 C 
ATOM     30  O   LIG    1       26.897 -12.543   4.885  0.00  0.00    -0.376 OA
ATOM     31  C   LIG    1       26.929 -12.304   3.474  0.00  0.00    +0.163 C 
ATOM     32  C   LIG    1       28.381 -12.065   3.112  0.00  0.00    +0.075 C 
ENDBRANCH  27  28
ENDBRANCH  25  27
ENDBRANCH  22  23
BRANCH  22  33
ATOM     33  C   LIG    1       24.558 -15.058   2.967  0.00  0.00    +0.060 C 
BRANCH  33  34
ATOM     34  C   LIG    1       24.112 -13.788   3.651  0.00  0.00    -0.045 A 
ATOM     35  C   LIG    1       23.973 -13.742   5.046  0.00  0.00    +0.003 A 
ATOM     36  C   LIG    1       23.513 -12.586   5.673  0.00  0.00    +0.000 A 
ATOM     37  C   LIG    1       23.204 -11.460   4.914  0.00  0.00    +0.000 A 
ATOM     38  C   LIG    1       23.342 -11.494   3.527  0.00  0.00    +0.000 A 
ATOM     39  C   LIG    1       23.785 -12.656   2.895  0.00  0.00    +0.003 A 
ENDBRANCH  33  34
ENDBRANCH  22  33
ENDBRANCH   1  22
TORSDOF 14
ENDMDL
