MODEL 1
REMARK VINA RESULT:      -0.7      0.000      0.000
REMARK  Name = *****
REMARK                            x       y       z     vdW  Elec       q    Type
REMARK                         _______ _______ _______ _____ _____    ______ ____
ROOT
ATOM      1  C   LIG    1       25.070 -19.394   4.630  0.00  0.00    -0.018 A 
ATOM      2  C   LIG    1       26.305 -18.706   4.430  0.00  0.00    +0.039 A 
ATOM      3  I   LIG    1       26.510 -17.144   2.948  0.00  0.00    -0.042 I 
ATOM      4  C   LIG    1       27.479 -19.008   5.174  0.00  0.00    +0.051 A 
ATOM      5  C   LIG    1       27.441 -20.111   6.037  0.00  0.00    +0.036 A 
ATOM      6  I   LIG    1       29.158 -20.773   7.062  0.00  0.00    -0.042 I 
ATOM      7  C   LIG    1       26.254 -20.805   6.260  0.00  0.00    +0.030 A 
ATOM      8  C   LIG    1       25.078 -20.433   5.589  0.00  0.00    +0.019 A 
ATOM      9  I   LIG    1       23.375 -21.572   6.111  0.00  0.00    -0.043 I 
ENDROOT
BRANCH   4  10
ATOM     10  N   LIG    1       28.709 -18.373   4.889  0.00  0.00    -0.356 N 
ATOM     11  H   LIG    1       28.952 -17.655   5.568  0.00  0.00    +0.142 HD
ATOM     12  H   LIG    1       29.470 -19.024   4.713  0.00  0.00    +0.142 HD
ENDBRANCH   4  10
BRANCH   1  13
ATOM     13  C   LIG    1       23.818 -19.081   3.813  0.00  0.00    +0.052 C 
BRANCH  13  14
ATOM     14  C   LIG    1       22.699 -18.260   4.501  0.00  0.00    +0.102 C 
BRANCH  14  16
ATOM     15  C   LIG    1       22.337 -15.867   5.392  0.00  0.00    +0.004 C 
ATOM     16  C   LIG    1       22.816 -16.750   4.249  0.00  0.00    +0.011 C 
ENDBRANCH  14  16
BRANCH  14  17
ATOM     17  C   LIG    1       21.362 -18.775   3.983  0.00  0.00    +0.308 C 
ATOM     18  O   LIG    1       20.585 -18.192   3.254  0.00  0.00    -0.251 OA
BRANCH  17  19
ATOM     19  O   LIG    1       21.087 -20.028   4.406  0.00  0.00    -0.480 OA
ATOM     20  H   LIG    1       20.119 -20.115   4.278  0.00  0.00    +0.295 HD
ENDBRANCH  17  19
ENDBRANCH  14  17
ENDBRANCH  13  14
ENDBRANCH   1  13
TORSDOF 6
ENDMDL
MODEL 2
REMARK VINA RESULT:       0.5      3.418      4.647
REMARK  Name = *****
REMARK                            x       y       z     vdW  Elec       q    Type
REMARK                         _______ _______ _______ _____ _____    ______ ____
ROOT
ATOM      1  C   LIG    1       26.125 -16.595   3.569  0.00  0.00    -0.018 A 
ATOM      2  C   LIG    1       25.898 -17.981   3.826  0.00  0.00    +0.039 A 
ATOM      3  I   LIG    1       24.030 -18.943   3.314  0.00  0.00    -0.042 I 
ATOM      4  C   LIG    1       26.872 -18.815   4.443  0.00  0.00    +0.051 A 
ATOM      5  C   LIG    1       28.037 -18.209   4.931  0.00  0.00    +0.036 A 
ATOM      6  I   LIG    1       29.475 -19.296   6.022  0.00  0.00    -0.042 I 
ATOM      7  C   LIG    1       28.294 -16.860   4.697  0.00  0.00    +0.030 A 
ATOM      8  C   LIG    1       27.366 -16.071   4.001  0.00  0.00    +0.019 A 
ATOM      9  I   LIG    1       27.971 -14.068   3.699  0.00  0.00    -0.043 I 
ENDROOT
BRANCH   4  10
ATOM     10  N   LIG    1       26.583 -20.160   4.767  0.00  0.00    -0.356 N 
ATOM     11  H   LIG    1       26.022 -20.627   4.058  0.00  0.00    +0.142 HD
ATOM     12  H   LIG    1       27.403 -20.696   5.040  0.00  0.00    +0.142 HD
ENDBRANCH   4  10
BRANCH   1  13
ATOM     13  C   LIG    1       25.069 -15.699   2.925  0.00  0.00    +0.052 C 
BRANCH  13  14
ATOM     14  C   LIG    1       25.134 -14.181   3.228  0.00  0.00    +0.102 C 
BRANCH  14  16
ATOM     15  C   LIG    1       24.601 -11.829   2.316  0.00  0.00    +0.004 C 
ATOM     16  C   LIG    1       24.789 -13.307   2.013  0.00  0.00    +0.011 C 
ENDBRANCH  14  16
BRANCH  14  17
ATOM     17  C   LIG    1       24.166 -13.895   4.369  0.00  0.00    +0.308 C 
ATOM     18  O   LIG    1       24.189 -12.948   5.129  0.00  0.00    -0.251 OA
BRANCH  17  19
ATOM     19  O   LIG    1       23.195 -14.827   4.473  0.00  0.00    -0.480 OA
ATOM     20  H   LIG    1       22.368 -14.302   4.537  0.00  0.00    +0.295 HD
ENDBRANCH  17  19
ENDBRANCH  14  17
ENDBRANCH  13  14
ENDBRANCH   1  13
TORSDOF 6
ENDMDL
MODEL 3
REMARK VINA RESULT:       0.7      4.829      6.162
REMARK  Name = *****
REMARK                            x       y       z     vdW  Elec       q    Type
REMARK                         _______ _______ _______ _____ _____    ______ ____
ROOT
ATOM      1  C   LIG    1       27.246 -16.505   4.014  0.00  0.00    -0.018 A 
ATOM      2  C   LIG    1       27.566 -17.807   4.504  0.00  0.00    +0.039 A 
ATOM      3  I   LIG    1       29.469 -18.235   5.440  0.00  0.00    -0.042 I 
ATOM      4  C   LIG    1       26.670 -18.907   4.399  0.00  0.00    +0.051 A 
ATOM      5  C   LIG    1       25.490 -18.721   3.667  0.00  0.00    +0.036 A 
ATOM      6  I   LIG    1       24.164 -20.312   3.284  0.00  0.00    -0.042 I 
ATOM      7  C   LIG    1       25.142 -17.464   3.177  0.00  0.00    +0.030 A 
ATOM      8  C   LIG    1       25.994 -16.366   3.372  0.00  0.00    +0.019 A 
ATOM      9  I   LIG    1       25.257 -14.539   2.604  0.00  0.00    -0.043 I 
ENDROOT
BRANCH   4  10
ATOM     10  N   LIG    1       27.052 -20.203   4.811  0.00  0.00    -0.356 N 
ATOM     11  H   LIG    1       27.983 -20.463   4.493  0.00  0.00    +0.142 HD
ATOM     12  H   LIG    1       26.912 -20.370   5.804  0.00  0.00    +0.142 HD
ENDBRANCH   4  10
BRANCH   1  13
ATOM     13  C   LIG    1       28.220 -15.333   4.110  0.00  0.00    +0.052 C 
BRANCH  13  14
ATOM     14  C   LIG    1       27.623 -13.917   4.310  0.00  0.00    +0.102 C 
BRANCH  14  16
ATOM     15  C   LIG    1       25.631 -12.973   5.646  0.00  0.00    +0.004 C 
ATOM     16  C   LIG    1       26.948 -13.734   5.676  0.00  0.00    +0.011 C 
ENDBRANCH  14  16
BRANCH  14  17
ATOM     17  C   LIG    1       28.755 -12.910   4.146  0.00  0.00    +0.308 C 
ATOM     18  O   LIG    1       29.050 -12.011   4.906  0.00  0.00    -0.251 OA
BRANCH  17  19
ATOM     19  O   LIG    1       29.475 -13.115   3.022  0.00  0.00    -0.480 OA
ATOM     20  H   LIG    1       28.956 -12.663   2.323  0.00  0.00    +0.295 HD
ENDBRANCH  17  19
ENDBRANCH  14  17
ENDBRANCH  13  14
ENDBRANCH   1  13
TORSDOF 6
ENDMDL
MODEL 4
REMARK VINA RESULT:       1.0      3.213      5.110
REMARK  Name = *****
REMARK                            x       y       z     vdW  Elec       q    Type
REMARK                         _______ _______ _______ _____ _____    ______ ____
ROOT
ATOM      1  C   LIG    1       24.692 -17.571   3.855  0.00  0.00    -0.018 A 
ATOM      2  C   LIG    1       25.791 -16.660   3.876  0.00  0.00    +0.039 A 
ATOM      3  I   LIG    1       27.841 -17.348   3.912  0.00  0.00    -0.042 I 
ATOM      4  C   LIG    1       25.615 -15.248   3.889  0.00  0.00    +0.051 A 
ATOM      5  C   LIG    1       24.310 -14.753   4.020  0.00  0.00    +0.036 A 
ATOM      6  I   LIG    1       23.925 -12.693   4.231  0.00  0.00    -0.042 I 
ATOM      7  C   LIG    1       23.214 -15.612   4.000  0.00  0.00    +0.030 A 
ATOM      8  C   LIG    1       23.400 -16.999   3.889  0.00  0.00    +0.019 A 
ATOM      9  I   LIG    1       21.609 -18.120   3.816  0.00  0.00    -0.043 I 
ENDROOT
BRANCH   4  10
ATOM     10  N   LIG    1       26.719 -14.374   4.003  0.00  0.00    -0.356 N 
ATOM     11  H   LIG    1       27.436 -14.546   3.301  0.00  0.00    +0.142 HD
ATOM     12  H   LIG    1       26.455 -13.394   4.067  0.00  0.00    +0.142 HD
ENDBRANCH   4  10
BRANCH   1  13
ATOM     13  C   LIG    1       24.887 -19.086   3.862  0.00  0.00    +0.052 C 
BRANCH  13  14
ATOM     14  C   LIG    1       24.571 -19.844   5.176  0.00  0.00    +0.102 C 
BRANCH  14  16
ATOM     15  C   LIG    1       22.874 -21.514   6.167  0.00  0.00    +0.004 C 
ATOM     16  C   LIG    1       23.697 -21.088   4.960  0.00  0.00    +0.011 C 
ENDBRANCH  14  16
BRANCH  14  17
ATOM     17  C   LIG    1       25.897 -20.241   5.812  0.00  0.00    +0.308 C 
ATOM     18  O   LIG    1       26.127 -20.386   6.995  0.00  0.00    -0.251 OA
BRANCH  17  19
ATOM     19  O   LIG    1       26.868 -20.458   4.898  0.00  0.00    -0.480 OA
ATOM     20  H   LIG    1       26.387 -20.810   4.120  0.00  0.00    +0.295 HD
ENDBRANCH  17  19
ENDBRANCH  14  17
ENDBRANCH  13  14
ENDBRANCH   1  13
TORSDOF 6
ENDMDL
MODEL 5
REMARK VINA RESULT:       1.3      3.815      4.990
REMARK  Name = *****
REMARK                            x       y       z     vdW  Elec       q    Type
REMARK                         _______ _______ _______ _____ _____    ______ ____
ROOT
ATOM      1  C   LIG    1       26.218 -16.150   3.441  0.00  0.00    -0.018 A 
ATOM      2  C   LIG    1       25.937 -17.520   3.725  0.00  0.00    +0.039 A 
ATOM      3  I   LIG    1       24.026 -18.414   3.246  0.00  0.00    -0.042 I 
ATOM      4  C   LIG    1       26.880 -18.383   4.351  0.00  0.00    +0.051 A 
ATOM      5  C   LIG    1       28.073 -17.816   4.818  0.00  0.00    +0.036 A 
ATOM      6  I   LIG    1       29.475 -18.941   5.917  0.00  0.00    -0.042 I 
ATOM      7  C   LIG    1       28.384 -16.484   4.557  0.00  0.00    +0.030 A 
ATOM      8  C   LIG    1       27.482 -15.670   3.854  0.00  0.00    +0.019 A 
ATOM      9  I   LIG    1       28.166 -13.699   3.510  0.00  0.00    -0.043 I 
ENDROOT
BRANCH   4  10
ATOM     10  N   LIG    1       26.539 -19.708   4.701  0.00  0.00    -0.356 N 
ATOM     11  H   LIG    1       26.083 -19.775   5.608  0.00  0.00    +0.142 HD
ATOM     12  H   LIG    1       26.038 -20.205   3.969  0.00  0.00    +0.142 HD
ENDBRANCH   4  10
BRANCH   1  13
ATOM     13  C   LIG    1       25.194 -15.223   2.789  0.00  0.00    +0.052 C 
BRANCH  13  14
ATOM     14  C   LIG    1       24.371 -14.295   3.718  0.00  0.00    +0.102 C 
BRANCH  14  16
ATOM     15  C   LIG    1       25.351 -12.642   5.437  0.00  0.00    +0.004 C 
ATOM     16  C   LIG    1       25.021 -14.087   5.093  0.00  0.00    +0.011 C 
ENDBRANCH  14  16
BRANCH  14  17
ATOM     17  C   LIG    1       24.208 -12.957   3.008  0.00  0.00    +0.308 C 
ATOM     18  O   LIG    1       23.612 -11.981   3.415  0.00  0.00    -0.251 OA
BRANCH  17  19
ATOM     19  O   LIG    1       24.836 -12.922   1.813  0.00  0.00    -0.480 OA
ATOM     20  H   LIG    1       24.220 -13.385   1.207  0.00  0.00    +0.295 HD
ENDBRANCH  17  19
ENDBRANCH  14  17
ENDBRANCH  13  14
ENDBRANCH   1  13
TORSDOF 6
ENDMDL
MODEL 6
REMARK VINA RESULT:       2.1      4.284      5.898
REMARK  Name = *****
REMARK                            x       y       z     vdW  Elec       q    Type
REMARK                         _______ _______ _______ _____ _____    ______ ____
ROOT
ATOM      1  C   LIG    1       24.684 -15.282   4.163  0.00  0.00    -0.018 A 
ATOM      2  C   LIG    1       23.570 -16.126   4.453  0.00  0.00    +0.039 A 
ATOM      3  I   LIG    1       21.803 -15.377   5.451  0.00  0.00    -0.042 I 
ATOM      4  C   LIG    1       23.549 -17.509   4.121  0.00  0.00    +0.051 A 
ATOM      5  C   LIG    1       24.725 -18.076   3.611  0.00  0.00    +0.036 A 
ATOM      6  I   LIG    1       24.886 -20.145   3.246  0.00  0.00    -0.042 I 
ATOM      7  C   LIG    1       25.831 -17.285   3.313  0.00  0.00    +0.030 A 
ATOM      8  C   LIG    1       25.801 -15.903   3.558  0.00  0.00    +0.019 A 
ATOM      9  I   LIG    1       27.555 -14.873   2.981  0.00  0.00    -0.043 I 
ENDROOT
BRANCH   4  10
ATOM     10  N   LIG    1       22.470 -18.337   4.502  0.00  0.00    -0.356 N 
ATOM     11  H   LIG    1       22.598 -19.308   4.227  0.00  0.00    +0.142 HD
ATOM     12  H   LIG    1       22.206 -18.234   5.479  0.00  0.00    +0.142 HD
ENDBRANCH   4  10
BRANCH   1  13
ATOM     13  C   LIG    1       24.710 -13.802   4.541  0.00  0.00    +0.052 C 
BRANCH  13  14
ATOM     14  C   LIG    1       23.751 -12.851   3.783  0.00  0.00    +0.102 C 
BRANCH  14  16
ATOM     15  C   LIG    1       24.112 -11.447   5.915  0.00  0.00    +0.004 C 
ATOM     16  C   LIG    1       23.384 -11.596   4.587  0.00  0.00    +0.011 C 
ENDBRANCH  14  16
BRANCH  14  17
ATOM     17  C   LIG    1       24.428 -12.456   2.476  0.00  0.00    +0.308 C 
ATOM     18  O   LIG    1       25.446 -12.925   2.008  0.00  0.00    -0.251 OA
BRANCH  17  19
ATOM     19  O   LIG    1       23.755 -11.491   1.813  0.00  0.00    -0.480 OA
ATOM     20  H   LIG    1       24.269 -10.676   1.996  0.00  0.00    +0.295 HD
ENDBRANCH  17  19
ENDBRANCH  14  17
ENDBRANCH  13  14
ENDBRANCH   1  13
TORSDOF 6
ENDMDL
