MODEL 1
REMARK VINA RESULT:      -5.3      0.000      0.000
REMARK  Name = *****
REMARK                            x       y       z     vdW  Elec       q    Type
REMARK                         _______ _______ _______ _____ _____    ______ ____
ROOT
ATOM      1  C   LIG    1       24.600 -32.169   8.304  0.00  0.00    +0.183 C 
ATOM      2  C   LIG    1       23.635 -32.249   9.625  0.00  0.00    +0.021 C 
ATOM      3  C   LIG    1       22.245 -32.797   9.157  0.00  0.00    +0.016 C 
ATOM      4  C   LIG    1       23.381 -30.772  10.078  0.00  0.00    +0.003 C 
ATOM      5  C   LIG    1       23.871 -30.340  11.481  0.00  0.00    -0.000 C 
ATOM      6  C   LIG    1       23.725 -31.406  12.588  0.00  0.00    +0.035 C 
ATOM      7  C   LIG    1       24.448 -32.690  12.158  0.00  0.00    +0.120 C 
ATOM      8  C   LIG    1       22.304 -31.608  13.246  0.00  0.00    +0.013 C 
ATOM      9  C   LIG    1       22.538 -32.218  14.664  0.00  0.00    +0.020 C 
ATOM     10  C   LIG    1       21.533 -30.274  13.391  0.00  0.00    -0.056 C 
ATOM     11  C   LIG    1       20.270 -30.324  13.881  0.00  0.00    +0.051 C 
ATOM     12  C   LIG    1       19.409 -31.161  12.962  0.00  0.00    +0.179 C 
ATOM     13  O   LIG    1       18.226 -30.913  12.778  0.00  0.00    -0.288 OA
ATOM     14  C   LIG    1       20.055 -32.371  12.377  0.00  0.00    +0.047 C 
ATOM     15  C   LIG    1       21.775 -29.196  12.355  0.00  0.00    +0.032 C 
ATOM     16  C   LIG    1       21.373 -32.586  12.536  0.00  0.00    -0.012 C 
ATOM     17  C   LIG    1       23.236 -29.027  11.967  0.00  0.00    +0.008 C 
ATOM     18  C   LIG    1       23.961 -29.881   8.961  0.00  0.00    +0.009 C 
ATOM     19  C   LIG    1       24.144 -33.230  10.742  0.00  0.00    +0.043 C 
ATOM     20  C   LIG    1       24.228 -30.778   7.754  0.00  0.00    +0.057 C 
ENDROOT
BRANCH   1  21
ATOM     21  C   LIG    1       26.081 -32.129   8.736  0.00  0.00    +0.214 C 
ATOM     22  O   LIG    1       26.645 -33.220   8.849  0.00  0.00    -0.289 OA
BRANCH  21  23
ATOM     23  C   LIG    1       26.796 -30.819   9.118  0.00  0.00    +0.310 C 
BRANCH  23  24
ATOM     24  O   LIG    1       27.220 -30.810  10.501  0.00  0.00    -0.457 OA
BRANCH  24  25
ATOM     25  C   LIG    1       27.816 -29.667  10.957  0.00  0.00    +0.307 C 
ATOM     26  O   LIG    1       28.906 -29.612  11.510  0.00  0.00    -0.251 OA
BRANCH  25  27
ATOM     27  C   LIG    1       26.970 -28.458  10.605  0.00  0.00    +0.117 C 
ATOM     28  C   LIG    1       26.771 -27.632  11.852  0.00  0.00    +0.015 C 
ENDBRANCH  25  27
ENDBRANCH  24  25
ENDBRANCH  23  24
ENDBRANCH  21  23
ENDBRANCH   1  21
BRANCH   7  29
ATOM     29  O   LIG    1       25.855 -32.474  12.315  0.00  0.00    -0.391 OA
ATOM     30  H   LIG    1       26.017 -31.512  12.213  0.00  0.00    +0.210 HD
ENDBRANCH   7  29
BRANCH   1  31
ATOM     31  O   LIG    1       24.192 -33.250   7.436  0.00  0.00    -0.419 OA
BRANCH  31  32
ATOM     32  C   LIG    1       24.075 -33.047   6.079  0.00  0.00    +0.511 C 
ATOM     33  O   LIG    1       23.051 -32.921   5.484  0.00  0.00    -0.203 OA
BRANCH  32  34
ATOM     34  O   LIG    1       25.333 -33.169   5.571  0.00  0.00    -0.434 OA
BRANCH  34  36
ATOM     35  C   LIG    1       25.758 -32.714   3.179  0.00  0.00    +0.048 C 
ATOM     36  C   LIG    1       25.780 -32.164   4.599  0.00  0.00    +0.232 C 
ENDBRANCH  34  36
ENDBRANCH  32  34
ENDBRANCH  31  32
ENDBRANCH   1  31
TORSDOF 10
ENDMDL
MODEL 2
REMARK VINA RESULT:      -5.2      2.379      5.525
REMARK  Name = *****
REMARK                            x       y       z     vdW  Elec       q    Type
REMARK                         _______ _______ _______ _____ _____    ______ ____
ROOT
ATOM      1  C   LIG    1       22.805 -31.395  10.808  0.00  0.00    +0.183 C 
ATOM      2  C   LIG    1       23.523 -30.318  11.811  0.00  0.00    +0.021 C 
ATOM      3  C   LIG    1       22.452 -29.236  12.180  0.00  0.00    +0.016 C 
ATOM      4  C   LIG    1       24.605 -29.573  10.958  0.00  0.00    +0.003 C 
ATOM      5  C   LIG    1       26.088 -29.704  11.379  0.00  0.00    -0.000 C 
ATOM      6  C   LIG    1       26.343 -29.723  12.901  0.00  0.00    +0.035 C 
ATOM      7  C   LIG    1       25.520 -30.849  13.542  0.00  0.00    +0.120 C 
ATOM      8  C   LIG    1       26.339 -28.346  13.676  0.00  0.00    +0.013 C 
ATOM      9  C   LIG    1       27.197 -28.544  14.965  0.00  0.00    +0.020 C 
ATOM     10  C   LIG    1       26.951 -27.202  12.832  0.00  0.00    -0.056 C 
ATOM     11  C   LIG    1       26.942 -25.953  13.362  0.00  0.00    +0.051 C 
ATOM     12  C   LIG    1       25.514 -25.523  13.606  0.00  0.00    +0.179 C 
ATOM     13  O   LIG    1       25.158 -24.359  13.486  0.00  0.00    -0.288 OA
ATOM     14  C   LIG    1       24.586 -26.576  14.108  0.00  0.00    +0.047 C 
ATOM     15  C   LIG    1       26.786 -27.260  11.327  0.00  0.00    +0.032 C 
ATOM     16  C   LIG    1       24.979 -27.862  14.166  0.00  0.00    -0.012 C 
ATOM     17  C   LIG    1       26.996 -28.645  10.735  0.00  0.00    +0.008 C 
ATOM     18  C   LIG    1       24.374 -30.017   9.499  0.00  0.00    +0.009 C 
ATOM     19  C   LIG    1       24.022 -30.928  13.169  0.00  0.00    +0.043 C 
ATOM     20  C   LIG    1       23.014 -30.711   9.444  0.00  0.00    +0.057 C 
ENDROOT
BRANCH   1  21
ATOM     21  C   LIG    1       23.598 -32.719  10.803  0.00  0.00    +0.214 C 
ATOM     22  O   LIG    1       23.454 -33.445  11.790  0.00  0.00    -0.289 OA
BRANCH  21  23
ATOM     23  C   LIG    1       24.604 -33.076   9.693  0.00  0.00    +0.310 C 
BRANCH  23  24
ATOM     24  O   LIG    1       25.975 -32.992  10.147  0.00  0.00    -0.457 OA
BRANCH  24  25
ATOM     25  C   LIG    1       26.948 -33.059   9.190  0.00  0.00    +0.307 C 
ATOM     26  O   LIG    1       27.903 -33.824   9.207  0.00  0.00    -0.251 OA
BRANCH  25  27
ATOM     27  C   LIG    1       26.635 -32.104   8.054  0.00  0.00    +0.117 C 
ATOM     28  C   LIG    1       27.289 -32.621   6.796  0.00  0.00    +0.015 C 
ENDBRANCH  25  27
ENDBRANCH  24  25
ENDBRANCH  23  24
ENDBRANCH  21  23
ENDBRANCH   1  21
BRANCH   7  29
ATOM     29  O   LIG    1       26.171 -32.090  13.246  0.00  0.00    -0.391 OA
ATOM     30  H   LIG    1       26.734 -32.318  14.016  0.00  0.00    +0.210 HD
ENDBRANCH   7  29
BRANCH   1  31
ATOM     31  O   LIG    1       21.416 -31.458  11.205  0.00  0.00    -0.419 OA
BRANCH  31  32
ATOM     32  C   LIG    1       20.463 -31.935  10.332  0.00  0.00    +0.511 C 
ATOM     33  O   LIG    1       20.471 -33.010   9.820  0.00  0.00    -0.203 OA
BRANCH  32  34
ATOM     34  O   LIG    1       19.626 -30.890  10.082  0.00  0.00    -0.434 OA
BRANCH  34  36
ATOM     35  C   LIG    1       17.559 -31.541  11.270  0.00  0.00    +0.048 C 
ATOM     36  C   LIG    1       18.195 -31.181   9.934  0.00  0.00    +0.232 C 
ENDBRANCH  34  36
ENDBRANCH  32  34
ENDBRANCH  31  32
ENDBRANCH   1  31
TORSDOF 10
ENDMDL
MODEL 3
REMARK VINA RESULT:      -5.0      1.932      5.193
REMARK  Name = *****
REMARK                            x       y       z     vdW  Elec       q    Type
REMARK                         _______ _______ _______ _____ _____    ______ ____
ROOT
ATOM      1  C   LIG    1       25.627 -30.284  11.385  0.00  0.00    +0.183 C 
ATOM      2  C   LIG    1       24.013 -30.217  11.649  0.00  0.00    +0.021 C 
ATOM      3  C   LIG    1       23.733 -28.946  12.520  0.00  0.00    +0.016 C 
ATOM      4  C   LIG    1       23.661 -31.443  12.557  0.00  0.00    +0.003 C 
ATOM      5  C   LIG    1       22.692 -32.514  12.001  0.00  0.00    -0.000 C 
ATOM      6  C   LIG    1       21.530 -31.971  11.144  0.00  0.00    +0.035 C 
ATOM      7  C   LIG    1       22.095 -31.133   9.989  0.00  0.00    +0.120 C 
ATOM      8  C   LIG    1       20.278 -31.356  11.887  0.00  0.00    +0.013 C 
ATOM      9  C   LIG    1       19.065 -31.471  10.912  0.00  0.00    +0.020 C 
ATOM     10  C   LIG    1       19.948 -32.112  13.196  0.00  0.00    -0.056 C 
ATOM     11  C   LIG    1       18.936 -31.636  13.962  0.00  0.00    +0.051 C 
ATOM     12  C   LIG    1       19.263 -30.230  14.408  0.00  0.00    +0.179 C 
ATOM     13  O   LIG    1       18.915 -29.799  15.498  0.00  0.00    -0.288 OA
ATOM     14  C   LIG    1       19.939 -29.361  13.403  0.00  0.00    +0.047 C 
ATOM     15  C   LIG    1       21.094 -32.736  13.967  0.00  0.00    +0.032 C 
ATOM     16  C   LIG    1       20.374 -29.875  12.239  0.00  0.00    -0.012 C 
ATOM     17  C   LIG    1       22.121 -33.437  13.089  0.00  0.00    +0.008 C 
ATOM     18  C   LIG    1       25.011 -32.049  12.990  0.00  0.00    +0.009 C 
ATOM     19  C   LIG    1       23.148 -30.059  10.346  0.00  0.00    +0.043 C 
ATOM     20  C   LIG    1       26.099 -31.034  12.645  0.00  0.00    +0.057 C 
ENDROOT
BRANCH   1  21
ATOM     21  C   LIG    1       25.924 -31.176  10.161  0.00  0.00    +0.214 C 
ATOM     22  O   LIG    1       26.049 -32.383  10.384  0.00  0.00    -0.289 OA
BRANCH  21  23
ATOM     23  C   LIG    1       26.167 -30.597   8.755  0.00  0.00    +0.310 C 
BRANCH  23  24
ATOM     24  O   LIG    1       25.256 -31.143   7.773  0.00  0.00    -0.457 OA
BRANCH  24  25
ATOM     25  C   LIG    1       24.523 -30.247   7.045  0.00  0.00    +0.307 C 
ATOM     26  O   LIG    1       23.523 -30.518   6.394  0.00  0.00    -0.251 OA
BRANCH  25  27
ATOM     27  C   LIG    1       25.076 -28.847   7.226  0.00  0.00    +0.117 C 
ATOM     28  C   LIG    1       24.448 -27.944   6.192  0.00  0.00    +0.015 C 
ENDBRANCH  25  27
ENDBRANCH  24  25
ENDBRANCH  23  24
ENDBRANCH  21  23
ENDBRANCH   1  21
BRANCH   7  29
ATOM     29  O   LIG    1       22.621 -32.037   9.010  0.00  0.00    -0.391 OA
ATOM     30  H   LIG    1       23.203 -32.672   9.478  0.00  0.00    +0.210 HD
ENDBRANCH   7  29
BRANCH   1  31
ATOM     31  O   LIG    1       26.089 -28.915  11.333  0.00  0.00    -0.419 OA
BRANCH  31  32
ATOM     32  C   LIG    1       27.378 -28.600  11.702  0.00  0.00    +0.511 C 
ATOM     33  O   LIG    1       28.366 -29.055  11.219  0.00  0.00    -0.203 OA
BRANCH  32  34
ATOM     34  O   LIG    1       27.269 -27.798  12.798  0.00  0.00    -0.434 OA
BRANCH  34  36
ATOM     35  C   LIG    1       25.764 -26.080  13.740  0.00  0.00    +0.048 C 
ATOM     36  C   LIG    1       26.713 -26.453  12.609  0.00  0.00    +0.232 C 
ENDBRANCH  34  36
ENDBRANCH  32  34
ENDBRANCH  31  32
ENDBRANCH   1  31
TORSDOF 10
ENDMDL
MODEL 4
REMARK VINA RESULT:      -4.9      0.955      1.186
REMARK  Name = *****
REMARK                            x       y       z     vdW  Elec       q    Type
REMARK                         _______ _______ _______ _____ _____    ______ ____
ROOT
ATOM      1  C   LIG    1       25.185 -31.858   8.341  0.00  0.00    +0.183 C 
ATOM      2  C   LIG    1       24.026 -32.233   9.435  0.00  0.00    +0.021 C 
ATOM      3  C   LIG    1       22.871 -32.958   8.664  0.00  0.00    +0.016 C 
ATOM      4  C   LIG    1       23.423 -30.873   9.925  0.00  0.00    +0.003 C 
ATOM      5  C   LIG    1       23.557 -30.509  11.422  0.00  0.00    -0.000 C 
ATOM      6  C   LIG    1       23.410 -31.689  12.405  0.00  0.00    +0.035 C 
ATOM      7  C   LIG    1       24.425 -32.783  12.044  0.00  0.00    +0.120 C 
ATOM      8  C   LIG    1       21.954 -32.195  12.753  0.00  0.00    +0.013 C 
ATOM      9  C   LIG    1       22.033 -32.895  14.145  0.00  0.00    +0.020 C 
ATOM     10  C   LIG    1       20.937 -31.031  12.829  0.00  0.00    -0.056 C 
ATOM     11  C   LIG    1       19.636 -31.344  13.052  0.00  0.00    +0.051 C 
ATOM     12  C   LIG    1       19.130 -32.217  11.927  0.00  0.00    +0.179 C 
ATOM     13  O   LIG    1       17.976 -32.156  11.528  0.00  0.00    -0.288 OA
ATOM     14  C   LIG    1       20.085 -33.235  11.404  0.00  0.00    +0.047 C 
ATOM     15  C   LIG    1       21.161 -29.829  11.935  0.00  0.00    +0.032 C 
ATOM     16  C   LIG    1       21.369 -33.239  11.808  0.00  0.00    -0.012 C 
ATOM     17  C   LIG    1       22.612 -29.378  11.857  0.00  0.00    +0.008 C 
ATOM     18  C   LIG    1       24.023 -29.789   9.006  0.00  0.00    +0.009 C 
ATOM     19  C   LIG    1       24.493 -33.221  10.563  0.00  0.00    +0.043 C 
ATOM     20  C   LIG    1       24.670 -30.503   7.820  0.00  0.00    +0.057 C 
ENDROOT
BRANCH   1  21
ATOM     21  C   LIG    1       26.528 -31.612   9.061  0.00  0.00    +0.214 C 
ATOM     22  O   LIG    1       27.128 -32.616   9.453  0.00  0.00    -0.289 OA
BRANCH  21  23
ATOM     23  C   LIG    1       27.048 -30.198   9.380  0.00  0.00    +0.310 C 
BRANCH  23  24
ATOM     24  O   LIG    1       27.939 -30.186  10.519  0.00  0.00    -0.457 OA
BRANCH  24  25
ATOM     25  C   LIG    1       27.486 -29.569  11.652  0.00  0.00    +0.307 C 
ATOM     26  O   LIG    1       27.619 -29.997  12.790  0.00  0.00    -0.251 OA
BRANCH  25  27
ATOM     27  C   LIG    1       26.863 -28.230  11.306  0.00  0.00    +0.117 C 
ATOM     28  C   LIG    1       25.949 -27.818  12.434  0.00  0.00    +0.015 C 
ENDBRANCH  25  27
ENDBRANCH  24  25
ENDBRANCH  23  24
ENDBRANCH  21  23
ENDBRANCH   1  21
BRANCH   7  29
ATOM     29  O   LIG    1       25.714 -32.348  12.492  0.00  0.00    -0.391 OA
ATOM     30  H   LIG    1       25.819 -31.411  12.222  0.00  0.00    +0.210 HD
ENDBRANCH   7  29
BRANCH   1  31
ATOM     31  O   LIG    1       25.152 -32.900   7.339  0.00  0.00    -0.419 OA
BRANCH  31  32
ATOM     32  C   LIG    1       25.852 -32.757   6.162  0.00  0.00    +0.511 C 
ATOM     33  O   LIG    1       26.975 -32.371   6.067  0.00  0.00    -0.203 OA
BRANCH  32  34
ATOM     34  O   LIG    1       24.960 -33.002   5.162  0.00  0.00    -0.434 OA
BRANCH  34  36
ATOM     35  C   LIG    1       25.724 -32.834   2.818  0.00  0.00    +0.048 C 
ATOM     36  C   LIG    1       25.431 -33.756   3.994  0.00  0.00    +0.232 C 
ENDBRANCH  34  36
ENDBRANCH  32  34
ENDBRANCH  31  32
ENDBRANCH   1  31
TORSDOF 10
ENDMDL
MODEL 5
REMARK VINA RESULT:      -4.9      2.095      3.790
REMARK  Name = *****
REMARK                            x       y       z     vdW  Elec       q    Type
REMARK                         _______ _______ _______ _____ _____    ______ ____
ROOT
ATOM      1  C   LIG    1       25.592 -30.697   8.576  0.00  0.00    +0.183 C 
ATOM      2  C   LIG    1       24.558 -30.605   9.842  0.00  0.00    +0.021 C 
ATOM      3  C   LIG    1       23.196 -30.060   9.296  0.00  0.00    +0.016 C 
ATOM      4  C   LIG    1       25.115 -29.489  10.789  0.00  0.00    +0.003 C 
ATOM      5  C   LIG    1       25.535 -29.887  12.224  0.00  0.00    -0.000 C 
ATOM      6  C   LIG    1       24.642 -30.946  12.904  0.00  0.00    +0.035 C 
ATOM      7  C   LIG    1       24.570 -32.198  12.018  0.00  0.00    +0.120 C 
ATOM      8  C   LIG    1       23.273 -30.473  13.534  0.00  0.00    +0.013 C 
ATOM      9  C   LIG    1       22.896 -31.508  14.640  0.00  0.00    +0.020 C 
ATOM     10  C   LIG    1       23.379 -29.068  14.173  0.00  0.00    -0.056 C 
ATOM     11  C   LIG    1       22.250 -28.521  14.687  0.00  0.00    +0.051 C 
ATOM     12  C   LIG    1       21.224 -28.361  13.588  0.00  0.00    +0.179 C 
ATOM     13  O   LIG    1       20.434 -27.428  13.569  0.00  0.00    -0.288 OA
ATOM     14  C   LIG    1       21.156 -29.464  12.587  0.00  0.00    +0.047 C 
ATOM     15  C   LIG    1       24.347 -28.077  13.557  0.00  0.00    +0.032 C 
ATOM     16  C   LIG    1       22.078 -30.444  12.586  0.00  0.00    -0.012 C 
ATOM     17  C   LIG    1       25.686 -28.682  13.167  0.00  0.00    +0.008 C 
ATOM     18  C   LIG    1       26.263 -28.811  10.014  0.00  0.00    +0.009 C 
ATOM     19  C   LIG    1       24.242 -31.985  10.523  0.00  0.00    +0.043 C 
ATOM     20  C   LIG    1       26.162 -29.265   8.559  0.00  0.00    +0.057 C 
ENDROOT
BRANCH   1  21
ATOM     21  C   LIG    1       26.747 -31.665   8.909  0.00  0.00    +0.214 C 
ATOM     22  O   LIG    1       27.525 -31.301   9.795  0.00  0.00    -0.289 OA
BRANCH  21  23
ATOM     23  C   LIG    1       26.996 -32.960   8.114  0.00  0.00    +0.310 C 
BRANCH  23  24
ATOM     24  O   LIG    1       27.849 -32.743   6.966  0.00  0.00    -0.457 OA
BRANCH  24  25
ATOM     25  C   LIG    1       27.554 -33.451   5.834  0.00  0.00    +0.307 C 
ATOM     26  O   LIG    1       28.365 -33.794   4.985  0.00  0.00    -0.251 OA
BRANCH  25  27
ATOM     27  C   LIG    1       26.084 -33.825   5.818  0.00  0.00    +0.117 C 
ATOM     28  C   LIG    1       25.602 -33.822   4.387  0.00  0.00    +0.015 C 
ENDBRANCH  25  27
ENDBRANCH  24  25
ENDBRANCH  23  24
ENDBRANCH  21  23
ENDBRANCH   1  21
BRANCH   7  29
ATOM     29  O   LIG    1       25.808 -32.904  12.159  0.00  0.00    -0.391 OA
ATOM     30  H   LIG    1       25.787 -33.661  11.535  0.00  0.00    +0.210 HD
ENDBRANCH   7  29
BRANCH   1  31
ATOM     31  O   LIG    1       24.788 -31.001   7.414  0.00  0.00    -0.419 OA
BRANCH  31  32
ATOM     32  C   LIG    1       24.961 -30.296   6.244  0.00  0.00    +0.511 C 
ATOM     33  O   LIG    1       25.852 -30.450   5.469  0.00  0.00    -0.203 OA
BRANCH  32  34
ATOM     34  O   LIG    1       24.007 -29.323   6.247  0.00  0.00    -0.434 OA
BRANCH  34  36
ATOM     35  C   LIG    1       24.343 -26.892   5.960  0.00  0.00    +0.048 C 
ATOM     36  C   LIG    1       24.136 -28.235   5.271  0.00  0.00    +0.232 C 
ENDBRANCH  34  36
ENDBRANCH  32  34
ENDBRANCH  31  32
ENDBRANCH   1  31
TORSDOF 10
ENDMDL
MODEL 6
REMARK VINA RESULT:      -4.8      2.296      5.162
REMARK  Name = *****
REMARK                            x       y       z     vdW  Elec       q    Type
REMARK                         _______ _______ _______ _____ _____    ______ ____
ROOT
ATOM      1  C   LIG    1       25.521 -30.952   7.708  0.00  0.00    +0.183 C 
ATOM      2  C   LIG    1       25.079 -30.394   9.182  0.00  0.00    +0.021 C 
ATOM      3  C   LIG    1       25.927 -29.110   9.471  0.00  0.00    +0.016 C 
ATOM      4  C   LIG    1       25.556 -31.463  10.222  0.00  0.00    +0.003 C 
ATOM      5  C   LIG    1       24.487 -32.176  11.085  0.00  0.00    -0.000 C 
ATOM      6  C   LIG    1       23.309 -31.291  11.541  0.00  0.00    +0.035 C 
ATOM      7  C   LIG    1       22.644 -30.653  10.312  0.00  0.00    +0.120 C 
ATOM      8  C   LIG    1       23.531 -30.329  12.774  0.00  0.00    +0.013 C 
ATOM      9  C   LIG    1       22.128 -30.052  13.398  0.00  0.00    +0.020 C 
ATOM     10  C   LIG    1       24.446 -30.963  13.849  0.00  0.00    -0.056 C 
ATOM     11  C   LIG    1       24.769 -30.207  14.928  0.00  0.00    +0.051 C 
ATOM     12  C   LIG    1       25.518 -28.976  14.472  0.00  0.00    +0.179 C 
ATOM     13  O   LIG    1       26.407 -28.472  15.143  0.00  0.00    -0.288 OA
ATOM     14  C   LIG    1       25.039 -28.346  13.209  0.00  0.00    +0.047 C 
ATOM     15  C   LIG    1       25.528 -31.919  13.390  0.00  0.00    +0.032 C 
ATOM     16  C   LIG    1       24.108 -28.954  12.451  0.00  0.00    -0.012 C 
ATOM     17  C   LIG    1       25.077 -32.891  12.311  0.00  0.00    +0.008 C 
ATOM     18  C   LIG    1       26.427 -32.462   9.432  0.00  0.00    +0.009 C 
ATOM     19  C   LIG    1       23.572 -29.961   9.288  0.00  0.00    +0.043 C 
ATOM     20  C   LIG    1       26.734 -31.827   8.077  0.00  0.00    +0.057 C 
ENDROOT
BRANCH   1  21
ATOM     21  C   LIG    1       24.421 -31.877   7.144  0.00  0.00    +0.214 C 
ATOM     22  O   LIG    1       23.256 -31.529   7.352  0.00  0.00    -0.289 OA
BRANCH  21  23
ATOM     23  C   LIG    1       24.741 -33.220   6.460  0.00  0.00    +0.310 C 
BRANCH  23  24
ATOM     24  O   LIG    1       24.695 -33.125   5.018  0.00  0.00    -0.457 OA
BRANCH  24  25
ATOM     25  C   LIG    1       25.894 -33.105   4.361  0.00  0.00    +0.307 C 
ATOM     26  O   LIG    1       26.983 -33.314   4.876  0.00  0.00    -0.251 OA
BRANCH  25  27
ATOM     27  C   LIG    1       25.676 -32.868   2.879  0.00  0.00    +0.117 C 
ATOM     28  C   LIG    1       27.020 -32.850   2.192  0.00  0.00    +0.015 C 
ENDBRANCH  25  27
ENDBRANCH  24  25
ENDBRANCH  23  24
ENDBRANCH  21  23
ENDBRANCH   1  21
BRANCH   7  29
ATOM     29  O   LIG    1       21.859 -31.663   9.667  0.00  0.00    -0.391 OA
ATOM     30  H   LIG    1       21.328 -32.110  10.361  0.00  0.00    +0.210 HD
ENDBRANCH   7  29
BRANCH   1  31
ATOM     31  O   LIG    1       25.876 -29.792   6.923  0.00  0.00    -0.419 OA
BRANCH  31  32
ATOM     32  C   LIG    1       25.092 -29.404   5.859  0.00  0.00    +0.511 C 
ATOM     33  O   LIG    1       25.250 -29.735   4.726  0.00  0.00    -0.203 OA
BRANCH  32  34
ATOM     34  O   LIG    1       24.224 -28.477   6.351  0.00  0.00    -0.434 OA
BRANCH  34  36
ATOM     35  C   LIG    1       25.634 -26.469   6.645  0.00  0.00    +0.048 C 
ATOM     36  C   LIG    1       24.420 -27.077   5.955  0.00  0.00    +0.232 C 
ENDBRANCH  34  36
ENDBRANCH  32  34
ENDBRANCH  31  32
ENDBRANCH   1  31
TORSDOF 10
ENDMDL
MODEL 7
REMARK VINA RESULT:      -4.7      3.614      7.809
REMARK  Name = *****
REMARK                            x       y       z     vdW  Elec       q    Type
REMARK                         _______ _______ _______ _____ _____    ______ ____
ROOT
ATOM      1  C   LIG    1       20.904 -30.486  13.059  0.00  0.00    +0.183 C 
ATOM      2  C   LIG    1       22.347 -29.755  12.809  0.00  0.00    +0.021 C 
ATOM      3  C   LIG    1       22.782 -30.069  11.338  0.00  0.00    +0.016 C 
ATOM      4  C   LIG    1       23.381 -30.491  13.726  0.00  0.00    +0.003 C 
ATOM      5  C   LIG    1       24.092 -29.674  14.832  0.00  0.00    -0.000 C 
ATOM      6  C   LIG    1       24.461 -28.226  14.449  0.00  0.00    +0.035 C 
ATOM      7  C   LIG    1       23.200 -27.483  13.985  0.00  0.00    +0.120 C 
ATOM      8  C   LIG    1       25.754 -27.992  13.572  0.00  0.00    +0.013 C 
ATOM      9  C   LIG    1       26.238 -26.534  13.850  0.00  0.00    +0.020 C 
ATOM     10  C   LIG    1       26.890 -28.979  13.934  0.00  0.00    -0.056 C 
ATOM     11  C   LIG    1       28.030 -28.925  13.202  0.00  0.00    +0.051 C 
ATOM     12  C   LIG    1       27.712 -29.226  11.755  0.00  0.00    +0.179 C 
ATOM     13  O   LIG    1       28.496 -29.821  11.030  0.00  0.00    -0.288 OA
ATOM     14  C   LIG    1       26.436 -28.661  11.231  0.00  0.00    +0.047 C 
ATOM     15  C   LIG    1       26.504 -30.362  14.416  0.00  0.00    +0.032 C 
ATOM     16  C   LIG    1       25.557 -28.071  12.061  0.00  0.00    -0.012 C 
ATOM     17  C   LIG    1       25.340 -30.374  15.394  0.00  0.00    +0.008 C 
ATOM     18  C   LIG    1       22.643 -31.720  14.295  0.00  0.00    +0.009 C 
ATOM     19  C   LIG    1       22.312 -28.189  12.935  0.00  0.00    +0.043 C 
ATOM     20  C   LIG    1       21.358 -31.895  13.486  0.00  0.00    +0.057 C 
ENDROOT
BRANCH   1  21
ATOM     21  C   LIG    1       20.185 -29.834  14.260  0.00  0.00    +0.214 C 
ATOM     22  O   LIG    1       20.579 -30.171  15.379  0.00  0.00    -0.289 OA
BRANCH  21  23
ATOM     23  C   LIG    1       18.969 -28.904  14.090  0.00  0.00    +0.310 C 
BRANCH  23  24
ATOM     24  O   LIG    1       19.253 -27.549  14.512  0.00  0.00    -0.457 OA
BRANCH  24  25
ATOM     25  C   LIG    1       18.280 -26.615  14.288  0.00  0.00    +0.307 C 
ATOM     26  O   LIG    1       18.374 -25.670  13.518  0.00  0.00    -0.251 OA
BRANCH  25  27
ATOM     27  C   LIG    1       17.028 -26.964  15.071  0.00  0.00    +0.117 C 
ATOM     28  C   LIG    1       15.829 -26.757  14.178  0.00  0.00    +0.015 C 
ENDBRANCH  25  27
ENDBRANCH  24  25
ENDBRANCH  23  24
ENDBRANCH  21  23
ENDBRANCH   1  21
BRANCH   7  29
ATOM     29  O   LIG    1       22.430 -27.161  15.149  0.00  0.00    -0.391 OA
ATOM     30  H   LIG    1       22.917 -27.505  15.928  0.00  0.00    +0.210 HD
ENDBRANCH   7  29
BRANCH   1  31
ATOM     31  O   LIG    1       20.214 -30.473  11.789  0.00  0.00    -0.419 OA
BRANCH  31  32
ATOM     32  C   LIG    1       19.627 -31.620  11.303  0.00  0.00    +0.511 C 
ATOM     33  O   LIG    1       19.977 -32.220  10.336  0.00  0.00    -0.203 OA
BRANCH  32  34
ATOM     34  O   LIG    1       18.513 -31.822  12.060  0.00  0.00    -0.434 OA
BRANCH  34  36
ATOM     35  C   LIG    1       16.277 -30.928  12.618  0.00  0.00    +0.048 C 
ATOM     36  C   LIG    1       17.225 -31.377  11.514  0.00  0.00    +0.232 C 
ENDBRANCH  34  36
ENDBRANCH  32  34
ENDBRANCH  31  32
ENDBRANCH   1  31
TORSDOF 10
ENDMDL
MODEL 8
REMARK VINA RESULT:      -4.6      2.052      6.854
REMARK  Name = *****
REMARK                            x       y       z     vdW  Elec       q    Type
REMARK                         _______ _______ _______ _____ _____    ______ ____
ROOT
ATOM      1  C   LIG    1       21.053 -31.246  12.781  0.00  0.00    +0.183 C 
ATOM      2  C   LIG    1       22.151 -30.903  11.616  0.00  0.00    +0.021 C 
ATOM      3  C   LIG    1       21.378 -30.810  10.257  0.00  0.00    +0.016 C 
ATOM      4  C   LIG    1       23.076 -32.161  11.495  0.00  0.00    +0.003 C 
ATOM      5  C   LIG    1       24.582 -31.997  11.808  0.00  0.00    -0.000 C 
ATOM      6  C   LIG    1       25.212 -30.666  11.344  0.00  0.00    +0.035 C 
ATOM      7  C   LIG    1       24.425 -29.493  11.946  0.00  0.00    +0.120 C 
ATOM      8  C   LIG    1       25.605 -30.517   9.821  0.00  0.00    +0.013 C 
ATOM      9  C   LIG    1       26.725 -29.433   9.741  0.00  0.00    +0.020 C 
ATOM     10  C   LIG    1       26.140 -31.842   9.226  0.00  0.00    -0.056 C 
ATOM     11  C   LIG    1       26.446 -31.861   7.905  0.00  0.00    +0.051 C 
ATOM     12  C   LIG    1       25.206 -31.556   7.097  0.00  0.00    +0.179 C 
ATOM     13  O   LIG    1       25.003 -32.064   6.003  0.00  0.00    -0.288 OA
ATOM     14  C   LIG    1       24.295 -30.518   7.658  0.00  0.00    +0.047 C 
ATOM     15  C   LIG    1       25.590 -33.143   9.774  0.00  0.00    +0.032 C 
ATOM     16  C   LIG    1       24.499 -30.024   8.893  0.00  0.00    -0.012 C 
ATOM     17  C   LIG    1       25.439 -33.161  11.287  0.00  0.00    +0.008 C 
ATOM     18  C   LIG    1       22.418 -33.255  12.361  0.00  0.00    +0.009 C 
ATOM     19  C   LIG    1       22.886 -29.528  11.802  0.00  0.00    +0.043 C 
ATOM     20  C   LIG    1       21.003 -32.784  12.694  0.00  0.00    +0.057 C 
ENDROOT
BRANCH   1  21
ATOM     21  C   LIG    1       21.619 -30.866  14.166  0.00  0.00    +0.214 C 
ATOM     22  O   LIG    1       22.592 -31.518  14.554  0.00  0.00    -0.289 OA
BRANCH  21  23
ATOM     23  C   LIG    1       20.950 -29.816  15.073  0.00  0.00    +0.310 C 
BRANCH  23  24
ATOM     24  O   LIG    1       21.223 -28.464  14.639  0.00  0.00    -0.457 OA
BRANCH  24  25
ATOM     25  C   LIG    1       20.197 -27.788  14.040  0.00  0.00    +0.307 C 
ATOM     26  O   LIG    1       19.010 -27.939  14.294  0.00  0.00    -0.251 OA
BRANCH  25  27
ATOM     27  C   LIG    1       20.742 -26.759  13.069  0.00  0.00    +0.117 C 
ATOM     28  C   LIG    1       22.185 -26.485  13.418  0.00  0.00    +0.015 C 
ENDBRANCH  25  27
ENDBRANCH  24  25
ENDBRANCH  23  24
ENDBRANCH  21  23
ENDBRANCH   1  21
BRANCH   7  29
ATOM     29  O   LIG    1       24.792 -29.382  13.325  0.00  0.00    -0.391 OA
ATOM     30  H   LIG    1       25.772 -29.339  13.366  0.00  0.00    +0.210 HD
ENDBRANCH   7  29
BRANCH   1  31
ATOM     31  O   LIG    1       19.817 -30.615  12.375  0.00  0.00    -0.419 OA
BRANCH  31  32
ATOM     32  C   LIG    1       18.608 -31.219  12.637  0.00  0.00    +0.511 C 
ATOM     33  O   LIG    1       18.238 -31.594  13.706  0.00  0.00    -0.203 OA
BRANCH  32  34
ATOM     34  O   LIG    1       18.018 -31.419  11.426  0.00  0.00    -0.434 OA
BRANCH  34  36
ATOM     35  C   LIG    1       18.560 -33.257   9.866  0.00  0.00    +0.048 C 
ATOM     36  C   LIG    1       17.702 -32.799  11.037  0.00  0.00    +0.232 C 
ENDBRANCH  34  36
ENDBRANCH  32  34
ENDBRANCH  31  32
ENDBRANCH   1  31
TORSDOF 10
ENDMDL
MODEL 9
REMARK VINA RESULT:      -4.4      2.857      3.949
REMARK  Name = *****
REMARK                            x       y       z     vdW  Elec       q    Type
REMARK                         _______ _______ _______ _____ _____    ______ ____
ROOT
ATOM      1  C   LIG    1       25.555 -30.428   8.649  0.00  0.00    +0.183 C 
ATOM      2  C   LIG    1       25.492 -30.695  10.264  0.00  0.00    +0.021 C 
ATOM      3  C   LIG    1       25.690 -32.231  10.492  0.00  0.00    +0.016 C 
ATOM      4  C   LIG    1       24.022 -30.383  10.707  0.00  0.00    +0.003 C 
ATOM      5  C   LIG    1       23.788 -29.239  11.721  0.00  0.00    -0.000 C 
ATOM      6  C   LIG    1       24.854 -29.110  12.829  0.00  0.00    +0.035 C 
ATOM      7  C   LIG    1       26.242 -28.962  12.188  0.00  0.00    +0.120 C 
ATOM      8  C   LIG    1       24.772 -30.096  14.061  0.00  0.00    +0.013 C 
ATOM      9  C   LIG    1       25.495 -29.397  15.255  0.00  0.00    +0.020 C 
ATOM     10  C   LIG    1       23.310 -30.401  14.466  0.00  0.00    -0.056 C 
ATOM     11  C   LIG    1       23.105 -31.291  15.469  0.00  0.00    +0.051 C 
ATOM     12  C   LIG    1       23.678 -32.633  15.073  0.00  0.00    +0.179 C 
ATOM     13  O   LIG    1       23.163 -33.685  15.423  0.00  0.00    -0.288 OA
ATOM     14  C   LIG    1       24.966 -32.603  14.324  0.00  0.00    +0.047 C 
ATOM     15  C   LIG    1       22.257 -30.412  13.377  0.00  0.00    +0.032 C 
ATOM     16  C   LIG    1       25.478 -31.437  13.890  0.00  0.00    -0.012 C 
ATOM     17  C   LIG    1       22.396 -29.280  12.370  0.00  0.00    +0.008 C 
ATOM     18  C   LIG    1       23.222 -30.179   9.404  0.00  0.00    +0.009 C 
ATOM     19  C   LIG    1       26.621 -29.975  11.085  0.00  0.00    +0.043 C 
ATOM     20  C   LIG    1       24.088 -30.684   8.252  0.00  0.00    +0.057 C 
ENDROOT
BRANCH   1  21
ATOM     21  C   LIG    1       25.869 -28.942   8.373  0.00  0.00    +0.214 C 
ATOM     22  O   LIG    1       26.691 -28.410   9.124  0.00  0.00    -0.289 OA
BRANCH  21  23
ATOM     23  C   LIG    1       25.125 -28.125   7.301  0.00  0.00    +0.310 C 
BRANCH  23  24
ATOM     24  O   LIG    1       25.820 -26.902   6.964  0.00  0.00    -0.457 OA
BRANCH  24  25
ATOM     25  C   LIG    1       25.438 -26.271   5.813  0.00  0.00    +0.307 C 
ATOM     26  O   LIG    1       25.964 -26.420   4.719  0.00  0.00    -0.251 OA
BRANCH  25  27
ATOM     27  C   LIG    1       24.210 -25.417   6.065  0.00  0.00    +0.117 C 
ATOM     28  C   LIG    1       24.650 -24.112   6.683  0.00  0.00    +0.015 C 
ENDBRANCH  25  27
ENDBRANCH  24  25
ENDBRANCH  23  24
ENDBRANCH  21  23
ENDBRANCH   1  21
BRANCH   7  29
ATOM     29  O   LIG    1       26.352 -27.623  11.691  0.00  0.00    -0.391 OA
ATOM     30  H   LIG    1       25.484 -27.186  11.827  0.00  0.00    +0.210 HD
ENDBRANCH   7  29
BRANCH   1  31
ATOM     31  O   LIG    1       26.469 -31.409   8.109  0.00  0.00    -0.419 OA
BRANCH  31  32
ATOM     32  C   LIG    1       26.044 -32.305   7.154  0.00  0.00    +0.511 C 
ATOM     33  O   LIG    1       25.644 -33.406   7.367  0.00  0.00    -0.203 OA
BRANCH  32  34
ATOM     34  O   LIG    1       26.315 -31.727   5.950  0.00  0.00    -0.434 OA
BRANCH  34  36
ATOM     35  C   LIG    1       25.524 -32.577   3.769  0.00  0.00    +0.048 C 
ATOM     36  C   LIG    1       26.625 -32.611   4.821  0.00  0.00    +0.232 C 
ENDBRANCH  34  36
ENDBRANCH  32  34
ENDBRANCH  31  32
ENDBRANCH   1  31
TORSDOF 10
ENDMDL
