MODEL 1
REMARK VINA RESULT:      -8.6      0.000      0.000
REMARK  Name = *****
REMARK                            x       y       z     vdW  Elec       q    Type
REMARK                         _______ _______ _______ _____ _____    ______ ____
ROOT
ATOM      1  C   LIG    1       28.927 -19.783   6.612  0.00  0.00    +0.162 A 
ATOM      2  C   LIG    1       27.605 -19.890   6.237  0.00  0.00    +0.167 A 
ATOM      3  O   LIG    1       26.963 -19.376   5.088  0.00  0.00    -0.481 OA
ATOM      4  C   LIG    1       25.978 -20.445   4.777  0.00  0.00    +0.213 C 
ATOM      5  C   LIG    1       25.537 -20.906   6.345  0.00  0.00    +0.044 C 
ATOM      6  C   LIG    1       24.258 -21.705   7.137  0.00  0.00    +0.021 C 
ATOM      7  C   LIG    1       24.884 -23.065   7.198  0.00  0.00    +0.065 C 
ATOM      8  N   LIG    1       25.080 -23.274   5.767  0.00  0.00    -0.302 NA
ATOM      9  C   LIG    1       24.440 -22.129   4.983  0.00  0.00    +0.085 C 
ATOM     10  C   LIG    1       24.646 -24.585   5.309  0.00  0.00    +0.105 C 
ATOM     11  C   LIG    1       26.267 -22.977   8.043  0.00  0.00    +0.054 C 
ATOM     12  C   LIG    1       27.232 -21.802   7.769  0.00  0.00    -0.038 A 
ATOM     13  C   LIG    1       28.561 -21.711   8.153  0.00  0.00    +0.008 A 
ATOM     14  C   LIG    1       22.620 -21.463   6.175  0.00  0.00    +0.009 C 
ATOM     15  C   LIG    1       22.756 -20.520   4.514  0.00  0.00    +0.035 C 
ATOM     16  C   LIG    1       24.417 -20.318   5.877  0.00  0.00    +0.031 C 
ATOM     17  C   LIG    1       24.428 -20.059   3.732  0.00  0.00    +0.156 C 
ATOM     18  C   LIG    1       26.803 -20.784   6.940  0.00  0.00    +0.011 A 
ATOM     19  C   LIG    1       29.384 -20.688   7.603  0.00  0.00    +0.050 A 
ENDROOT
BRANCH   1  21
ATOM     20  C   LIG    1       31.166 -19.027   6.710  0.00  0.00    +0.277 C 
ATOM     21  O   LIG    1       29.884 -18.959   6.100  0.00  0.00    -0.491 OA
ENDBRANCH   1  21
BRANCH  17  22
ATOM     22  O   LIG    1       24.515 -20.673   2.448  0.00  0.00    -0.388 OA
ATOM     23  H   LIG    1       24.536 -19.959   1.787  0.00  0.00    +0.210 HD
ENDBRANCH  17  22
TORSDOF 2
ENDMDL
MODEL 2
REMARK VINA RESULT:      -6.3      7.599     10.118
REMARK  Name = *****
REMARK                            x       y       z     vdW  Elec       q    Type
REMARK                         _______ _______ _______ _____ _____    ______ ____
ROOT
ATOM      1  C   LIG    1       24.778 -27.550   6.394  0.00  0.00    +0.162 A 
ATOM      2  C   LIG    1       24.380 -28.842   6.663  0.00  0.00    +0.167 A 
ATOM      3  O   LIG    1       23.651 -29.735   5.846  0.00  0.00    -0.481 OA
ATOM      4  C   LIG    1       24.273 -31.043   6.183  0.00  0.00    +0.213 C 
ATOM      5  C   LIG    1       24.553 -30.819   7.837  0.00  0.00    +0.044 C 
ATOM      6  C   LIG    1       24.827 -31.759   9.232  0.00  0.00    +0.021 C 
ATOM      7  C   LIG    1       26.323 -31.673   9.236  0.00  0.00    +0.065 C 
ATOM      8  N   LIG    1       26.573 -32.255   7.922  0.00  0.00    -0.302 NA
ATOM      9  C   LIG    1       25.264 -32.765   7.321  0.00  0.00    +0.085 C 
ATOM     10  C   LIG    1       27.624 -33.263   7.926  0.00  0.00    +0.105 C 
ATOM     11  C   LIG    1       26.766 -30.116   9.358  0.00  0.00    +0.054 C 
ATOM     12  C   LIG    1       26.032 -29.064   8.496  0.00  0.00    -0.038 A 
ATOM     13  C   LIG    1       26.448 -27.767   8.235  0.00  0.00    +0.008 A 
ATOM     14  C   LIG    1       23.981 -33.468   9.063  0.00  0.00    +0.009 C 
ATOM     15  C   LIG    1       23.138 -33.823   7.380  0.00  0.00    +0.035 C 
ATOM     16  C   LIG    1       23.585 -31.758   7.819  0.00  0.00    +0.031 C 
ATOM     17  C   LIG    1       23.325 -32.671   5.878  0.00  0.00    +0.156 C 
ATOM     18  C   LIG    1       24.918 -29.465   7.784  0.00  0.00    +0.011 A 
ATOM     19  C   LIG    1       25.799 -27.012   7.218  0.00  0.00    +0.050 A 
ENDROOT
BRANCH   1  21
ATOM     20  C   LIG    1       25.140 -25.563   5.162  0.00  0.00    +0.277 C 
ATOM     21  O   LIG    1       24.364 -26.734   5.384  0.00  0.00    -0.491 OA
ENDBRANCH   1  21
BRANCH  17  22
ATOM     22  O   LIG    1       23.913 -33.410   4.809  0.00  0.00    -0.388 OA
ATOM     23  H   LIG    1       24.761 -32.984   4.595  0.00  0.00    +0.210 HD
ENDBRANCH  17  22
TORSDOF 2
ENDMDL
MODEL 3
REMARK VINA RESULT:      -5.8      2.556      5.318
REMARK  Name = *****
REMARK                            x       y       z     vdW  Elec       q    Type
REMARK                         _______ _______ _______ _____ _____    ______ ____
ROOT
ATOM      1  C   LIG    1       25.702 -26.138   5.954  0.00  0.00    +0.162 A 
ATOM      2  C   LIG    1       26.009 -24.915   6.511  0.00  0.00    +0.167 A 
ATOM      3  O   LIG    1       27.243 -24.226   6.517  0.00  0.00    -0.481 OA
ATOM      4  C   LIG    1       26.809 -22.809   6.398  0.00  0.00    +0.213 C 
ATOM      5  C   LIG    1       25.404 -22.851   7.342  0.00  0.00    +0.044 C 
ATOM      6  C   LIG    1       24.392 -21.771   8.186  0.00  0.00    +0.021 C 
ATOM      7  C   LIG    1       23.353 -21.601   7.119  0.00  0.00    +0.065 C 
ATOM      8  N   LIG    1       24.217 -21.090   6.060  0.00  0.00    -0.302 NA
ATOM      9  C   LIG    1       25.626 -20.860   6.605  0.00  0.00    +0.085 C 
ATOM     10  C   LIG    1       23.674 -19.921   5.383  0.00  0.00    +0.105 C 
ATOM     11  C   LIG    1       22.692 -23.045   6.785  0.00  0.00    +0.054 C 
ATOM     12  C   LIG    1       23.619 -24.271   6.634  0.00  0.00    -0.038 A 
ATOM     13  C   LIG    1       23.294 -25.495   6.069  0.00  0.00    +0.008 A 
ATOM     14  C   LIG    1       25.388 -20.249   8.783  0.00  0.00    +0.009 C 
ATOM     15  C   LIG    1       27.219 -20.176   8.229  0.00  0.00    +0.035 C 
ATOM     16  C   LIG    1       26.242 -22.094   8.080  0.00  0.00    +0.031 C 
ATOM     17  C   LIG    1       27.956 -21.395   6.968  0.00  0.00    +0.156 C 
ATOM     18  C   LIG    1       24.955 -24.123   6.955  0.00  0.00    +0.011 A 
ATOM     19  C   LIG    1       24.327 -26.428   5.768  0.00  0.00    +0.050 A 
ENDROOT
BRANCH   1  21
ATOM     20  C   LIG    1       25.978 -28.335   5.120  0.00  0.00    +0.277 C 
ATOM     21  O   LIG    1       26.559 -27.090   5.486  0.00  0.00    -0.491 OA
ENDBRANCH   1  21
BRANCH  17  22
ATOM     22  O   LIG    1       28.444 -20.654   5.851  0.00  0.00    -0.388 OA
ATOM     23  H   LIG    1       28.959 -19.907   6.202  0.00  0.00    +0.210 HD
ENDBRANCH  17  22
TORSDOF 2
ENDMDL
MODEL 4
REMARK VINA RESULT:      -5.6      2.033      3.698
REMARK  Name = *****
REMARK                            x       y       z     vdW  Elec       q    Type
REMARK                         _______ _______ _______ _____ _____    ______ ____
ROOT
ATOM      1  C   LIG    1       29.306 -18.767   6.504  0.00  0.00    +0.162 A 
ATOM      2  C   LIG    1       28.442 -19.827   6.675  0.00  0.00    +0.167 A 
ATOM      3  O   LIG    1       28.222 -20.617   7.827  0.00  0.00    -0.481 OA
ATOM      4  C   LIG    1       26.762 -20.887   7.744  0.00  0.00    +0.213 C 
ATOM      5  C   LIG    1       26.587 -21.057   6.069  0.00  0.00    +0.044 C 
ATOM      6  C   LIG    1       25.498 -21.744   4.954  0.00  0.00    +0.021 C 
ATOM      7  C   LIG    1       24.724 -20.499   4.643  0.00  0.00    +0.065 C 
ATOM      8  N   LIG    1       24.265 -20.190   5.993  0.00  0.00    -0.302 NA
ATOM      9  C   LIG    1       24.659 -21.317   6.947  0.00  0.00    +0.085 C 
ATOM     10  C   LIG    1       22.849 -19.860   6.062  0.00  0.00    +0.105 C 
ATOM     11  C   LIG    1       25.732 -19.388   4.023  0.00  0.00    +0.054 C 
ATOM     12  C   LIG    1       27.108 -19.177   4.691  0.00  0.00    -0.038 A 
ATOM     13  C   LIG    1       27.965 -18.102   4.507  0.00  0.00    +0.008 A 
ATOM     14  C   LIG    1       24.598 -23.242   5.737  0.00  0.00    +0.009 C 
ATOM     15  C   LIG    1       24.985 -23.583   7.581  0.00  0.00    +0.035 C 
ATOM     16  C   LIG    1       26.368 -22.308   6.524  0.00  0.00    +0.031 C 
ATOM     17  C   LIG    1       26.002 -22.384   8.652  0.00  0.00    +0.156 C 
ATOM     18  C   LIG    1       27.494 -20.058   5.683  0.00  0.00    +0.011 A 
ATOM     19  C   LIG    1       29.071 -17.926   5.387  0.00  0.00    +0.050 A 
ENDROOT
BRANCH   1  21
ATOM     20  C   LIG    1       31.436 -19.260   7.409  0.00  0.00    +0.277 C 
ATOM     21  O   LIG    1       30.328 -18.373   7.315  0.00  0.00    -0.491 OA
ENDBRANCH   1  21
BRANCH  17  22
ATOM     22  O   LIG    1       25.196 -21.958   9.749  0.00  0.00    -0.388 OA
ATOM     23  H   LIG    1       25.786 -21.846  10.514  0.00  0.00    +0.210 HD
ENDBRANCH  17  22
TORSDOF 2
ENDMDL
