MODEL 1
REMARK VINA RESULT:      -4.1      0.000      0.000
REMARK  Name = *****
REMARK                            x       y       z     vdW  Elec       q    Type
REMARK                         _______ _______ _______ _____ _____    ______ ____
ROOT
ATOM      1  CA  MET A  1       27.364 -14.116   4.151  0.00  0.00    +0.161 C 
ENDROOT
BRANCH   1   2
ATOM      2  N   MET A  1       28.249 -13.143   3.454  0.00  0.00    -0.318 NA
ATOM      3  H1  MET A  1       28.475 -13.547   2.536  0.00  0.00    +0.119 HD
ATOM      4  H2  MET A  1       29.166 -13.178   3.920  0.00  0.00    +0.119 HD
ENDBRANCH   1   2
BRANCH   1   5
ATOM      5  C   MET A  1       26.782 -15.049   3.065  0.00  0.00    +0.322 C 
ATOM      6  O   MET A  1       26.420 -16.198   3.218  0.00  0.00    -0.249 OA
BRANCH   5   7
ATOM      7  OXT MET A  1       26.766 -14.410   1.858  0.00  0.00    -0.479 OA
ATOM      8  HXT MET A  1       27.133 -13.505   2.031  0.00  0.00    +0.295 HD
ENDBRANCH   5   7
ENDBRANCH   1   5
BRANCH   1   9
ATOM      9  CB  MET A  1       26.263 -13.457   4.998  0.00  0.00    +0.040 C 
BRANCH   9  10
ATOM     10  CG  MET A  1       24.828 -13.655   4.485  0.00  0.00    +0.071 C 
BRANCH  10  12
ATOM     11  CE  MET A  1       24.420 -12.029   2.260  0.00  0.00    +0.084 C 
ATOM     12  SD  MET A  1       23.995 -12.096   4.020  0.00  0.00    -0.164 S 
ENDBRANCH  10  12
ENDBRANCH   9  10
ENDBRANCH   1   9
TORSDOF 6
ENDMDL
MODEL 2
REMARK VINA RESULT:      -4.0      2.364      2.818
REMARK  Name = *****
REMARK                            x       y       z     vdW  Elec       q    Type
REMARK                         _______ _______ _______ _____ _____    ______ ____
ROOT
ATOM      1  CA  MET A  1       27.883 -13.087   3.607  0.00  0.00    +0.161 C 
ENDROOT
BRANCH   1   2
ATOM      2  N   MET A  1       29.316 -13.325   3.281  0.00  0.00    -0.318 NA
ATOM      3  H1  MET A  1       29.340 -13.825   2.382  0.00  0.00    +0.119 HD
ATOM      4  H2  MET A  1       29.658 -14.051   3.925  0.00  0.00    +0.119 HD
ENDBRANCH   1   2
BRANCH   1   5
ATOM      5  C   MET A  1       27.784 -12.996   5.147  0.00  0.00    +0.322 C 
ATOM      6  O   MET A  1       26.973 -13.560   5.853  0.00  0.00    -0.249 OA
BRANCH   5   7
ATOM      7  OXT MET A  1       28.731 -12.136   5.627  0.00  0.00    -0.479 OA
ATOM      8  HXT MET A  1       28.240 -11.313   5.879  0.00  0.00    +0.295 HD
ENDBRANCH   5   7
ENDBRANCH   1   5
BRANCH   1   9
ATOM      9  CB  MET A  1       26.931 -14.145   3.028  0.00  0.00    +0.040 C 
BRANCH   9  10
ATOM     10  CG  MET A  1       25.724 -13.595   2.252  0.00  0.00    +0.071 C 
BRANCH  10  12
ATOM     11  CE  MET A  1       23.901 -14.428   4.187  0.00  0.00    +0.084 C 
ATOM     12  SD  MET A  1       24.409 -12.917   3.325  0.00  0.00    -0.164 S 
ENDBRANCH  10  12
ENDBRANCH   9  10
ENDBRANCH   1   9
TORSDOF 6
ENDMDL
MODEL 3
REMARK VINA RESULT:      -4.0      2.409      2.917
REMARK  Name = *****
REMARK                            x       y       z     vdW  Elec       q    Type
REMARK                         _______ _______ _______ _____ _____    ______ ____
ROOT
ATOM      1  CA  MET A  1       27.458 -13.861   4.758  0.00  0.00    +0.161 C 
ENDROOT
BRANCH   1   2
ATOM      2  N   MET A  1       26.683 -13.104   5.780  0.00  0.00    -0.318 NA
ATOM      3  H1  MET A  1       27.272 -13.047   6.622  0.00  0.00    +0.119 HD
ATOM      4  H2  MET A  1       25.926 -13.720   6.105  0.00  0.00    +0.119 HD
ENDBRANCH   1   2
BRANCH   1   5
ATOM      5  C   MET A  1       28.652 -12.967   4.350  0.00  0.00    +0.322 C 
ATOM      6  O   MET A  1       29.357 -13.107   3.371  0.00  0.00    -0.249 OA
BRANCH   5   7
ATOM      7  OXT MET A  1       28.848 -11.991   5.285  0.00  0.00    -0.479 OA
ATOM      8  HXT MET A  1       29.716 -12.204   5.713  0.00  0.00    +0.295 HD
ENDBRANCH   5   7
ENDBRANCH   1   5
BRANCH   1   9
ATOM      9  CB  MET A  1       26.622 -14.300   3.546  0.00  0.00    +0.040 C 
BRANCH   9  10
ATOM     10  CG  MET A  1       25.987 -13.159   2.735  0.00  0.00    +0.071 C 
BRANCH  10  12
ATOM     11  CE  MET A  1       23.883 -14.432   4.046  0.00  0.00    +0.084 C 
ATOM     12  SD  MET A  1       24.190 -12.974   3.014  0.00  0.00    -0.164 S 
ENDBRANCH  10  12
ENDBRANCH   9  10
ENDBRANCH   1   9
TORSDOF 6
ENDMDL
MODEL 4
REMARK VINA RESULT:      -3.8      3.043      3.879
REMARK  Name = *****
REMARK                            x       y       z     vdW  Elec       q    Type
REMARK                         _______ _______ _______ _____ _____    ______ ____
ROOT
ATOM      1  CA  MET A  1       24.439 -12.892   2.477  0.00  0.00    +0.161 C 
ENDROOT
BRANCH   1   2
ATOM      2  N   MET A  1       23.814 -11.560   2.246  0.00  0.00    -0.318 NA
ATOM      3  H1  MET A  1       24.121 -10.947   3.013  0.00  0.00    +0.119 HD
ATOM      4  H2  MET A  1       22.810 -11.654   2.454  0.00  0.00    +0.119 HD
ENDBRANCH   1   2
BRANCH   1   5
ATOM      5  C   MET A  1       24.004 -13.351   3.887  0.00  0.00    +0.322 C 
ATOM      6  O   MET A  1       23.611 -14.458   4.197  0.00  0.00    -0.249 OA
BRANCH   5   7
ATOM      7  OXT MET A  1       24.080 -12.307   4.765  0.00  0.00    -0.479 OA
ATOM      8  HXT MET A  1       23.453 -12.531   5.499  0.00  0.00    +0.295 HD
ENDBRANCH   5   7
ENDBRANCH   1   5
BRANCH   1   9
ATOM      9  CB  MET A  1       25.966 -12.896   2.312  0.00  0.00    +0.040 C 
BRANCH   9  10
ATOM     10  CG  MET A  1       26.644 -14.267   2.472  0.00  0.00    +0.071 C 
BRANCH  10  12
ATOM     11  CE  MET A  1       28.701 -12.988   3.848  0.00  0.00    +0.084 C 
ATOM     12  SD  MET A  1       27.615 -14.429   4.011  0.00  0.00    -0.164 S 
ENDBRANCH  10  12
ENDBRANCH   9  10
ENDBRANCH   1   9
TORSDOF 6
ENDMDL
MODEL 5
REMARK VINA RESULT:      -3.8      3.368      4.171
REMARK  Name = *****
REMARK                            x       y       z     vdW  Elec       q    Type
REMARK                         _______ _______ _______ _____ _____    ______ ____
ROOT
ATOM      1  CA  MET A  1       24.763 -13.248   3.827  0.00  0.00    +0.161 C 
ENDROOT
BRANCH   1   2
ATOM      2  N   MET A  1       23.812 -14.384   3.979  0.00  0.00    -0.318 NA
ATOM      3  H1  MET A  1       23.384 -14.293   4.911  0.00  0.00    +0.119 HD
ATOM      4  H2  MET A  1       24.373 -15.238   4.099  0.00  0.00    +0.119 HD
ENDBRANCH   1   2
BRANCH   1   5
ATOM      5  C   MET A  1       23.947 -11.951   4.025  0.00  0.00    +0.322 C 
ATOM      6  O   MET A  1       23.638 -11.447   5.086  0.00  0.00    -0.249 OA
BRANCH   5   7
ATOM      7  OXT MET A  1       23.566 -11.447   2.814  0.00  0.00    -0.479 OA
ATOM      8  HXT MET A  1       23.481 -12.232   2.214  0.00  0.00    +0.295 HD
ENDBRANCH   5   7
ENDBRANCH   1   5
BRANCH   1   9
ATOM      9  CB  MET A  1       25.526 -13.254   2.493  0.00  0.00    +0.040 C 
BRANCH   9  10
ATOM     10  CG  MET A  1       26.723 -14.216   2.421  0.00  0.00    +0.071 C 
BRANCH  10  12
ATOM     11  CE  MET A  1       28.683 -12.921   3.919  0.00  0.00    +0.084 C 
ATOM     12  SD  MET A  1       27.622 -14.388   4.002  0.00  0.00    -0.164 S 
ENDBRANCH  10  12
ENDBRANCH   9  10
ENDBRANCH   1   9
TORSDOF 6
ENDMDL
MODEL 6
REMARK VINA RESULT:      -3.7      7.165      7.777
REMARK  Name = *****
REMARK                            x       y       z     vdW  Elec       q    Type
REMARK                         _______ _______ _______ _____ _____    ______ ____
ROOT
ATOM      1  CA  MET A  1       25.002 -20.895   4.868  0.00  0.00    +0.161 C 
ENDROOT
BRANCH   1   2
ATOM      2  N   MET A  1       26.032 -20.071   4.176  0.00  0.00    -0.318 NA
ATOM      3  H1  MET A  1       26.646 -20.723   3.669  0.00  0.00    +0.119 HD
ATOM      4  H2  MET A  1       26.672 -19.714   4.899  0.00  0.00    +0.119 HD
ENDBRANCH   1   2
BRANCH   1   5
ATOM      5  C   MET A  1       23.697 -20.066   4.873  0.00  0.00    +0.322 C 
ATOM      6  O   MET A  1       22.848 -20.062   5.742  0.00  0.00    -0.249 OA
BRANCH   5   7
ATOM      7  OXT MET A  1       23.594 -19.345   3.718  0.00  0.00    -0.479 OA
ATOM      8  HXT MET A  1       22.679 -19.516   3.379  0.00  0.00    +0.295 HD
ENDBRANCH   5   7
ENDBRANCH   1   5
BRANCH   1   9
ATOM      9  CB  MET A  1       25.411 -21.341   6.280  0.00  0.00    +0.040 C 
BRANCH   9  10
ATOM     10  CG  MET A  1       26.449 -20.449   6.979  0.00  0.00    +0.071 C 
BRANCH  10  12
ATOM     11  CE  MET A  1       29.117 -19.773   6.546  0.00  0.00    +0.084 C 
ATOM     12  SD  MET A  1       28.117 -21.193   7.062  0.00  0.00    -0.164 S 
ENDBRANCH  10  12
ENDBRANCH   9  10
ENDBRANCH   1   9
TORSDOF 6
ENDMDL
MODEL 7
REMARK VINA RESULT:      -3.5      6.780      7.237
REMARK  Name = *****
REMARK                            x       y       z     vdW  Elec       q    Type
REMARK                         _______ _______ _______ _____ _____    ______ ____
ROOT
ATOM      1  CA  MET A  1       28.388 -20.446   6.276  0.00  0.00    +0.161 C 
ENDROOT
BRANCH   1   2
ATOM      2  N   MET A  1       29.400 -21.208   7.060  0.00  0.00    -0.318 NA
ATOM      3  H1  MET A  1       30.272 -21.197   6.514  0.00  0.00    +0.119 HD
ATOM      4  H2  MET A  1       29.141 -22.202   7.006  0.00  0.00    +0.119 HD
ENDBRANCH   1   2
BRANCH   1   5
ATOM      5  C   MET A  1       28.947 -19.017   6.093  0.00  0.00    +0.322 C 
ATOM      6  O   MET A  1       29.475 -18.333   6.947  0.00  0.00    -0.249 OA
BRANCH   5   7
ATOM      7  OXT MET A  1       28.727 -18.588   4.815  0.00  0.00    -0.479 OA
ATOM      8  HXT MET A  1       28.510 -19.403   4.294  0.00  0.00    +0.295 HD
ENDBRANCH   5   7
ENDBRANCH   1   5
BRANCH   1   9
ATOM      9  CB  MET A  1       26.988 -20.443   6.909  0.00  0.00    +0.040 C 
BRANCH   9  10
ATOM     10  CG  MET A  1       25.902 -21.185   6.114  0.00  0.00    +0.071 C 
BRANCH  10  12
ATOM     11  CE  MET A  1       23.541 -20.301   4.927  0.00  0.00    +0.084 C 
ATOM     12  SD  MET A  1       25.329 -20.278   4.634  0.00  0.00    -0.164 S 
ENDBRANCH  10  12
ENDBRANCH   9  10
ENDBRANCH   1   9
TORSDOF 6
ENDMDL
MODEL 8
REMARK VINA RESULT:      -3.5      6.669      7.290
REMARK  Name = *****
REMARK                            x       y       z     vdW  Elec       q    Type
REMARK                         _______ _______ _______ _____ _____    ______ ____
ROOT
ATOM      1  CA  MET A  1       25.208 -21.374   6.077  0.00  0.00    +0.161 C 
ENDROOT
BRANCH   1   2
ATOM      2  N   MET A  1       24.275 -20.758   7.061  0.00  0.00    -0.318 NA
ATOM      3  H1  MET A  1       24.665 -20.936   7.997  0.00  0.00    +0.119 HD
ATOM      4  H2  MET A  1       23.427 -21.340   7.082  0.00  0.00    +0.119 HD
ENDBRANCH   1   2
BRANCH   1   5
ATOM      5  C   MET A  1       26.497 -20.520   6.088  0.00  0.00    +0.322 C 
ATOM      6  O   MET A  1       27.165 -20.234   7.062  0.00  0.00    -0.249 OA
BRANCH   5   7
ATOM      7  OXT MET A  1       26.777 -20.077   4.827  0.00  0.00    -0.479 OA
ATOM      8  HXT MET A  1       25.925 -20.149   4.325  0.00  0.00    +0.295 HD
ENDBRANCH   5   7
ENDBRANCH   1   5
BRANCH   1   9
ATOM      9  CB  MET A  1       24.617 -21.511   4.666  0.00  0.00    +0.040 C 
BRANCH   9  10
ATOM     10  CG  MET A  1       23.296 -20.762   4.427  0.00  0.00    +0.071 C 
BRANCH  10  12
ATOM     11  CE  MET A  1       22.091 -18.251   4.476  0.00  0.00    +0.084 C 
ATOM     12  SD  MET A  1       23.519 -19.085   3.736  0.00  0.00    -0.164 S 
ENDBRANCH  10  12
ENDBRANCH   9  10
ENDBRANCH   1   9
TORSDOF 6
ENDMDL
MODEL 9
REMARK VINA RESULT:      -3.5      6.136      6.837
REMARK  Name = *****
REMARK                            x       y       z     vdW  Elec       q    Type
REMARK                         _______ _______ _______ _____ _____    ______ ____
ROOT
ATOM      1  CA  MET A  1       25.900 -20.009   3.917  0.00  0.00    +0.161 C 
ENDROOT
BRANCH   1   2
ATOM      2  N   MET A  1       27.085 -19.642   4.741  0.00  0.00    -0.318 NA
ATOM      3  H1  MET A  1       26.845 -19.850   5.720  0.00  0.00    +0.119 HD
ATOM      4  H2  MET A  1       27.135 -18.614   4.761  0.00  0.00    +0.119 HD
ENDBRANCH   1   2
BRANCH   1   5
ATOM      5  C   MET A  1       25.174 -18.690   3.565  0.00  0.00    +0.322 C 
ATOM      6  O   MET A  1       23.982 -18.477   3.653  0.00  0.00    -0.249 OA
BRANCH   5   7
ATOM      7  OXT MET A  1       26.069 -17.775   3.087  0.00  0.00    -0.479 OA
ATOM      8  HXT MET A  1       26.112 -17.932   2.109  0.00  0.00    +0.295 HD
ENDBRANCH   5   7
ENDBRANCH   1   5
BRANCH   1   9
ATOM      9  CB  MET A  1       24.964 -21.022   4.593  0.00  0.00    +0.040 C 
BRANCH   9  10
ATOM     10  CG  MET A  1       24.975 -21.007   6.130  0.00  0.00    +0.071 C 
BRANCH  10  12
ATOM     11  CE  MET A  1       22.293 -21.021   5.375  0.00  0.00    +0.084 C 
ATOM     12  SD  MET A  1       23.307 -20.939   6.874  0.00  0.00    -0.164 S 
ENDBRANCH  10  12
ENDBRANCH   9  10
ENDBRANCH   1   9
TORSDOF 6
ENDMDL
