MODEL 1
REMARK VINA RESULT:      -8.0      0.000      0.000
REMARK  Name = *****
REMARK                            x       y       z     vdW  Elec       q    Type
REMARK                         _______ _______ _______ _____ _____    ______ ____
ROOT
ATOM      1  C   LIG    1       26.992 -20.938   6.571  0.00  0.00    +0.034 A 
ATOM      2  C   LIG    1       27.942 -19.958   6.239  0.00  0.00    +0.042 A 
ATOM      3  C   LIG    1       29.176 -19.862   6.923  0.00  0.00    +0.133 A 
ATOM      4  C   LIG    1       29.421 -20.784   7.949  0.00  0.00    +0.285 A 
ATOM      5  C   LIG    1       28.485 -21.762   8.297  0.00  0.00    +0.086 A 
ATOM      6  C   LIG    1       27.276 -21.826   7.609  0.00  0.00    +0.030 A 
ENDROOT
BRANCH   1   8
ATOM      7  C   LIG    1       24.509 -20.811   6.345  0.00  0.00    +0.220 C 
ATOM      8  N   LIG    1       25.787 -20.971   5.833  0.00  0.00    -0.285 N 
ATOM      9  H   LIG    1       25.872 -21.124   4.838  0.00  0.00    +0.155 HD
ATOM     10  O   LIG    1       24.232 -20.641   7.527  0.00  0.00    -0.275 OA
BRANCH   7  12
ATOM     11  C   LIG    1       22.565 -19.604   5.323  0.00  0.00    +0.017 C 
ATOM     12  C   LIG    1       23.406 -20.887   5.287  0.00  0.00    +0.069 C 
ATOM     13  C   LIG    1       23.996 -21.094   3.894  0.00  0.00    +0.017 C 
ENDBRANCH   7  12
ENDBRANCH   1   8
BRANCH   3  14
ATOM     14  C   LIG    1       30.135 -18.771   6.526  0.00  0.00    +0.424 C 
ATOM     15  F   LIG    1       30.260 -17.828   7.497  0.00  0.00    -0.166 F 
ATOM     16  F   LIG    1       29.698 -18.101   5.422  0.00  0.00    -0.166 F 
ATOM     17  F   LIG    1       31.389 -19.181   6.218  0.00  0.00    -0.166 F 
ENDBRANCH   3  14
BRANCH   4  18
ATOM     18  N   LIG    1       30.645 -20.772   8.722  0.00  0.00    +0.080 N 
ATOM     19  O   LIG    1       30.692 -19.979   9.674  0.00  0.00    -0.576 OA
ATOM     20  O   LIG    1       31.524 -21.577   8.398  0.00  0.00    +0.042 OA
ENDBRANCH   4  18
TORSDOF 4
ENDMDL
MODEL 2
REMARK VINA RESULT:      -7.6      3.830      6.778
REMARK  Name = *****
REMARK                            x       y       z     vdW  Elec       q    Type
REMARK                         _______ _______ _______ _____ _____    ______ ____
ROOT
ATOM      1  C   LIG    1       27.202 -21.506   7.795  0.00  0.00    +0.034 A 
ATOM      2  C   LIG    1       26.861 -22.712   7.159  0.00  0.00    +0.042 A 
ATOM      3  C   LIG    1       25.543 -22.963   6.709  0.00  0.00    +0.133 A 
ATOM      4  C   LIG    1       24.587 -21.961   6.916  0.00  0.00    +0.285 A 
ATOM      5  C   LIG    1       24.908 -20.758   7.551  0.00  0.00    +0.086 A 
ATOM      6  C   LIG    1       26.212 -20.545   7.991  0.00  0.00    +0.030 A 
ENDROOT
BRANCH   1   8
ATOM      7  C   LIG    1       29.526 -20.634   7.522  0.00  0.00    +0.220 C 
ATOM      8  N   LIG    1       28.543 -21.332   8.207  0.00  0.00    -0.285 N 
ATOM      9  H   LIG    1       28.803 -21.755   9.087  0.00  0.00    +0.155 HD
ATOM     10  O   LIG    1       29.381 -20.085   6.435  0.00  0.00    -0.275 OA
BRANCH   7  12
ATOM     11  C   LIG    1       31.020 -19.318   9.042  0.00  0.00    +0.017 C 
ATOM     12  C   LIG    1       30.879 -20.614   8.234  0.00  0.00    +0.069 C 
ATOM     13  C   LIG    1       31.036 -21.827   9.149  0.00  0.00    +0.017 C 
ENDBRANCH   7  12
ENDBRANCH   1   8
BRANCH   3  14
ATOM     14  C   LIG    1       25.247 -24.287   6.057  0.00  0.00    +0.424 C 
ATOM     15  F   LIG    1       24.262 -24.962   6.707  0.00  0.00    -0.166 F 
ATOM     16  F   LIG    1       26.333 -25.111   6.084  0.00  0.00    -0.166 F 
ATOM     17  F   LIG    1       24.882 -24.227   4.753  0.00  0.00    -0.166 F 
ENDBRANCH   3  14
BRANCH   4  18
ATOM     18  N   LIG    1       23.206 -22.114   6.505  0.00  0.00    +0.080 N 
ATOM     19  O   LIG    1       22.483 -22.804   7.237  0.00  0.00    -0.576 OA
ATOM     20  O   LIG    1       22.854 -21.514   5.485  0.00  0.00    +0.042 OA
ENDBRANCH   4  18
TORSDOF 4
ENDMDL
MODEL 3
REMARK VINA RESULT:      -7.6      2.292      3.004
REMARK  Name = *****
REMARK                            x       y       z     vdW  Elec       q    Type
REMARK                         _______ _______ _______ _____ _____    ______ ____
ROOT
ATOM      1  C   LIG    1       27.534 -21.143   6.846  0.00  0.00    +0.034 A 
ATOM      2  C   LIG    1       28.509 -21.560   7.768  0.00  0.00    +0.042 A 
ATOM      3  C   LIG    1       29.724 -20.854   7.931  0.00  0.00    +0.133 A 
ATOM      4  C   LIG    1       29.922 -19.717   7.138  0.00  0.00    +0.285 A 
ATOM      5  C   LIG    1       28.966 -19.291   6.212  0.00  0.00    +0.086 A 
ATOM      6  C   LIG    1       27.783 -20.012   6.070  0.00  0.00    +0.030 A 
ENDROOT
BRANCH   1   8
ATOM      7  C   LIG    1       25.216 -21.753   7.544  0.00  0.00    +0.220 C 
ATOM      8  N   LIG    1       26.344 -21.900   6.752  0.00  0.00    -0.285 N 
ATOM      9  H   LIG    1       26.318 -22.611   6.035  0.00  0.00    +0.155 HD
ATOM     10  O   LIG    1       25.095 -20.956   8.468  0.00  0.00    -0.275 OA
BRANCH   7  12
ATOM     11  C   LIG    1       23.078 -22.015   6.265  0.00  0.00    +0.017 C 
ATOM     12  C   LIG    1       24.082 -22.716   7.189  0.00  0.00    +0.069 C 
ATOM     13  C   LIG    1       24.624 -23.978   6.521  0.00  0.00    +0.017 C 
ENDBRANCH   7  12
ENDBRANCH   1   8
BRANCH   3  14
ATOM     14  C   LIG    1       30.730 -21.375   8.922  0.00  0.00    +0.424 C 
ATOM     15  F   LIG    1       31.223 -20.383   9.711  0.00  0.00    -0.166 F 
ATOM     16  F   LIG    1       31.814 -21.915   8.296  0.00  0.00    -0.166 F 
ATOM     17  F   LIG    1       30.282 -22.346   9.753  0.00  0.00    -0.166 F 
ENDBRANCH   3  14
BRANCH   4  18
ATOM     18  N   LIG    1       31.132 -18.924   7.214  0.00  0.00    +0.080 N 
ATOM     19  O   LIG    1       32.092 -19.310   6.531  0.00  0.00    -0.576 OA
ATOM     20  O   LIG    1       31.097 -17.910   7.917  0.00  0.00    +0.042 OA
ENDBRANCH   4  18
TORSDOF 4
ENDMDL
MODEL 4
REMARK VINA RESULT:      -7.4      3.037      6.339
REMARK  Name = *****
REMARK                            x       y       z     vdW  Elec       q    Type
REMARK                         _______ _______ _______ _____ _____    ______ ____
ROOT
ATOM      1  C   LIG    1       27.134 -20.648   6.634  0.00  0.00    +0.034 A 
ATOM      2  C   LIG    1       26.676 -20.261   5.364  0.00  0.00    +0.042 A 
ATOM      3  C   LIG    1       25.295 -20.206   5.060  0.00  0.00    +0.133 A 
ATOM      4  C   LIG    1       24.395 -20.550   6.077  0.00  0.00    +0.285 A 
ATOM      5  C   LIG    1       24.833 -20.943   7.344  0.00  0.00    +0.086 A 
ATOM      6  C   LIG    1       26.200 -20.995   7.609  0.00  0.00    +0.030 A 
ENDROOT
BRANCH   1   8
ATOM      7  C   LIG    1       29.212 -19.956   7.832  0.00  0.00    +0.220 C 
ATOM      8  N   LIG    1       28.529 -20.669   6.858  0.00  0.00    -0.285 N 
ATOM      9  H   LIG    1       29.075 -21.262   6.249  0.00  0.00    +0.155 HD
ATOM     10  O   LIG    1       28.704 -19.178   8.632  0.00  0.00    -0.275 OA
BRANCH   7  12
ATOM     11  C   LIG    1       31.456 -18.900   8.190  0.00  0.00    +0.017 C 
ATOM     12  C   LIG    1       30.723 -20.199   7.829  0.00  0.00    +0.069 C 
ATOM     13  C   LIG    1       31.102 -21.309   8.806  0.00  0.00    +0.017 C 
ENDBRANCH   7  12
ENDBRANCH   1   8
BRANCH   3  14
ATOM     14  C   LIG    1       24.880 -19.804   3.670  0.00  0.00    +0.424 C 
ATOM     15  F   LIG    1       24.142 -18.662   3.673  0.00  0.00    -0.166 F 
ATOM     16  F   LIG    1       24.087 -20.750   3.093  0.00  0.00    -0.166 F 
ATOM     17  F   LIG    1       25.894 -19.609   2.792  0.00  0.00    -0.166 F 
ENDBRANCH   3  14
BRANCH   4  18
ATOM     18  N   LIG    1       22.961 -20.539   5.875  0.00  0.00    +0.080 N 
ATOM     19  O   LIG    1       22.419 -19.426   5.811  0.00  0.00    -0.576 OA
ATOM     20  O   LIG    1       22.402 -21.632   5.744  0.00  0.00    +0.042 OA
ENDBRANCH   4  18
TORSDOF 4
ENDMDL
MODEL 5
REMARK VINA RESULT:      -7.4      3.584      6.673
REMARK  Name = *****
REMARK                            x       y       z     vdW  Elec       q    Type
REMARK                         _______ _______ _______ _____ _____    ______ ____
ROOT
ATOM      1  C   LIG    1       27.862 -20.772   6.414  0.00  0.00    +0.034 A 
ATOM      2  C   LIG    1       26.942 -21.720   6.890  0.00  0.00    +0.042 A 
ATOM      3  C   LIG    1       25.609 -21.760   6.417  0.00  0.00    +0.133 A 
ATOM      4  C   LIG    1       25.238 -20.819   5.449  0.00  0.00    +0.285 A 
ATOM      5  C   LIG    1       26.139 -19.865   4.968  0.00  0.00    +0.086 A 
ATOM      6  C   LIG    1       27.442 -19.846   5.460  0.00  0.00    +0.030 A 
ENDROOT
BRANCH   1   8
ATOM      7  C   LIG    1       29.664 -20.033   7.976  0.00  0.00    +0.220 C 
ATOM      8  N   LIG    1       29.176 -20.805   6.933  0.00  0.00    -0.285 N 
ATOM      9  H   LIG    1       29.816 -21.457   6.501  0.00  0.00    +0.155 HD
ATOM     10  O   LIG    1       29.028 -19.182   8.589  0.00  0.00    -0.275 OA
BRANCH   7  12
ATOM     11  C   LIG    1       31.706 -19.131   9.113  0.00  0.00    +0.017 C 
ATOM     12  C   LIG    1       31.130 -20.308   8.315  0.00  0.00    +0.069 C 
ATOM     13  C   LIG    1       31.276 -21.605   9.107  0.00  0.00    +0.017 C 
ENDBRANCH   7  12
ENDBRANCH   1   8
BRANCH   3  14
ATOM     14  C   LIG    1       24.673 -22.790   6.991  0.00  0.00    +0.424 C 
ATOM     15  F   LIG    1       23.760 -22.234   7.831  0.00  0.00    -0.166 F 
ATOM     16  F   LIG    1       25.344 -23.711   7.741  0.00  0.00    -0.166 F 
ATOM     17  F   LIG    1       23.975 -23.515   6.084  0.00  0.00    -0.166 F 
ENDBRANCH   3  14
BRANCH   4  18
ATOM     18  N   LIG    1       23.898 -20.762   4.901  0.00  0.00    +0.080 N 
ATOM     19  O   LIG    1       23.052 -20.148   5.567  0.00  0.00    -0.576 OA
ATOM     20  O   LIG    1       23.717 -21.291   3.800  0.00  0.00    +0.042 OA
ENDBRANCH   4  18
TORSDOF 4
ENDMDL
MODEL 6
REMARK VINA RESULT:      -7.4      3.023      6.285
REMARK  Name = *****
REMARK                            x       y       z     vdW  Elec       q    Type
REMARK                         _______ _______ _______ _____ _____    ______ ____
ROOT
ATOM      1  C   LIG    1       27.237 -20.660   7.502  0.00  0.00    +0.034 A 
ATOM      2  C   LIG    1       26.566 -20.512   6.276  0.00  0.00    +0.042 A 
ATOM      3  C   LIG    1       25.369 -21.214   5.998  0.00  0.00    +0.133 A 
ATOM      4  C   LIG    1       24.872 -22.064   6.994  0.00  0.00    +0.285 A 
ATOM      5  C   LIG    1       25.529 -22.228   8.216  0.00  0.00    +0.086 A 
ATOM      6  C   LIG    1       26.710 -21.529   8.456  0.00  0.00    +0.030 A 
ENDROOT
BRANCH   1   8
ATOM      7  C   LIG    1       29.611 -20.400   8.227  0.00  0.00    +0.220 C 
ATOM      8  N   LIG    1       28.422 -19.917   7.703  0.00  0.00    -0.285 N 
ATOM      9  H   LIG    1       28.395 -18.943   7.435  0.00  0.00    +0.155 HD
ATOM     10  O   LIG    1       29.803 -21.545   8.620  0.00  0.00    -0.275 OA
BRANCH   7  12
ATOM     11  C   LIG    1       31.330 -19.130   6.918  0.00  0.00    +0.017 C 
ATOM     12  C   LIG    1       30.721 -19.349   8.309  0.00  0.00    +0.069 C 
ATOM     13  C   LIG    1       30.189 -18.032   8.868  0.00  0.00    +0.017 C 
ENDBRANCH   7  12
ENDBRANCH   1   8
BRANCH   3  14
ATOM     14  C   LIG    1       24.719 -21.021   4.654  0.00  0.00    +0.424 C 
ATOM     15  F   LIG    1       24.522 -22.203   4.013  0.00  0.00    -0.166 F 
ATOM     16  F   LIG    1       25.505 -20.281   3.821  0.00  0.00    -0.166 F 
ATOM     17  F   LIG    1       23.523 -20.384   4.671  0.00  0.00    -0.166 F 
ENDBRANCH   3  14
BRANCH   4  18
ATOM     18  N   LIG    1       23.661 -22.838   6.814  0.00  0.00    +0.080 N 
ATOM     19  O   LIG    1       23.805 -24.030   6.506  0.00  0.00    -0.576 OA
ATOM     20  O   LIG    1       22.589 -22.262   7.022  0.00  0.00    +0.042 OA
ENDBRANCH   4  18
TORSDOF 4
ENDMDL
MODEL 7
REMARK VINA RESULT:      -7.2      5.419      6.781
REMARK  Name = *****
REMARK                            x       y       z     vdW  Elec       q    Type
REMARK                         _______ _______ _______ _____ _____    ______ ____
ROOT
ATOM      1  C   LIG    1       24.717 -24.931   6.564  0.00  0.00    +0.034 A 
ATOM      2  C   LIG    1       23.754 -23.970   6.215  0.00  0.00    +0.042 A 
ATOM      3  C   LIG    1       24.043 -22.585   6.252  0.00  0.00    +0.133 A 
ATOM      4  C   LIG    1       25.331 -22.204   6.648  0.00  0.00    +0.285 A 
ATOM      5  C   LIG    1       26.300 -23.146   7.004  0.00  0.00    +0.086 A 
ATOM      6  C   LIG    1       25.982 -24.501   6.965  0.00  0.00    +0.030 A 
ENDROOT
BRANCH   1   8
ATOM      7  C   LIG    1       24.954 -27.263   5.707  0.00  0.00    +0.220 C 
ATOM      8  N   LIG    1       24.350 -26.294   6.493  0.00  0.00    -0.285 N 
ATOM      9  H   LIG    1       23.576 -26.584   7.073  0.00  0.00    +0.155 HD
ATOM     10  O   LIG    1       25.886 -27.073   4.934  0.00  0.00    -0.275 OA
BRANCH   7  12
ATOM     11  C   LIG    1       25.146 -29.673   5.047  0.00  0.00    +0.017 C 
ATOM     12  C   LIG    1       24.335 -28.654   5.858  0.00  0.00    +0.069 C 
ATOM     13  C   LIG    1       24.276 -29.072   7.325  0.00  0.00    +0.017 C 
ENDBRANCH   7  12
ENDBRANCH   1   8
BRANCH   3  14
ATOM     14  C   LIG    1       22.953 -21.614   5.886  0.00  0.00    +0.424 C 
ATOM     15  F   LIG    1       21.747 -22.230   5.758  0.00  0.00    -0.166 F 
ATOM     16  F   LIG    1       23.192 -21.028   4.678  0.00  0.00    -0.166 F 
ATOM     17  F   LIG    1       22.774 -20.584   6.748  0.00  0.00    -0.166 F 
ENDBRANCH   3  14
BRANCH   4  18
ATOM     18  N   LIG    1       25.734 -20.815   6.731  0.00  0.00    +0.080 N 
ATOM     19  O   LIG    1       25.729 -20.303   7.860  0.00  0.00    -0.576 OA
ATOM     20  O   LIG    1       26.086 -20.267   5.682  0.00  0.00    +0.042 OA
ENDBRANCH   4  18
TORSDOF 4
ENDMDL
MODEL 8
REMARK VINA RESULT:      -7.1      4.565      6.397
REMARK  Name = *****
REMARK                            x       y       z     vdW  Elec       q    Type
REMARK                         _______ _______ _______ _____ _____    ______ ____
ROOT
ATOM      1  C   LIG    1       24.495 -24.793   6.709  0.00  0.00    +0.034 A 
ATOM      2  C   LIG    1       25.533 -23.863   6.890  0.00  0.00    +0.042 A 
ATOM      3  C   LIG    1       25.278 -22.473   6.958  0.00  0.00    +0.133 A 
ATOM      4  C   LIG    1       23.947 -22.054   6.842  0.00  0.00    +0.285 A 
ATOM      5  C   LIG    1       22.903 -22.964   6.656  0.00  0.00    +0.086 A 
ATOM      6  C   LIG    1       23.188 -24.325   6.585  0.00  0.00    +0.030 A 
ENDROOT
BRANCH   1   8
ATOM      7  C   LIG    1       25.440 -26.819   5.598  0.00  0.00    +0.220 C 
ATOM      8  N   LIG    1       24.835 -26.164   6.660  0.00  0.00    -0.285 N 
ATOM      9  H   LIG    1       24.616 -26.713   7.480  0.00  0.00    +0.155 HD
ATOM     10  O   LIG    1       25.748 -26.306   4.529  0.00  0.00    -0.275 OA
BRANCH   7  12
ATOM     11  C   LIG    1       25.462 -28.623   7.336  0.00  0.00    +0.017 C 
ATOM     12  C   LIG    1       25.690 -28.307   5.853  0.00  0.00    +0.069 C 
ATOM     13  C   LIG    1       24.782 -29.172   4.982  0.00  0.00    +0.017 C 
ENDBRANCH   7  12
ENDBRANCH   1   8
BRANCH   3  14
ATOM     14  C   LIG    1       26.443 -21.536   7.131  0.00  0.00    +0.424 C 
ATOM     15  F   LIG    1       27.629 -22.202   7.154  0.00  0.00    -0.166 F 
ATOM     16  F   LIG    1       26.377 -20.870   8.318  0.00  0.00    -0.166 F 
ATOM     17  F   LIG    1       26.559 -20.569   6.189  0.00  0.00    -0.166 F 
ENDBRANCH   3  14
BRANCH   4  18
ATOM     18  N   LIG    1       23.571 -20.656   6.888  0.00  0.00    +0.080 N 
ATOM     19  O   LIG    1       23.450 -20.078   5.798  0.00  0.00    -0.576 OA
ATOM     20  O   LIG    1       23.363 -20.166   8.001  0.00  0.00    +0.042 OA
ENDBRANCH   4  18
TORSDOF 4
ENDMDL
MODEL 9
REMARK VINA RESULT:      -7.0      3.486      6.592
REMARK  Name = *****
REMARK                            x       y       z     vdW  Elec       q    Type
REMARK                         _______ _______ _______ _____ _____    ______ ____
ROOT
ATOM      1  C   LIG    1       29.388 -19.367   7.809  0.00  0.00    +0.034 A 
ATOM      2  C   LIG    1       28.226 -19.834   8.445  0.00  0.00    +0.042 A 
ATOM      3  C   LIG    1       27.110 -20.290   7.706  0.00  0.00    +0.133 A 
ATOM      4  C   LIG    1       27.204 -20.263   6.309  0.00  0.00    +0.285 A 
ATOM      5  C   LIG    1       28.350 -19.797   5.659  0.00  0.00    +0.086 A 
ATOM      6  C   LIG    1       29.430 -19.347   6.415  0.00  0.00    +0.030 A 
ENDROOT
BRANCH   1   8
ATOM      7  C   LIG    1       30.553 -17.719   9.278  0.00  0.00    +0.220 C 
ATOM      8  N   LIG    1       30.462 -18.937   8.621  0.00  0.00    -0.285 N 
ATOM      9  H   LIG    1       31.232 -19.582   8.731  0.00  0.00    +0.155 HD
ATOM     10  O   LIG    1       29.721 -16.821   9.230  0.00  0.00    -0.275 OA
BRANCH   7  12
ATOM     11  C   LIG    1       32.679 -16.412   9.502  0.00  0.00    +0.017 C 
ATOM     12  C   LIG    1       31.838 -17.552  10.092  0.00  0.00    +0.069 C 
ATOM     13  C   LIG    1       31.526 -17.274  11.560  0.00  0.00    +0.017 C 
ENDBRANCH   7  12
ENDBRANCH   1   8
BRANCH   3  14
ATOM     14  C   LIG    1       25.891 -20.754   8.458  0.00  0.00    +0.424 C 
ATOM     15  F   LIG    1       24.741 -20.356   7.853  0.00  0.00    -0.166 F 
ATOM     16  F   LIG    1       25.846 -20.222   9.713  0.00  0.00    -0.166 F 
ATOM     17  F   LIG    1       25.792 -22.094   8.639  0.00  0.00    -0.166 F 
ENDBRANCH   3  14
BRANCH   4  18
ATOM     18  N   LIG    1       26.120 -20.698   5.453  0.00  0.00    +0.080 N 
ATOM     19  O   LIG    1       25.761 -21.878   5.569  0.00  0.00    -0.576 OA
ATOM     20  O   LIG    1       25.616 -19.851   4.709  0.00  0.00    +0.042 OA
ENDBRANCH   4  18
TORSDOF 4
ENDMDL
