MODEL 1
REMARK VINA RESULT:      43.3      0.000      0.000
REMARK  Name = *****
REMARK                            x       y       z     vdW  Elec       q    Type
REMARK                         _______ _______ _______ _____ _____    ______ ____
ROOT
ATOM      1  C   LIG    1       27.537 -13.102   4.660  0.00  0.00    +0.134 C 
ATOM      2  C   LIG    1       28.303 -14.092   3.763  0.00  0.00    +0.079 C 
ATOM      3  C   LIG    1       27.406 -14.741   2.691  0.00  0.00    +0.158 C 
ATOM      4  C   LIG    1       26.355 -15.542   3.439  0.00  0.00    +0.030 A 
ATOM      5  C   LIG    1       25.751 -15.002   4.590  0.00  0.00    +0.007 A 
ATOM      6  C   LIG    1       24.680 -15.690   5.177  0.00  0.00    +0.132 A 
ATOM      7  C   LIG    1       24.264 -16.942   4.695  0.00  0.00    +0.078 A 
ATOM      8  C   LIG    1       23.143 -17.643   5.333  0.00  0.00    +0.198 C 
ATOM      9  O   LIG    1       22.525 -17.091   6.244  0.00  0.00    -0.286 OA
ATOM     10  C   LIG    1       22.764 -18.992   4.891  0.00  0.00    +0.037 A 
ATOM     11  C   LIG    1       23.456 -19.634   3.860  0.00  0.00    +0.075 A 
ATOM     12  C   LIG    1       23.057 -20.931   3.478  0.00  0.00    +0.132 A 
ATOM     13  C   LIG    1       21.999 -21.559   4.155  0.00  0.00    +0.046 A 
ATOM     14  C   LIG    1       21.316 -20.905   5.179  0.00  0.00    +0.004 A 
ATOM     15  C   LIG    1       24.577 -18.910   3.200  0.00  0.00    +0.202 C 
ATOM     16  O   LIG    1       25.237 -19.403   2.288  0.00  0.00    -0.286 OA
ATOM     17  C   LIG    1       21.693 -19.620   5.543  0.00  0.00    +0.012 A 
ATOM     18  C   LIG    1       24.943 -17.540   3.639  0.00  0.00    +0.078 A 
ATOM     19  C   LIG    1       25.984 -16.833   3.013  0.00  0.00    +0.135 A 
ATOM     20  C   LIG    1       26.306 -13.774   5.301  0.00  0.00    +0.082 C 
ENDROOT
BRANCH   1  21
ATOM     21  O   LIG    1       27.082 -11.971   3.910  0.00  0.00    -0.381 OA
ATOM     22  H   LIG    1       27.785 -11.695   3.295  0.00  0.00    +0.211 HD
ENDBRANCH   1  21
BRANCH  19  23
ATOM     23  O   LIG    1       26.709 -17.382   1.985  0.00  0.00    -0.506 OA
ATOM     24  H   LIG    1       26.451 -18.329   1.883  0.00  0.00    +0.292 HD
ENDBRANCH  19  23
BRANCH   6  25
ATOM     25  O   LIG    1       24.086 -15.094   6.261  0.00  0.00    -0.506 OA
ATOM     26  H   LIG    1       23.114 -15.239   6.207  0.00  0.00    +0.292 HD
ENDBRANCH   6  25
BRANCH  12  27
ATOM     27  O   LIG    1       23.756 -21.570   2.489  0.00  0.00    -0.494 OA
ATOM     28  C   LIG    1       24.748 -20.802   1.814  0.00  0.00    +0.277 C 
ENDBRANCH  12  27
BRANCH   1  29
ATOM     29  C   LIG    1       28.474 -12.598   5.787  0.00  0.00    +0.202 C 
ATOM     30  O   LIG    1       28.920 -11.447   5.798  0.00  0.00    -0.291 OA
BRANCH  29  31
ATOM     31  C   LIG    1       28.843 -13.591   6.887  0.00  0.00    +0.309 C 
BRANCH  31  32
ATOM     32  O   LIG    1       29.348 -14.822   6.372  0.00  0.00    -0.457 OA
BRANCH  32  33
ATOM     33  C   LIG    1       28.410 -15.799   6.219  0.00  0.00    +0.307 C 
ATOM     34  O   LIG    1       27.328 -15.812   6.736  0.00  0.00    -0.251 OA
BRANCH  33  35
ATOM     35  C   LIG    1       28.889 -16.847   5.236  0.00  0.00    +0.120 C 
BRANCH  35  36
ATOM     36  C   LIG    1       28.389 -18.272   5.490  0.00  0.00    +0.011 C 
BRANCH  36  38
ATOM     37  C   LIG    1       28.975 -20.602   6.422  0.00  0.00    +0.004 C 
ATOM     38  C   LIG    1       29.475 -19.320   5.776  0.00  0.00    -0.003 C 
ENDBRANCH  36  38
ENDBRANCH  35  36
ENDBRANCH  33  35
ENDBRANCH  32  33
ENDBRANCH  31  32
ENDBRANCH  29  31
ENDBRANCH   1  29
BRANCH   3  39
ATOM     39  O   LIG    1       26.840 -13.734   1.828  0.00  0.00    -0.343 OA
BRANCH  39  40
ATOM     40  C   LIG    1       25.480 -13.370   2.117  0.00  0.00    +0.253 C 
ATOM     41  O   LIG    1       25.344 -12.997   3.486  0.00  0.00    -0.346 OA
ATOM     42  C   LIG    1       24.010 -12.574   3.806  0.00  0.00    +0.148 C 
ATOM     43  C   LIG    1       24.051 -11.937   5.186  0.00  0.00    +0.040 C 
ATOM     44  C   LIG    1       23.098 -13.809   3.749  0.00  0.00    +0.163 C 
ATOM     45  C   LIG    1       23.118 -14.359   2.310  0.00  0.00    +0.109 C 
ATOM     46  C   LIG    1       24.562 -14.571   1.812  0.00  0.00    +0.086 C 
BRANCH  45  47
ATOM     47  N   LIG    1       22.327 -15.593   2.203  0.00  0.00    -0.302 N 
ATOM     48  H   LIG    1       22.288 -16.055   1.295  0.00  0.00    +0.149 HD
ATOM     49  C   LIG    1       21.517 -16.052   3.238  0.00  0.00    +0.318 C 
ATOM     50  O   LIG    1       21.485 -15.465   4.322  0.00  0.00    -0.266 OA
BRANCH  49  51
ATOM     51  C   LIG    1       20.687 -17.329   2.947  0.00  0.00    +0.469 C 
ATOM     52  F   LIG    1       19.911 -17.695   4.005  0.00  0.00    -0.162 F 
ATOM     53  F   LIG    1       21.470 -18.404   2.651  0.00  0.00    -0.162 F 
ATOM     54  F   LIG    1       19.841 -17.170   1.889  0.00  0.00    -0.162 F 
ENDBRANCH  49  51
ENDBRANCH  45  47
BRANCH  44  55
ATOM     55  O   LIG    1       23.562 -14.827   4.650  0.00  0.00    -0.387 OA
ATOM     56  H   LIG    1       24.539 -14.782   4.636  0.00  0.00    +0.210 HD
ENDBRANCH  44  55
ENDBRANCH  39  40
ENDBRANCH   3  39
TORSDOF 16
ENDMDL
