MODEL 1
REMARK VINA RESULT:      -6.6      0.000      0.000
REMARK  Name = *****
REMARK                            x       y       z     vdW  Elec       q    Type
REMARK                         _______ _______ _______ _____ _____    ______ ____
ROOT
ATOM      1  C   LIG    1       21.879 -17.660   4.507  0.00  0.00    +0.044 C 
ATOM      2  C   LIG    1       23.240 -18.213   4.146  0.00  0.00    -0.050 C 
ATOM      3  C   LIG    1       23.397 -19.558   4.127  0.00  0.00    +0.003 C 
ENDROOT
BRANCH   3   4
ATOM      4  C   LIG    1       24.566 -20.348   3.785  0.00  0.00    +0.001 C 
ATOM      5  C   LIG    1       25.533 -20.787   4.615  0.00  0.00    +0.003 C 
BRANCH   5   6
ATOM      6  C   LIG    1       25.729 -20.579   6.046  0.00  0.00    -0.044 C 
ATOM      7  C   LIG    1       26.880 -20.352   6.694  0.00  0.00    +0.094 C 
ATOM      8  C   LIG    1       24.489 -20.770   6.902  0.00  0.00    +0.044 C 
BRANCH   7   9
ATOM      9  C   LIG    1       28.282 -20.191   6.261  0.00  0.00    +0.330 C 
ATOM     10  O   LIG    1       28.661 -19.251   5.608  0.00  0.00    -0.246 OA
BRANCH   9  11
ATOM     11  O   LIG    1       29.123 -21.152   6.648  0.00  0.00    -0.477 OA
ATOM     12  H   LIG    1       28.538 -21.924   6.783  0.00  0.00    +0.295 HD
ENDBRANCH   9  11
ENDBRANCH   7   9
ENDBRANCH   5   6
ENDBRANCH   3   4
BRANCH   2  13
ATOM     13  C   LIG    1       24.291 -17.243   3.806  0.00  0.00    +0.003 C 
ATOM     14  C   LIG    1       24.291 -15.911   4.025  0.00  0.00    +0.004 C 
BRANCH  14  15
ATOM     15  C   LIG    1       25.380 -14.953   3.712  0.00  0.00    -0.043 C 
ATOM     16  C   LIG    1       24.940 -13.470   3.419  0.00  0.00    -0.010 C 
ATOM     17  C   LIG    1       23.736 -13.373   2.447  0.00  0.00    +0.016 C 
ATOM     18  C   LIG    1       24.565 -12.723   4.721  0.00  0.00    +0.016 C 
ATOM     19  C   LIG    1       26.086 -12.672   2.726  0.00  0.00    +0.011 C 
ATOM     20  C   LIG    1       27.407 -12.851   3.445  0.00  0.00    +0.005 C 
ATOM     21  C   LIG    1       27.812 -14.308   3.391  0.00  0.00    +0.031 C 
ATOM     22  C   LIG    1       26.693 -15.307   3.617  0.00  0.00    -0.069 C 
ATOM     23  C   LIG    1       27.265 -16.706   3.695  0.00  0.00    +0.039 C 
ENDBRANCH  14  15
ENDBRANCH   2  13
TORSDOF 6
ENDMDL
MODEL 2
REMARK VINA RESULT:      -5.5      1.428      2.655
REMARK  Name = *****
REMARK                            x       y       z     vdW  Elec       q    Type
REMARK                         _______ _______ _______ _____ _____    ______ ____
ROOT
ATOM      1  C   LIG    1       21.794 -15.705   5.692  0.00  0.00    +0.044 C 
ATOM      2  C   LIG    1       22.732 -16.458   4.775  0.00  0.00    -0.050 C 
ATOM      3  C   LIG    1       22.479 -17.767   4.540  0.00  0.00    +0.003 C 
ENDROOT
BRANCH   3   4
ATOM      4  C   LIG    1       23.184 -18.708   3.687  0.00  0.00    +0.001 C 
ATOM      5  C   LIG    1       23.787 -19.856   4.052  0.00  0.00    +0.003 C 
BRANCH   5   6
ATOM      6  C   LIG    1       23.955 -20.470   5.366  0.00  0.00    -0.044 C 
ATOM      7  C   LIG    1       25.093 -20.653   6.048  0.00  0.00    +0.094 C 
ATOM      8  C   LIG    1       22.697 -21.081   5.959  0.00  0.00    +0.044 C 
BRANCH   7   9
ATOM      9  C   LIG    1       26.505 -20.301   5.795  0.00  0.00    +0.330 C 
ATOM     10  O   LIG    1       27.299 -20.106   6.680  0.00  0.00    -0.246 OA
BRANCH   9  11
ATOM     11  O   LIG    1       26.861 -20.220   4.512  0.00  0.00    -0.477 OA
ATOM     12  H   LIG    1       26.782 -19.265   4.314  0.00  0.00    +0.295 HD
ENDBRANCH   9  11
ENDBRANCH   7   9
ENDBRANCH   5   6
ENDBRANCH   3   4
BRANCH   2  13
ATOM     13  C   LIG    1       23.839 -15.699   4.176  0.00  0.00    +0.003 C 
ATOM     14  C   LIG    1       24.339 -14.509   4.573  0.00  0.00    +0.004 C 
BRANCH  14  15
ATOM     15  C   LIG    1       25.485 -13.777   3.980  0.00  0.00    -0.043 C 
ATOM     16  C   LIG    1       26.886 -14.008   4.660  0.00  0.00    -0.010 C 
ATOM     17  C   LIG    1       26.834 -13.923   6.206  0.00  0.00    +0.016 C 
ATOM     18  C   LIG    1       27.479 -15.385   4.276  0.00  0.00    +0.016 C 
ATOM     19  C   LIG    1       27.907 -12.913   4.227  0.00  0.00    +0.011 C 
ATOM     20  C   LIG    1       27.913 -12.716   2.724  0.00  0.00    +0.005 C 
ATOM     21  C   LIG    1       26.551 -12.226   2.279  0.00  0.00    +0.031 C 
ATOM     22  C   LIG    1       25.365 -12.899   2.943  0.00  0.00    -0.069 C 
ATOM     23  C   LIG    1       24.082 -12.431   2.293  0.00  0.00    +0.039 C 
ENDBRANCH  14  15
ENDBRANCH   2  13
TORSDOF 6
ENDMDL
