MODEL 1
REMARK VINA RESULT:      -8.1      0.000      0.000
REMARK  Name = *****
REMARK                            x       y       z     vdW  Elec       q    Type
REMARK                         _______ _______ _______ _____ _____    ______ ____
ROOT
ATOM      1  C   LIG    1       25.122 -21.144   6.841  0.00  0.00    +0.072 C 
ATOM      2  C   LIG    1       25.950 -20.829   8.111  0.00  0.00    +0.230 C 
ATOM      3  O   LIG    1       25.501 -20.907   9.255  0.00  0.00    -0.274 OA
ATOM      4  N   LIG    1       27.274 -20.504   7.930  0.00  0.00    -0.256 N 
ATOM      5  H   LIG    1       27.803 -20.345   8.776  0.00  0.00    +0.158 HD
ATOM      6  C   LIG    1       27.928 -20.222   6.760  0.00  0.00    +0.219 C 
ATOM      7  O   LIG    1       29.105 -19.874   6.762  0.00  0.00    -0.275 OA
ATOM      8  C   LIG    1       27.141 -20.393   5.487  0.00  0.00    +0.097 C 
ATOM      9  C   LIG    1       25.651 -20.191   5.738  0.00  0.00    +0.030 C 
ENDROOT
BRANCH   1  10
ATOM     10  C   LIG    1       25.238 -22.644   6.469  0.00  0.00    -0.032 A 
ATOM     11  C   LIG    1       25.848 -23.577   7.330  0.00  0.00    +0.005 A 
ATOM     12  C   LIG    1       25.945 -24.930   6.985  0.00  0.00    +0.000 A 
ATOM     13  C   LIG    1       25.456 -25.378   5.763  0.00  0.00    +0.000 A 
ATOM     14  C   LIG    1       24.885 -24.470   4.878  0.00  0.00    +0.000 A 
ATOM     15  C   LIG    1       24.785 -23.119   5.224  0.00  0.00    +0.005 A 
ENDBRANCH   1  10
BRANCH   1  17
ATOM     16  C   LIG    1       22.854 -20.152   6.008  0.00  0.00    +0.005 C 
ATOM     17  C   LIG    1       23.614 -20.869   7.123  0.00  0.00    +0.017 C 
ENDBRANCH   1  17
TORSDOF 2
ENDMDL
MODEL 2
REMARK VINA RESULT:      -8.0      1.247      1.864
REMARK  Name = *****
REMARK                            x       y       z     vdW  Elec       q    Type
REMARK                         _______ _______ _______ _____ _____    ______ ____
ROOT
ATOM      1  C   LIG    1       24.572 -21.521   6.050  0.00  0.00    +0.072 C 
ATOM      2  C   LIG    1       24.271 -21.120   7.515  0.00  0.00    +0.230 C 
ATOM      3  O   LIG    1       23.153 -21.188   8.027  0.00  0.00    -0.274 OA
ATOM      4  N   LIG    1       25.339 -20.724   8.287  0.00  0.00    -0.256 N 
ATOM      5  H   LIG    1       25.124 -20.509   9.250  0.00  0.00    +0.158 HD
ATOM      6  C   LIG    1       26.619 -20.441   7.887  0.00  0.00    +0.219 C 
ATOM      7  O   LIG    1       27.452 -20.025   8.686  0.00  0.00    -0.275 OA
ATOM      8  C   LIG    1       26.947 -20.697   6.440  0.00  0.00    +0.097 C 
ATOM      9  C   LIG    1       25.701 -20.574   5.569  0.00  0.00    +0.030 C 
ENDROOT
BRANCH   1  10
ATOM     10  C   LIG    1       24.944 -23.023   5.960  0.00  0.00    -0.032 A 
ATOM     11  C   LIG    1       24.737 -23.770   4.784  0.00  0.00    +0.005 A 
ATOM     12  C   LIG    1       25.080 -25.125   4.713  0.00  0.00    +0.000 A 
ATOM     13  C   LIG    1       25.614 -25.771   5.821  0.00  0.00    +0.000 A 
ATOM     14  C   LIG    1       25.792 -25.067   7.007  0.00  0.00    +0.000 A 
ATOM     15  C   LIG    1       25.453 -23.712   7.077  0.00  0.00    +0.005 A 
ENDBRANCH   1  10
BRANCH   1  17
ATOM     16  C   LIG    1       22.847 -19.878   4.980  0.00  0.00    +0.005 C 
ATOM     17  C   LIG    1       23.289 -21.326   5.185  0.00  0.00    +0.017 C 
ENDBRANCH   1  17
TORSDOF 2
ENDMDL
MODEL 3
REMARK VINA RESULT:      -7.9      2.515      4.568
REMARK  Name = *****
REMARK                            x       y       z     vdW  Elec       q    Type
REMARK                         _______ _______ _______ _____ _____    ______ ____
ROOT
ATOM      1  C   LIG    1       24.825 -21.577   6.984  0.00  0.00    +0.072 C 
ATOM      2  C   LIG    1       23.549 -22.267   7.528  0.00  0.00    +0.230 C 
ATOM      3  O   LIG    1       22.800 -21.757   8.363  0.00  0.00    -0.274 OA
ATOM      4  N   LIG    1       23.221 -23.490   6.991  0.00  0.00    -0.256 N 
ATOM      5  H   LIG    1       22.363 -23.899   7.330  0.00  0.00    +0.158 HD
ATOM      6  C   LIG    1       23.977 -24.290   6.175  0.00  0.00    +0.219 C 
ATOM      7  O   LIG    1       23.578 -25.398   5.831  0.00  0.00    -0.275 OA
ATOM      8  C   LIG    1       25.291 -23.726   5.703  0.00  0.00    +0.097 C 
ATOM      9  C   LIG    1       25.840 -22.715   6.704  0.00  0.00    +0.030 C 
ENDROOT
BRANCH   1  10
ATOM     10  C   LIG    1       24.494 -20.722   5.734  0.00  0.00    -0.032 A 
ATOM     11  C   LIG    1       25.477 -20.390   4.781  0.00  0.00    +0.005 A 
ATOM     12  C   LIG    1       25.166 -19.620   3.655  0.00  0.00    +0.000 A 
ATOM     13  C   LIG    1       23.874 -19.144   3.467  0.00  0.00    +0.000 A 
ATOM     14  C   LIG    1       22.895 -19.424   4.413  0.00  0.00    +0.000 A 
ATOM     15  C   LIG    1       23.203 -20.196   5.537  0.00  0.00    +0.005 A 
ENDBRANCH   1  10
BRANCH   1  17
ATOM     16  C   LIG    1       26.907 -20.486   8.122  0.00  0.00    +0.005 C 
ATOM     17  C   LIG    1       25.384 -20.597   8.060  0.00  0.00    +0.017 C 
ENDBRANCH   1  17
TORSDOF 2
ENDMDL
MODEL 4
REMARK VINA RESULT:      -7.9      2.649      4.378
REMARK  Name = *****
REMARK                            x       y       z     vdW  Elec       q    Type
REMARK                         _______ _______ _______ _____ _____    ______ ____
ROOT
ATOM      1  C   LIG    1       24.113 -21.467   6.063  0.00  0.00    +0.072 C 
ATOM      2  C   LIG    1       24.379 -21.963   4.620  0.00  0.00    +0.230 C 
ATOM      3  O   LIG    1       24.331 -21.235   3.628  0.00  0.00    -0.274 OA
ATOM      4  N   LIG    1       24.747 -23.279   4.469  0.00  0.00    -0.256 N 
ATOM      5  H   LIG    1       24.957 -23.567   3.524  0.00  0.00    +0.158 HD
ATOM      6  C   LIG    1       24.720 -24.282   5.402  0.00  0.00    +0.219 C 
ATOM      7  O   LIG    1       25.011 -25.435   5.099  0.00  0.00    -0.275 OA
ATOM      8  C   LIG    1       24.351 -23.888   6.808  0.00  0.00    +0.097 C 
ATOM      9  C   LIG    1       23.454 -22.655   6.809  0.00  0.00    +0.030 C 
ENDROOT
BRANCH   1  10
ATOM     10  C   LIG    1       25.426 -20.974   6.723  0.00  0.00    -0.032 A 
ATOM     11  C   LIG    1       25.539 -20.809   8.117  0.00  0.00    +0.005 A 
ATOM     12  C   LIG    1       26.730 -20.366   8.702  0.00  0.00    +0.000 A 
ATOM     13  C   LIG    1       27.827 -20.054   7.908  0.00  0.00    +0.000 A 
ATOM     14  C   LIG    1       27.729 -20.170   6.526  0.00  0.00    +0.000 A 
ATOM     15  C   LIG    1       26.540 -20.616   5.941  0.00  0.00    +0.005 A 
ENDBRANCH   1  10
BRANCH   1  17
ATOM     16  C   LIG    1       22.007 -20.337   5.007  0.00  0.00    +0.005 C 
ATOM     17  C   LIG    1       23.147 -20.243   6.021  0.00  0.00    +0.017 C 
ENDBRANCH   1  17
TORSDOF 2
ENDMDL
MODEL 5
REMARK VINA RESULT:      -7.8      1.892      3.639
REMARK  Name = *****
REMARK                            x       y       z     vdW  Elec       q    Type
REMARK                         _______ _______ _______ _____ _____    ______ ____
ROOT
ATOM      1  C   LIG    1       24.558 -21.726   7.086  0.00  0.00    +0.072 C 
ATOM      2  C   LIG    1       25.592 -22.794   6.652  0.00  0.00    +0.230 C 
ATOM      3  O   LIG    1       25.284 -23.897   6.199  0.00  0.00    -0.274 OA
ATOM      4  N   LIG    1       26.920 -22.447   6.729  0.00  0.00    -0.256 N 
ATOM      5  H   LIG    1       27.573 -23.144   6.400  0.00  0.00    +0.158 HD
ATOM      6  C   LIG    1       27.479 -21.349   7.329  0.00  0.00    +0.219 C 
ATOM      7  O   LIG    1       28.697 -21.209   7.381  0.00  0.00    -0.275 OA
ATOM      8  C   LIG    1       26.526 -20.322   7.881  0.00  0.00    +0.097 C 
ATOM      9  C   LIG    1       25.201 -20.966   8.275  0.00  0.00    +0.030 C 
ENDROOT
BRANCH   1  10
ATOM     10  C   LIG    1       24.187 -20.806   5.894  0.00  0.00    -0.032 A 
ATOM     11  C   LIG    1       23.013 -20.029   5.893  0.00  0.00    +0.005 A 
ATOM     12  C   LIG    1       22.690 -19.201   4.813  0.00  0.00    +0.000 A 
ATOM     13  C   LIG    1       23.519 -19.148   3.698  0.00  0.00    +0.000 A 
ATOM     14  C   LIG    1       24.664 -19.936   3.657  0.00  0.00    +0.000 A 
ATOM     15  C   LIG    1       24.989 -20.761   4.737  0.00  0.00    +0.005 A 
ENDBRANCH   1  10
BRANCH   1  17
ATOM     16  C   LIG    1       22.625 -23.386   6.513  0.00  0.00    +0.005 C 
ATOM     17  C   LIG    1       23.241 -22.429   7.534  0.00  0.00    +0.017 C 
ENDBRANCH   1  17
TORSDOF 2
ENDMDL
MODEL 6
REMARK VINA RESULT:      -7.6      2.090      3.090
REMARK  Name = *****
REMARK                            x       y       z     vdW  Elec       q    Type
REMARK                         _______ _______ _______ _____ _____    ______ ____
ROOT
ATOM      1  C   LIG    1       25.146 -21.712   7.156  0.00  0.00    +0.072 C 
ATOM      2  C   LIG    1       26.119 -21.040   6.157  0.00  0.00    +0.230 C 
ATOM      3  O   LIG    1       27.339 -20.987   6.322  0.00  0.00    -0.274 OA
ATOM      4  N   LIG    1       25.577 -20.533   4.999  0.00  0.00    -0.256 N 
ATOM      5  H   LIG    1       26.237 -20.139   4.344  0.00  0.00    +0.158 HD
ATOM      6  C   LIG    1       24.255 -20.358   4.685  0.00  0.00    +0.219 C 
ATOM      7  O   LIG    1       23.921 -19.821   3.633  0.00  0.00    -0.275 OA
ATOM      8  C   LIG    1       23.249 -20.885   5.675  0.00  0.00    +0.097 C 
ATOM      9  C   LIG    1       23.829 -20.897   7.085  0.00  0.00    +0.030 C 
ENDROOT
BRANCH   1  10
ATOM     10  C   LIG    1       24.962 -23.213   6.815  0.00  0.00    -0.032 A 
ATOM     11  C   LIG    1       23.686 -23.788   6.657  0.00  0.00    +0.005 A 
ATOM     12  C   LIG    1       23.533 -25.144   6.347  0.00  0.00    +0.000 A 
ATOM     13  C   LIG    1       24.648 -25.962   6.211  0.00  0.00    +0.000 A 
ATOM     14  C   LIG    1       25.918 -25.428   6.401  0.00  0.00    +0.000 A 
ATOM     15  C   LIG    1       26.072 -24.073   6.708  0.00  0.00    +0.005 A 
ENDBRANCH   1  10
BRANCH   1  17
ATOM     16  C   LIG    1       26.030 -20.248   9.130  0.00  0.00    +0.005 C 
ATOM     17  C   LIG    1       25.751 -21.651   8.591  0.00  0.00    +0.017 C 
ENDBRANCH   1  17
TORSDOF 2
ENDMDL
MODEL 7
REMARK VINA RESULT:      -7.5      2.294      4.386
REMARK  Name = *****
REMARK                            x       y       z     vdW  Elec       q    Type
REMARK                         _______ _______ _______ _____ _____    ______ ____
ROOT
ATOM      1  C   LIG    1       24.741 -21.755   6.063  0.00  0.00    +0.072 C 
ATOM      2  C   LIG    1       23.540 -21.116   6.803  0.00  0.00    +0.230 C 
ATOM      3  O   LIG    1       23.166 -21.462   7.924  0.00  0.00    -0.274 OA
ATOM      4  N   LIG    1       22.910 -20.064   6.180  0.00  0.00    -0.256 N 
ATOM      5  H   LIG    1       22.157 -19.637   6.701  0.00  0.00    +0.158 HD
ATOM      6  C   LIG    1       23.066 -19.620   4.893  0.00  0.00    +0.219 C 
ATOM      7  O   LIG    1       22.375 -18.708   4.451  0.00  0.00    -0.275 OA
ATOM      8  C   LIG    1       24.142 -20.284   4.075  0.00  0.00    +0.097 C 
ATOM      9  C   LIG    1       24.388 -21.711   4.554  0.00  0.00    +0.030 C 
ENDROOT
BRANCH   1  10
ATOM     10  C   LIG    1       26.057 -21.012   6.411  0.00  0.00    -0.032 A 
ATOM     11  C   LIG    1       26.858 -20.416   5.419  0.00  0.00    +0.005 A 
ATOM     12  C   LIG    1       28.042 -19.746   5.746  0.00  0.00    +0.000 A 
ATOM     13  C   LIG    1       28.466 -19.677   7.068  0.00  0.00    +0.000 A 
ATOM     14  C   LIG    1       27.714 -20.291   8.062  0.00  0.00    +0.000 A 
ATOM     15  C   LIG    1       26.529 -20.958   7.737  0.00  0.00    +0.005 A 
ENDBRANCH   1  10
BRANCH   1  17
ATOM     16  C   LIG    1       25.057 -24.269   5.429  0.00  0.00    +0.005 C 
ATOM     17  C   LIG    1       24.921 -23.228   6.540  0.00  0.00    +0.017 C 
ENDBRANCH   1  17
TORSDOF 2
ENDMDL
MODEL 8
REMARK VINA RESULT:      -7.2      2.793      4.658
REMARK  Name = *****
REMARK                            x       y       z     vdW  Elec       q    Type
REMARK                         _______ _______ _______ _____ _____    ______ ____
ROOT
ATOM      1  C   LIG    1       24.252 -20.475   5.347  0.00  0.00    +0.072 C 
ATOM      2  C   LIG    1       24.152 -21.763   4.493  0.00  0.00    +0.230 C 
ATOM      3  O   LIG    1       24.294 -21.784   3.269  0.00  0.00    -0.274 OA
ATOM      4  N   LIG    1       23.953 -22.946   5.165  0.00  0.00    -0.256 N 
ATOM      5  H   LIG    1       23.934 -23.776   4.591  0.00  0.00    +0.158 HD
ATOM      6  C   LIG    1       23.628 -23.130   6.484  0.00  0.00    +0.219 C 
ATOM      7  O   LIG    1       23.409 -24.252   6.929  0.00  0.00    -0.275 OA
ATOM      8  C   LIG    1       23.590 -21.899   7.349  0.00  0.00    +0.097 C 
ATOM      9  C   LIG    1       23.258 -20.662   6.522  0.00  0.00    +0.030 C 
ENDROOT
BRANCH   1  10
ATOM     10  C   LIG    1       25.713 -20.235   5.806  0.00  0.00    -0.032 A 
ATOM     11  C   LIG    1       26.701 -19.762   4.921  0.00  0.00    +0.005 A 
ATOM     12  C   LIG    1       28.016 -19.546   5.348  0.00  0.00    +0.000 A 
ATOM     13  C   LIG    1       28.380 -19.820   6.662  0.00  0.00    +0.000 A 
ATOM     14  C   LIG    1       27.433 -20.325   7.545  0.00  0.00    +0.000 A 
ATOM     15  C   LIG    1       26.118 -20.538   7.120  0.00  0.00    +0.005 A 
ENDBRANCH   1  10
BRANCH   1  17
ATOM     16  C   LIG    1       22.404 -18.771   4.637  0.00  0.00    +0.005 C 
ATOM     17  C   LIG    1       23.849 -19.244   4.479  0.00  0.00    +0.017 C 
ENDBRANCH   1  17
TORSDOF 2
ENDMDL
MODEL 9
REMARK VINA RESULT:      -6.6      3.019      4.508
REMARK  Name = *****
REMARK                            x       y       z     vdW  Elec       q    Type
REMARK                         _______ _______ _______ _____ _____    ______ ____
ROOT
ATOM      1  C   LIG    1       24.462 -22.726   6.907  0.00  0.00    +0.072 C 
ATOM      2  C   LIG    1       23.360 -23.752   6.544  0.00  0.00    +0.230 C 
ATOM      3  O   LIG    1       22.160 -23.566   6.748  0.00  0.00    -0.274 OA
ATOM      4  N   LIG    1       23.761 -24.901   5.904  0.00  0.00    -0.256 N 
ATOM      5  H   LIG    1       23.020 -25.534   5.639  0.00  0.00    +0.158 HD
ATOM      6  C   LIG    1       25.036 -25.368   5.714  0.00  0.00    +0.219 C 
ATOM      7  O   LIG    1       25.237 -26.457   5.185  0.00  0.00    -0.275 OA
ATOM      8  C   LIG    1       26.159 -24.468   6.156  0.00  0.00    +0.097 C 
ATOM      9  C   LIG    1       25.711 -23.559   7.296  0.00  0.00    +0.030 C 
ENDROOT
BRANCH   1  10
ATOM     10  C   LIG    1       24.712 -21.751   5.727  0.00  0.00    -0.032 A 
ATOM     11  C   LIG    1       23.916 -21.770   4.567  0.00  0.00    +0.005 A 
ATOM     12  C   LIG    1       24.149 -20.883   3.510  0.00  0.00    +0.000 A 
ATOM     13  C   LIG    1       25.198 -19.973   3.578  0.00  0.00    +0.000 A 
ATOM     14  C   LIG    1       26.024 -19.961   4.696  0.00  0.00    +0.000 A 
ATOM     15  C   LIG    1       25.789 -20.844   5.754  0.00  0.00    +0.005 A 
ENDBRANCH   1  10
BRANCH   1  17
ATOM     16  C   LIG    1       23.367 -20.509   7.746  0.00  0.00    +0.005 C 
ATOM     17  C   LIG    1       23.986 -21.857   8.111  0.00  0.00    +0.017 C 
ENDBRANCH   1  17
TORSDOF 2
ENDMDL
