MODEL 1
REMARK VINA RESULT:      83.9      0.000      0.000
REMARK  Name = *****
REMARK                            x       y       z     vdW  Elec       q    Type
REMARK                         _______ _______ _______ _____ _____    ______ ____
ROOT
ATOM      1  O   LIG    1       24.750 -14.684   2.020  0.00  0.00    -0.343 OA
ENDROOT
BRANCH   1   3
ATOM      2  C   LIG    1       26.213 -13.578   3.995  0.00  0.00    +0.188 C 
ATOM      3  C   LIG    1       26.080 -14.289   2.556  0.00  0.00    +0.157 C 
ATOM      4  C   LIG    1       27.139 -15.495   2.337  0.00  0.00    +0.028 C 
ATOM      5  C   LIG    1       26.703 -16.676   3.214  0.00  0.00    +0.012 C 
ATOM      6  C   LIG    1       26.974 -18.179   3.395  0.00  0.00    +0.019 C 
ATOM      7  C   LIG    1       28.204 -18.481   4.179  0.00  0.00    +0.010 C 
ATOM      8  C   LIG    1       25.663 -19.001   3.999  0.00  0.00    +0.140 C 
ATOM      9  C   LIG    1       24.945 -18.452   5.236  0.00  0.00    +0.004 C 
ATOM     10  C   LIG    1       23.620 -18.138   5.332  0.00  0.00    -0.002 C 
ATOM     11  C   LIG    1       23.084 -17.197   6.352  0.00  0.00    -0.004 C 
ATOM     12  C   LIG    1       21.981 -16.409   6.267  0.00  0.00    -0.023 C 
ATOM     13  C   LIG    1       21.621 -15.149   7.062  0.00  0.00    +0.071 C 
ATOM     14  C   LIG    1       21.466 -13.766   6.280  0.00  0.00    +0.177 C 
ATOM     15  C   LIG    1       20.485 -12.862   7.038  0.00  0.00    +0.052 C 
ATOM     16  O   LIG    1       22.757 -13.075   6.254  0.00  0.00    -0.461 OA
ATOM     17  C   LIG    1       23.108 -12.150   5.308  0.00  0.00    +0.311 C 
ATOM     18  O   LIG    1       22.317 -11.619   4.504  0.00  0.00    -0.251 OA
ATOM     19  C   LIG    1       24.597 -11.811   5.402  0.00  0.00    +0.168 C 
ATOM     20  C   LIG    1       25.685 -12.127   4.308  0.00  0.00    +0.218 C 
BRANCH   8  21
ATOM     21  O   LIG    1       25.962 -20.388   4.145  0.00  0.00    -0.388 OA
ATOM     22  H   LIG    1       26.757 -20.432   4.710  0.00  0.00    +0.210 HD
ENDBRANCH   8  21
BRANCH   2  24
ATOM     23  C   LIG    1       25.817 -13.725   6.327  0.00  0.00    +0.194 C 
ATOM     24  O   LIG    1       26.107 -14.401   5.146  0.00  0.00    -0.373 OA
ENDBRANCH   2  24
BRANCH   4  25
ATOM     25  C   LIG    1       28.628 -15.259   2.328  0.00  0.00    +0.077 C 
BRANCH  25  26
ATOM     26  C   LIG    1       29.084 -13.813   2.237  0.00  0.00    +0.223 C 
ATOM     27  O   LIG    1       29.232 -13.069   3.137  0.00  0.00    -0.301 OA
ENDBRANCH  25  26
ENDBRANCH   4  25
BRANCH  20  28
ATOM     28  O   LIG    1       26.812 -11.450   5.019  0.00  0.00    -0.458 OA
BRANCH  28  29
ATOM     29  C   LIG    1       28.083 -11.846   4.849  0.00  0.00    +0.304 C 
ATOM     30  O   LIG    1       28.779 -11.676   3.823  0.00  0.00    -0.251 OA
ATOM     31  C   LIG    1       28.607 -12.329   6.148  0.00  0.00    +0.136 C 
ENDBRANCH  28  29
ENDBRANCH  20  28
ENDBRANCH   1   3
BRANCH   1  32
ATOM     32  C   LIG    1       23.546 -14.152   2.582  0.00  0.00    +0.281 C 
ATOM     33  C   LIG    1       22.249 -14.630   2.013  0.00  0.00    +0.190 C 
ATOM     34  C   LIG    1       21.678 -15.835   2.806  0.00  0.00    +0.121 C 
ATOM     35  C   LIG    1       22.694 -16.438   3.917  0.00  0.00    +0.169 C 
ATOM     36  C   LIG    1       23.097 -15.257   4.757  0.00  0.00    +0.149 C 
ATOM     37  C   LIG    1       24.231 -15.458   5.800  0.00  0.00    +0.040 C 
ATOM     38  O   LIG    1       23.288 -14.094   3.968  0.00  0.00    -0.343 OA
BRANCH  34  39
ATOM     39  N   LIG    1       21.043 -16.726   1.812  0.00  0.00    -0.301 NA
ATOM     40  C   LIG    1       19.601 -16.788   2.040  0.00  0.00    +0.105 C 
ATOM     41  C   LIG    1       21.585 -18.109   1.865  0.00  0.00    +0.105 C 
ENDBRANCH  34  39
BRANCH  33  42
ATOM     42  O   LIG    1       21.235 -13.630   2.138  0.00  0.00    -0.385 OA
ATOM     43  H   LIG    1       21.041 -13.549   3.090  0.00  0.00    +0.210 HD
ENDBRANCH  33  42
BRANCH  35  44
ATOM     44  O   LIG    1       22.065 -17.401   4.800  0.00  0.00    -0.344 OA
BRANCH  44  45
ATOM     45  C   LIG    1       22.028 -18.800   4.410  0.00  0.00    +0.254 C 
ATOM     46  O   LIG    1       21.391 -19.601   5.390  0.00  0.00    -0.344 OA
ATOM     47  C   LIG    1       21.476 -21.031   5.250  0.00  0.00    +0.162 C 
ATOM     48  C   LIG    1       20.452 -21.571   4.243  0.00  0.00    +0.042 C 
ATOM     49  C   LIG    1       22.934 -21.544   5.028  0.00  0.00    +0.236 C 
ATOM     50  C   LIG    1       23.612 -20.758   3.871  0.00  0.00    +0.107 C 
ATOM     51  C   LIG    1       23.195 -21.276   2.476  0.00  0.00    +0.045 C 
ATOM     52  C   LIG    1       23.428 -19.242   4.036  0.00  0.00    +0.099 C 
BRANCH  50  53
ATOM     53  O   LIG    1       25.005 -21.063   3.806  0.00  0.00    -0.385 OA
ATOM     54  H   LIG    1       25.263 -21.212   2.880  0.00  0.00    +0.210 HD
ENDBRANCH  50  53
BRANCH  49  55
ATOM     55  O   LIG    1       23.584 -21.474   6.354  0.00  0.00    -0.456 OA
BRANCH  55  56
ATOM     56  C   LIG    1       24.720 -20.757   6.592  0.00  0.00    +0.308 C 
ATOM     57  O   LIG    1       24.772 -19.627   7.060  0.00  0.00    -0.251 OA
BRANCH  56  58
ATOM     58  C   LIG    1       25.984 -21.571   6.376  0.00  0.00    +0.123 C 
BRANCH  58  59
ATOM     59  C   LIG    1       27.273 -20.902   6.879  0.00  0.00    -0.007 C 
ATOM     60  C   LIG    1       27.152 -19.374   6.784  0.00  0.00    +0.007 C 
ATOM     61  C   LIG    1       28.498 -21.370   6.087  0.00  0.00    +0.007 C 
ENDBRANCH  58  59
ENDBRANCH  56  58
ENDBRANCH  55  56
ENDBRANCH  49  55
ENDBRANCH  44  45
ENDBRANCH  35  44
ENDBRANCH   1  32
TORSDOF 17
ENDMDL
MODEL 2
REMARK VINA RESULT:      85.1      1.388      2.174
REMARK  Name = *****
REMARK                            x       y       z     vdW  Elec       q    Type
REMARK                         _______ _______ _______ _____ _____    ______ ____
ROOT
ATOM      1  O   LIG    1       24.310 -15.310   1.985  0.00  0.00    -0.343 OA
ENDROOT
BRANCH   1   3
ATOM      2  C   LIG    1       25.963 -13.748   3.430  0.00  0.00    +0.188 C 
ATOM      3  C   LIG    1       25.693 -14.865   2.302  0.00  0.00    +0.157 C 
ATOM      4  C   LIG    1       26.667 -16.153   2.431  0.00  0.00    +0.028 C 
ATOM      5  C   LIG    1       26.228 -16.961   3.658  0.00  0.00    +0.012 C 
ATOM      6  C   LIG    1       26.429 -18.346   4.297  0.00  0.00    +0.019 C 
ATOM      7  C   LIG    1       27.692 -18.474   5.077  0.00  0.00    +0.010 C 
ATOM      8  C   LIG    1       25.120 -18.836   5.194  0.00  0.00    +0.140 C 
ATOM      9  C   LIG    1       24.520 -17.873   6.223  0.00  0.00    +0.004 C 
ATOM     10  C   LIG    1       23.223 -17.449   6.277  0.00  0.00    -0.002 C 
ATOM     11  C   LIG    1       22.810 -16.197   6.967  0.00  0.00    -0.004 C 
ATOM     12  C   LIG    1       21.749 -15.398   6.687  0.00  0.00    -0.023 C 
ATOM     13  C   LIG    1       21.513 -13.929   7.054  0.00  0.00    +0.071 C 
ATOM     14  C   LIG    1       21.380 -12.856   5.880  0.00  0.00    +0.177 C 
ATOM     15  C   LIG    1       20.504 -11.689   6.355  0.00  0.00    +0.052 C 
ATOM     16  O   LIG    1       22.702 -12.305   5.572  0.00  0.00    -0.461 OA
ATOM     17  C   LIG    1       23.037 -11.754   4.366  0.00  0.00    +0.311 C 
ATOM     18  O   LIG    1       22.223 -11.448   3.472  0.00  0.00    -0.251 OA
ATOM     19  C   LIG    1       24.545 -11.514   4.275  0.00  0.00    +0.168 C 
ATOM     20  C   LIG    1       25.537 -12.237   3.288  0.00  0.00    +0.218 C 
BRANCH   8  21
ATOM     21  O   LIG    1       25.352 -20.124   5.761  0.00  0.00    -0.388 OA
ATOM     22  H   LIG    1       26.187 -20.049   6.263  0.00  0.00    +0.210 HD
ENDBRANCH   8  21
BRANCH   2  24
ATOM     23  C   LIG    1       26.872 -13.616   5.615  0.00  0.00    +0.194 C 
ATOM     24  O   LIG    1       25.892 -14.155   4.788  0.00  0.00    -0.373 OA
ENDBRANCH   2  24
BRANCH   4  25
ATOM     25  C   LIG    1       28.163 -16.041   2.275  0.00  0.00    +0.077 C 
BRANCH  25  26
ATOM     26  C   LIG    1       28.891 -15.197   3.307  0.00  0.00    +0.223 C 
ATOM     27  O   LIG    1       28.795 -15.288   4.477  0.00  0.00    -0.301 OA
ENDBRANCH  25  26
ENDBRANCH   4  25
BRANCH  20  28
ATOM     28  O   LIG    1       26.745 -11.455   3.691  0.00  0.00    -0.458 OA
BRANCH  28  29
ATOM     29  C   LIG    1       27.931 -12.053   3.884  0.00  0.00    +0.304 C 
ATOM     30  O   LIG    1       28.991 -11.493   4.244  0.00  0.00    -0.251 OA
ATOM     31  C   LIG    1       27.740 -13.520   3.810  0.00  0.00    +0.136 C 
ENDBRANCH  28  29
ENDBRANCH  20  28
ENDBRANCH   1   3
BRANCH   1  32
ATOM     32  C   LIG    1       23.176 -14.614   2.514  0.00  0.00    +0.281 C 
ATOM     33  C   LIG    1       21.822 -15.169   2.209  0.00  0.00    +0.190 C 
ATOM     34  C   LIG    1       21.322 -16.124   3.324  0.00  0.00    +0.121 C 
ATOM     35  C   LIG    1       22.440 -16.476   4.445  0.00  0.00    +0.169 C 
ATOM     36  C   LIG    1       22.942 -15.141   4.926  0.00  0.00    +0.149 C 
ATOM     37  C   LIG    1       24.174 -15.124   5.871  0.00  0.00    +0.040 C 
ATOM     38  O   LIG    1       23.063 -14.212   3.861  0.00  0.00    -0.343 OA
BRANCH  34  39
ATOM     39  N   LIG    1       20.577 -17.206   2.646  0.00  0.00    -0.301 NA
ATOM     40  C   LIG    1       19.350 -17.508   3.378  0.00  0.00    +0.105 C 
ATOM     41  C   LIG    1       21.375 -18.456   2.533  0.00  0.00    +0.105 C 
ENDBRANCH  34  39
BRANCH  33  42
ATOM     42  O   LIG    1       20.838 -14.133   2.183  0.00  0.00    -0.385 OA
ATOM     43  H   LIG    1       20.793 -13.815   1.263  0.00  0.00    +0.210 HD
ENDBRANCH  33  42
BRANCH  35  44
ATOM     44  O   LIG    1       21.895 -17.172   5.594  0.00  0.00    -0.344 OA
BRANCH  44  45
ATOM     45  C   LIG    1       21.680 -18.606   5.516  0.00  0.00    +0.254 C 
ATOM     46  O   LIG    1       22.903 -19.319   5.478  0.00  0.00    -0.344 OA
ATOM     47  C   LIG    1       22.855 -20.726   5.178  0.00  0.00    +0.162 C 
ATOM     48  C   LIG    1       22.485 -21.564   6.409  0.00  0.00    +0.042 C 
ATOM     49  C   LIG    1       22.022 -21.055   3.898  0.00  0.00    +0.236 C 
ATOM     50  C   LIG    1       20.624 -20.380   3.975  0.00  0.00    +0.107 C 
ATOM     51  C   LIG    1       19.630 -21.173   4.852  0.00  0.00    +0.045 C 
ATOM     52  C   LIG    1       20.735 -18.900   4.369  0.00  0.00    +0.099 C 
BRANCH  50  53
ATOM     53  O   LIG    1       19.945 -20.489   2.725  0.00  0.00    -0.385 OA
ATOM     54  H   LIG    1       19.799 -19.602   2.354  0.00  0.00    +0.210 HD
ENDBRANCH  50  53
BRANCH  49  55
ATOM     55  O   LIG    1       22.885 -20.677   2.757  0.00  0.00    -0.456 OA
BRANCH  55  56
ATOM     56  C   LIG    1       23.307 -19.400   2.531  0.00  0.00    +0.308 C 
ATOM     57  O   LIG    1       22.607 -18.397   2.555  0.00  0.00    -0.251 OA
BRANCH  56  58
ATOM     58  C   LIG    1       24.817 -19.294   2.403  0.00  0.00    +0.123 C 
BRANCH  58  59
ATOM     59  C   LIG    1       25.593 -20.518   2.914  0.00  0.00    -0.007 C 
ATOM     60  C   LIG    1       26.966 -20.090   3.454  0.00  0.00    +0.007 C 
ATOM     61  C   LIG    1       25.778 -21.569   1.815  0.00  0.00    +0.007 C 
ENDBRANCH  58  59
ENDBRANCH  56  58
ENDBRANCH  55  56
ENDBRANCH  49  55
ENDBRANCH  44  45
ENDBRANCH  35  44
ENDBRANCH   1  32
TORSDOF 17
ENDMDL
MODEL 3
REMARK VINA RESULT:      86.1      1.255      2.012
REMARK  Name = *****
REMARK                            x       y       z     vdW  Elec       q    Type
REMARK                         _______ _______ _______ _____ _____    ______ ____
ROOT
ATOM      1  O   LIG    1       24.654 -14.326   1.900  0.00  0.00    -0.343 OA
ENDROOT
BRANCH   1   3
ATOM      2  C   LIG    1       26.134 -13.975   4.125  0.00  0.00    +0.188 C 
ATOM      3  C   LIG    1       25.988 -14.311   2.556  0.00  0.00    +0.157 C 
ATOM      4  C   LIG    1       26.838 -15.612   2.099  0.00  0.00    +0.028 C 
ATOM      5  C   LIG    1       26.143 -16.858   2.662  0.00  0.00    +0.012 C 
ATOM      6  C   LIG    1       26.139 -18.387   2.498  0.00  0.00    +0.019 C 
ATOM      7  C   LIG    1       27.238 -19.076   3.230  0.00  0.00    +0.010 C 
ATOM      8  C   LIG    1       24.665 -19.067   2.851  0.00  0.00    +0.140 C 
ATOM      9  C   LIG    1       23.962 -18.685   4.157  0.00  0.00    +0.004 C 
ATOM     10  C   LIG    1       22.707 -18.163   4.279  0.00  0.00    -0.002 C 
ATOM     11  C   LIG    1       22.265 -17.391   5.471  0.00  0.00    -0.004 C 
ATOM     12  C   LIG    1       21.323 -16.416   5.536  0.00  0.00    -0.023 C 
ATOM     13  C   LIG    1       21.125 -15.320   6.589  0.00  0.00    +0.071 C 
ATOM     14  C   LIG    1       21.267 -13.794   6.145  0.00  0.00    +0.177 C 
ATOM     15  C   LIG    1       20.401 -12.917   7.060  0.00  0.00    +0.052 C 
ATOM     16  O   LIG    1       22.656 -13.363   6.323  0.00  0.00    -0.461 OA
ATOM     17  C   LIG    1       23.229 -12.331   5.631  0.00  0.00    +0.311 C 
ATOM     18  O   LIG    1       22.603 -11.499   4.947  0.00  0.00    -0.251 OA
ATOM     19  C   LIG    1       24.743 -12.301   5.850  0.00  0.00    +0.168 C 
ATOM     20  C   LIG    1       25.839 -12.559   4.750  0.00  0.00    +0.218 C 
BRANCH   8  21
ATOM     21  O   LIG    1       24.711 -20.483   2.679  0.00  0.00    -0.388 OA
ATOM     22  H   LIG    1       23.829 -20.741   2.347  0.00  0.00    +0.210 HD
ENDBRANCH   8  21
BRANCH   2  24
ATOM     23  C   LIG    1       26.604 -15.047   6.186  0.00  0.00    +0.194 C 
ATOM     24  O   LIG    1       25.803 -15.000   5.049  0.00  0.00    -0.373 OA
ENDBRANCH   2  24
BRANCH   4  25
ATOM     25  C   LIG    1       28.343 -15.656   2.194  0.00  0.00    +0.077 C 
BRANCH  25  26
ATOM     26  C   LIG    1       29.079 -14.361   1.900  0.00  0.00    +0.223 C 
ATOM     27  O   LIG    1       29.166 -13.429   2.613  0.00  0.00    -0.301 OA
ENDBRANCH  25  26
ENDBRANCH   4  25
BRANCH  20  28
ATOM     28  O   LIG    1       27.009 -12.276   5.635  0.00  0.00    -0.458 OA
BRANCH  28  29
ATOM     29  C   LIG    1       28.179 -12.914   5.472  0.00  0.00    +0.304 C 
ATOM     30  O   LIG    1       28.402 -14.121   5.712  0.00  0.00    -0.251 OA
ATOM     31  C   LIG    1       29.114 -12.013   4.757  0.00  0.00    +0.136 C 
ENDBRANCH  28  29
ENDBRANCH  20  28
ENDBRANCH   1   3
BRANCH   1  32
ATOM     32  C   LIG    1       23.465 -14.049   2.649  0.00  0.00    +0.281 C 
ATOM     33  C   LIG    1       22.319 -14.996   2.496  0.00  0.00    +0.190 C 
ATOM     34  C   LIG    1       22.331 -16.102   3.583  0.00  0.00    +0.121 C 
ATOM     35  C   LIG    1       23.674 -16.120   4.493  0.00  0.00    +0.169 C 
ATOM     36  C   LIG    1       23.811 -14.714   5.013  0.00  0.00    +0.149 C 
ATOM     37  C   LIG    1       25.117 -14.341   5.765  0.00  0.00    +0.040 C 
ATOM     38  O   LIG    1       23.460 -13.756   4.028  0.00  0.00    -0.343 OA
BRANCH  34  39
ATOM     39  N   LIG    1       21.855 -17.338   2.928  0.00  0.00    -0.301 NA
ATOM     40  C   LIG    1       22.866 -17.836   1.998  0.00  0.00    +0.105 C 
ATOM     41  C   LIG    1       20.590 -17.128   2.176  0.00  0.00    +0.105 C 
ENDBRANCH  34  39
BRANCH  33  42
ATOM     42  O   LIG    1       21.072 -14.328   2.707  0.00  0.00    -0.385 OA
ATOM     43  H   LIG    1       20.591 -14.364   1.860  0.00  0.00    +0.210 HD
ENDBRANCH  33  42
BRANCH  35  44
ATOM     44  O   LIG    1       23.570 -16.997   5.643  0.00  0.00    -0.344 OA
BRANCH  44  45
ATOM     45  C   LIG    1       23.889 -18.406   5.490  0.00  0.00    +0.254 C 
ATOM     46  O   LIG    1       23.938 -19.072   6.739  0.00  0.00    -0.344 OA
ATOM     47  C   LIG    1       24.459 -20.413   6.768  0.00  0.00    +0.162 C 
ATOM     48  C   LIG    1       23.409 -21.446   6.337  0.00  0.00    +0.042 C 
ATOM     49  C   LIG    1       25.838 -20.556   6.049  0.00  0.00    +0.236 C 
ATOM     50  C   LIG    1       25.771 -19.938   4.624  0.00  0.00    +0.107 C 
ATOM     51  C   LIG    1       25.114 -20.886   3.597  0.00  0.00    +0.045 C 
ATOM     52  C   LIG    1       25.142 -18.537   4.648  0.00  0.00    +0.099 C 
BRANCH  50  53
ATOM     53  O   LIG    1       27.074 -19.863   4.048  0.00  0.00    -0.385 OA
ATOM     54  H   LIG    1       27.346 -20.745   3.741  0.00  0.00    +0.210 HD
ENDBRANCH  50  53
BRANCH  49  55
ATOM     55  O   LIG    1       26.831 -19.978   6.982  0.00  0.00    -0.456 OA
BRANCH  55  56
ATOM     56  C   LIG    1       28.128 -20.396   7.045  0.00  0.00    +0.308 C 
ATOM     57  O   LIG    1       28.508 -21.559   7.059  0.00  0.00    -0.251 OA
BRANCH  56  58
ATOM     58  C   LIG    1       29.120 -19.252   6.927  0.00  0.00    +0.123 C 
BRANCH  58  59
ATOM     59  C   LIG    1       28.564 -17.985   6.258  0.00  0.00    -0.007 C 
ATOM     60  C   LIG    1       29.112 -17.853   4.830  0.00  0.00    +0.007 C 
ATOM     61  C   LIG    1       28.910 -16.726   7.060  0.00  0.00    +0.007 C 
ENDBRANCH  58  59
ENDBRANCH  56  58
ENDBRANCH  55  56
ENDBRANCH  49  55
ENDBRANCH  44  45
ENDBRANCH  35  44
ENDBRANCH   1  32
TORSDOF 17
ENDMDL
