MODEL 1
REMARK VINA RESULT:      -4.8      0.000      0.000
REMARK  Name = *****
REMARK                            x       y       z     vdW  Elec       q    Type
REMARK                         _______ _______ _______ _____ _____    ______ ____
ROOT
ATOM      1  C   LIG    1       28.441 -20.850   6.401  0.00  0.00    +0.044 C 
ATOM      2  C   LIG    1       27.757 -19.838   5.532  0.00  0.00    -0.050 A 
ATOM      3  C   LIG    1       26.470 -20.084   5.050  0.00  0.00    +0.009 A 
ATOM      4  C   LIG    1       25.800 -19.136   4.249  0.00  0.00    -0.015 A 
ATOM      5  C   LIG    1       26.438 -17.928   3.900  0.00  0.00    +0.035 A 
ATOM      6  C   LIG    1       27.712 -17.677   4.424  0.00  0.00    +0.024 A 
ATOM      7  C   LIG    1       28.365 -18.619   5.224  0.00  0.00    +0.005 A 
ENDROOT
BRANCH   5   8
ATOM      8  N   LIG    1       25.742 -16.955   3.138  0.00  0.00    -0.311 N 
ATOM      9  H   LIG    1       24.882 -17.376   2.776  0.00  0.00    +0.152 HD
BRANCH   8  10
ATOM     10  C   LIG    1       25.481 -15.591   3.474  0.00  0.00    +0.086 A 
ATOM     11  C   LIG    1       24.232 -15.218   4.008  0.00  0.00    +0.065 A 
ATOM     12 CL   LIG    1       23.029 -16.414   4.355  0.00  0.00    -0.082 Cl
ATOM     13  C   LIG    1       23.924 -13.878   4.292  0.00  0.00    +0.022 A 
ATOM     14  C   LIG    1       24.854 -12.876   4.022  0.00  0.00    +0.004 A 
ATOM     15  C   LIG    1       26.083 -13.218   3.466  0.00  0.00    +0.040 A 
ATOM     16  C   LIG    1       26.385 -14.554   3.191  0.00  0.00    +0.146 A 
ATOM     17  F   LIG    1       27.570 -14.821   2.620  0.00  0.00    -0.203 F 
ENDBRANCH   8  10
ENDBRANCH   5   8
BRANCH   4  18
ATOM     18  C   LIG    1       24.451 -19.524   3.681  0.00  0.00    +0.157 C 
BRANCH  18  19
ATOM     19  C   LIG    1       23.524 -20.240   4.636  0.00  0.00    +0.309 C 
ATOM     20  O   LIG    1       22.955 -19.646   5.548  0.00  0.00    -0.251 OA
BRANCH  19  21
ATOM     21  O   LIG    1       23.368 -21.572   4.476  0.00  0.00    -0.480 OA
ATOM     22  H   LIG    1       23.918 -22.126   5.067  0.00  0.00    +0.295 HD
ENDBRANCH  19  21
ENDBRANCH  18  19
ENDBRANCH   4  18
TORSDOF 5
ENDMDL
MODEL 2
REMARK VINA RESULT:      -4.5      2.032      3.331
REMARK  Name = *****
REMARK                            x       y       z     vdW  Elec       q    Type
REMARK                         _______ _______ _______ _____ _____    ______ ____
ROOT
ATOM      1  C   LIG    1       22.462 -21.572   6.264  0.00  0.00    +0.044 C 
ATOM      2  C   LIG    1       23.109 -20.459   5.494  0.00  0.00    -0.050 A 
ATOM      3  C   LIG    1       24.460 -20.539   5.150  0.00  0.00    +0.009 A 
ATOM      4  C   LIG    1       25.084 -19.514   4.409  0.00  0.00    -0.015 A 
ATOM      5  C   LIG    1       24.349 -18.374   4.023  0.00  0.00    +0.035 A 
ATOM      6  C   LIG    1       22.986 -18.326   4.339  0.00  0.00    +0.024 A 
ATOM      7  C   LIG    1       22.375 -19.351   5.068  0.00  0.00    +0.005 A 
ENDROOT
BRANCH   5   8
ATOM      8  N   LIG    1       24.965 -17.370   3.233  0.00  0.00    -0.311 N 
ATOM      9  H   LIG    1       24.369 -17.179   2.423  0.00  0.00    +0.152 HD
BRANCH   8  10
ATOM     10  C   LIG    1       25.558 -16.145   3.668  0.00  0.00    +0.086 A 
ATOM     11  C   LIG    1       24.747 -15.042   4.000  0.00  0.00    +0.065 A 
ATOM     12 CL   LIG    1       23.021 -15.179   3.979  0.00  0.00    -0.082 Cl
ATOM     13  C   LIG    1       25.300 -13.807   4.374  0.00  0.00    +0.022 A 
ATOM     14  C   LIG    1       26.683 -13.642   4.397  0.00  0.00    +0.004 A 
ATOM     15  C   LIG    1       27.504 -14.708   4.044  0.00  0.00    +0.040 A 
ATOM     16  C   LIG    1       26.947 -15.936   3.679  0.00  0.00    +0.146 A 
ATOM     17  F   LIG    1       27.785 -16.918   3.311  0.00  0.00    -0.203 F 
ENDBRANCH   8  10
ENDBRANCH   5   8
BRANCH   4  18
ATOM     18  C   LIG    1       26.574 -19.628   4.168  0.00  0.00    +0.157 C 
BRANCH  18  19
ATOM     19  C   LIG    1       27.434 -19.652   5.411  0.00  0.00    +0.309 C 
ATOM     20  O   LIG    1       27.061 -20.206   6.442  0.00  0.00    -0.251 OA
BRANCH  19  21
ATOM     21  O   LIG    1       28.620 -19.009   5.363  0.00  0.00    -0.480 OA
ATOM     22  H   LIG    1       28.573 -18.043   5.516  0.00  0.00    +0.295 HD
ENDBRANCH  19  21
ENDBRANCH  18  19
ENDBRANCH   4  18
TORSDOF 5
ENDMDL
MODEL 3
REMARK VINA RESULT:      -4.3      3.508      6.564
REMARK  Name = *****
REMARK                            x       y       z     vdW  Elec       q    Type
REMARK                         _______ _______ _______ _____ _____    ______ ____
ROOT
ATOM      1  C   LIG    1       23.640 -11.929   4.865  0.00  0.00    +0.044 C 
ATOM      2  C   LIG    1       24.204 -13.244   4.417  0.00  0.00    -0.050 A 
ATOM      3  C   LIG    1       25.558 -13.352   4.094  0.00  0.00    +0.009 A 
ATOM      4  C   LIG    1       26.114 -14.584   3.691  0.00  0.00    -0.015 A 
ATOM      5  C   LIG    1       25.294 -15.727   3.582  0.00  0.00    +0.035 A 
ATOM      6  C   LIG    1       23.948 -15.613   3.947  0.00  0.00    +0.024 A 
ATOM      7  C   LIG    1       23.407 -14.389   4.354  0.00  0.00    +0.005 A 
ENDROOT
BRANCH   5   8
ATOM      8  N   LIG    1       25.866 -16.975   3.226  0.00  0.00    -0.311 N 
ATOM      9  H   LIG    1       26.862 -16.837   3.038  0.00  0.00    +0.152 HD
BRANCH   8  10
ATOM     10  C   LIG    1       25.688 -18.241   3.864  0.00  0.00    +0.086 A 
ATOM     11  C   LIG    1       26.754 -18.840   4.565  0.00  0.00    +0.065 A 
ATOM     12 CL   LIG    1       28.264 -18.011   4.746  0.00  0.00    -0.082 Cl
ATOM     13  C   LIG    1       26.630 -20.109   5.151  0.00  0.00    +0.022 A 
ATOM     14  C   LIG    1       25.439 -20.821   5.025  0.00  0.00    +0.004 A 
ATOM     15  C   LIG    1       24.383 -20.263   4.311  0.00  0.00    +0.040 A 
ATOM     16  C   LIG    1       24.512 -18.997   3.736  0.00  0.00    +0.146 A 
ATOM     17  F   LIG    1       23.474 -18.525   3.027  0.00  0.00    -0.203 F 
ENDBRANCH   8  10
ENDBRANCH   5   8
BRANCH   4  18
ATOM     18  C   LIG    1       27.564 -14.593   3.258  0.00  0.00    +0.157 C 
BRANCH  18  19
ATOM     19  C   LIG    1       28.431 -13.513   3.864  0.00  0.00    +0.309 C 
ATOM     20  O   LIG    1       28.183 -13.031   4.966  0.00  0.00    -0.251 OA
BRANCH  19  21
ATOM     21  O   LIG    1       29.473 -13.064   3.132  0.00  0.00    -0.480 OA
ATOM     22  H   LIG    1       29.580 -13.493   2.258  0.00  0.00    +0.295 HD
ENDBRANCH  19  21
ENDBRANCH  18  19
ENDBRANCH   4  18
TORSDOF 5
ENDMDL
MODEL 4
REMARK VINA RESULT:      -4.2      3.540      5.752
REMARK  Name = *****
REMARK                            x       y       z     vdW  Elec       q    Type
REMARK                         _______ _______ _______ _____ _____    ______ ____
ROOT
ATOM      1  C   LIG    1       28.717 -12.938   4.517  0.00  0.00    +0.044 C 
ATOM      2  C   LIG    1       27.619 -13.905   4.187  0.00  0.00    -0.050 A 
ATOM      3  C   LIG    1       26.310 -13.449   4.021  0.00  0.00    +0.009 A 
ATOM      4  C   LIG    1       25.266 -14.338   3.690  0.00  0.00    -0.015 A 
ATOM      5  C   LIG    1       25.531 -15.716   3.546  0.00  0.00    +0.035 A 
ATOM      6  C   LIG    1       26.854 -16.153   3.676  0.00  0.00    +0.024 A 
ATOM      7  C   LIG    1       27.884 -15.263   3.996  0.00  0.00    +0.005 A 
ENDROOT
BRANCH   5   8
ATOM      8  N   LIG    1       24.490 -16.599   3.163  0.00  0.00    -0.311 N 
ATOM      9  H   LIG    1       24.484 -16.676   2.142  0.00  0.00    +0.152 HD
BRANCH   8  10
ATOM     10  C   LIG    1       24.162 -17.872   3.722  0.00  0.00    +0.086 A 
ATOM     11  C   LIG    1       23.030 -18.016   4.549  0.00  0.00    +0.065 A 
ATOM     12 CL   LIG    1       21.965 -16.678   4.824  0.00  0.00    -0.082 Cl
ATOM     13  C   LIG    1       22.715 -19.239   5.161  0.00  0.00    +0.022 A 
ATOM     14  C   LIG    1       23.545 -20.343   4.979  0.00  0.00    +0.004 A 
ATOM     15  C   LIG    1       24.686 -20.217   4.192  0.00  0.00    +0.040 A 
ATOM     16  C   LIG    1       24.990 -18.998   3.581  0.00  0.00    +0.146 A 
ATOM     17  F   LIG    1       26.122 -18.925   2.864  0.00  0.00    -0.203 F 
ENDBRANCH   8  10
ENDBRANCH   5   8
BRANCH   4  18
ATOM     18  C   LIG    1       23.860 -13.781   3.632  0.00  0.00    +0.157 C 
BRANCH  18  19
ATOM     19  C   LIG    1       23.755 -12.315   3.274  0.00  0.00    +0.309 C 
ATOM     20  O   LIG    1       23.537 -11.459   4.127  0.00  0.00    -0.251 OA
BRANCH  19  21
ATOM     21  O   LIG    1       23.871 -11.979   1.972  0.00  0.00    -0.480 OA
ATOM     22  H   LIG    1       23.025 -11.799   1.514  0.00  0.00    +0.295 HD
ENDBRANCH  19  21
ENDBRANCH  18  19
ENDBRANCH   4  18
TORSDOF 5
ENDMDL
MODEL 5
REMARK VINA RESULT:      -4.0      2.381      3.663
REMARK  Name = *****
REMARK                            x       y       z     vdW  Elec       q    Type
REMARK                         _______ _______ _______ _____ _____    ______ ____
ROOT
ATOM      1  C   LIG    1       22.339 -21.571   5.842  0.00  0.00    +0.044 C 
ATOM      2  C   LIG    1       23.002 -20.392   5.195  0.00  0.00    -0.050 A 
ATOM      3  C   LIG    1       24.384 -20.389   4.995  0.00  0.00    +0.009 A 
ATOM      4  C   LIG    1       25.026 -19.300   4.370  0.00  0.00    -0.015 A 
ATOM      5  C   LIG    1       24.276 -18.179   3.958  0.00  0.00    +0.035 A 
ATOM      6  C   LIG    1       22.887 -18.213   4.129  0.00  0.00    +0.024 A 
ATOM      7  C   LIG    1       22.258 -19.301   4.742  0.00  0.00    +0.005 A 
ENDROOT
BRANCH   5   8
ATOM      8  N   LIG    1       24.917 -17.108   3.284  0.00  0.00    -0.311 N 
ATOM      9  H   LIG    1       24.602 -17.099   2.310  0.00  0.00    +0.152 HD
BRANCH   8  10
ATOM     10  C   LIG    1       25.083 -15.760   3.727  0.00  0.00    +0.086 A 
ATOM     11  C   LIG    1       26.367 -15.265   4.032  0.00  0.00    +0.065 A 
ATOM     12 CL   LIG    1       27.771 -16.248   3.787  0.00  0.00    -0.082 Cl
ATOM     13  C   LIG    1       26.557 -13.965   4.526  0.00  0.00    +0.022 A 
ATOM     14  C   LIG    1       25.458 -13.137   4.750  0.00  0.00    +0.004 A 
ATOM     15  C   LIG    1       24.178 -13.615   4.485  0.00  0.00    +0.040 A 
ATOM     16  C   LIG    1       23.998 -14.908   3.988  0.00  0.00    +0.146 A 
ATOM     17  F   LIG    1       22.739 -15.328   3.786  0.00  0.00    -0.203 F 
ENDBRANCH   8  10
ENDBRANCH   5   8
BRANCH   4  18
ATOM     18  C   LIG    1       26.537 -19.328   4.286  0.00  0.00    +0.157 C 
BRANCH  18  19
ATOM     19  C   LIG    1       27.243 -19.963   5.462  0.00  0.00    +0.309 C 
ATOM     20  O   LIG    1       26.696 -20.080   6.555  0.00  0.00    -0.251 OA
BRANCH  19  21
ATOM     21  O   LIG    1       28.519 -20.367   5.282  0.00  0.00    -0.480 OA
ATOM     22  H   LIG    1       28.848 -20.300   4.363  0.00  0.00    +0.295 HD
ENDBRANCH  19  21
ENDBRANCH  18  19
ENDBRANCH   4  18
TORSDOF 5
ENDMDL
MODEL 6
REMARK VINA RESULT:      -3.9      3.325      6.340
REMARK  Name = *****
REMARK                            x       y       z     vdW  Elec       q    Type
REMARK                         _______ _______ _______ _____ _____    ______ ____
ROOT
ATOM      1  C   LIG    1       23.833 -12.154   4.859  0.00  0.00    +0.044 C 
ATOM      2  C   LIG    1       24.485 -13.427   4.407  0.00  0.00    -0.050 A 
ATOM      3  C   LIG    1       25.877 -13.526   4.371  0.00  0.00    +0.009 A 
ATOM      4  C   LIG    1       26.511 -14.720   3.969  0.00  0.00    -0.015 A 
ATOM      5  C   LIG    1       25.739 -15.831   3.571  0.00  0.00    +0.035 A 
ATOM      6  C   LIG    1       24.345 -15.731   3.651  0.00  0.00    +0.024 A 
ATOM      7  C   LIG    1       23.725 -14.545   4.058  0.00  0.00    +0.005 A 
ENDROOT
BRANCH   5   8
ATOM      8  N   LIG    1       26.378 -17.046   3.217  0.00  0.00    -0.311 N 
ATOM      9  H   LIG    1       27.273 -16.828   2.771  0.00  0.00    +0.152 HD
BRANCH   8  10
ATOM     10  C   LIG    1       26.535 -18.225   4.010  0.00  0.00    +0.086 A 
ATOM     11  C   LIG    1       25.460 -19.122   4.168  0.00  0.00    +0.065 A 
ATOM     12 CL   LIG    1       23.966 -18.864   3.332  0.00  0.00    -0.082 Cl
ATOM     13  C   LIG    1       25.563 -20.257   4.988  0.00  0.00    +0.022 A 
ATOM     14  C   LIG    1       26.740 -20.505   5.690  0.00  0.00    +0.004 A 
ATOM     15  C   LIG    1       27.804 -19.616   5.574  0.00  0.00    +0.040 A 
ATOM     16  C   LIG    1       27.697 -18.492   4.751  0.00  0.00    +0.146 A 
ATOM     17  F   LIG    1       28.741 -17.649   4.707  0.00  0.00    -0.203 F 
ENDBRANCH   8  10
ENDBRANCH   5   8
BRANCH   4  18
ATOM     18  C   LIG    1       28.021 -14.711   3.857  0.00  0.00    +0.157 C 
BRANCH  18  19
ATOM     19  C   LIG    1       28.679 -13.361   4.032  0.00  0.00    +0.309 C 
ATOM     20  O   LIG    1       28.475 -12.669   5.026  0.00  0.00    -0.251 OA
BRANCH  19  21
ATOM     21  O   LIG    1       29.475 -12.920   3.034  0.00  0.00    -0.480 OA
ATOM     22  H   LIG    1       29.011 -12.448   2.313  0.00  0.00    +0.295 HD
ENDBRANCH  19  21
ENDBRANCH  18  19
ENDBRANCH   4  18
TORSDOF 5
ENDMDL
MODEL 7
REMARK VINA RESULT:      -3.8      3.821      5.942
REMARK  Name = *****
REMARK                            x       y       z     vdW  Elec       q    Type
REMARK                         _______ _______ _______ _____ _____    ______ ____
ROOT
ATOM      1  C   LIG    1       28.675 -12.765   4.573  0.00  0.00    +0.044 C 
ATOM      2  C   LIG    1       27.628 -13.774   4.207  0.00  0.00    -0.050 A 
ATOM      3  C   LIG    1       26.320 -13.363   3.945  0.00  0.00    +0.009 A 
ATOM      4  C   LIG    1       25.325 -14.292   3.578  0.00  0.00    -0.015 A 
ATOM      5  C   LIG    1       25.636 -15.665   3.495  0.00  0.00    +0.035 A 
ATOM      6  C   LIG    1       26.960 -16.058   3.722  0.00  0.00    +0.024 A 
ATOM      7  C   LIG    1       27.942 -15.128   4.077  0.00  0.00    +0.005 A 
ENDROOT
BRANCH   5   8
ATOM      8  N   LIG    1       24.646 -16.590   3.077  0.00  0.00    -0.311 N 
ATOM      9  H   LIG    1       24.900 -16.944   2.151  0.00  0.00    +0.152 HD
BRANCH   8  10
ATOM     10  C   LIG    1       24.055 -17.651   3.830  0.00  0.00    +0.086 A 
ATOM     11  C   LIG    1       24.617 -18.943   3.798  0.00  0.00    +0.065 A 
ATOM     12 CL   LIG    1       26.082 -19.245   2.927  0.00  0.00    -0.082 Cl
ATOM     13  C   LIG    1       24.026 -20.020   4.478  0.00  0.00    +0.022 A 
ATOM     14  C   LIG    1       22.841 -19.831   5.186  0.00  0.00    +0.004 A 
ATOM     15  C   LIG    1       22.252 -18.571   5.206  0.00  0.00    +0.040 A 
ATOM     16  C   LIG    1       22.848 -17.503   4.532  0.00  0.00    +0.146 A 
ATOM     17  F   LIG    1       22.215 -16.319   4.554  0.00  0.00    -0.203 F 
ENDBRANCH   8  10
ENDBRANCH   5   8
BRANCH   4  18
ATOM     18  C   LIG    1       23.910 -13.779   3.414  0.00  0.00    +0.157 C 
BRANCH  18  19
ATOM     19  C   LIG    1       23.764 -12.275   3.366  0.00  0.00    +0.309 C 
ATOM     20  O   LIG    1       23.589 -11.612   4.385  0.00  0.00    -0.251 OA
BRANCH  19  21
ATOM     21  O   LIG    1       23.795 -11.682   2.153  0.00  0.00    -0.480 OA
ATOM     22  H   LIG    1       23.559 -12.264   1.402  0.00  0.00    +0.295 HD
ENDBRANCH  19  21
ENDBRANCH  18  19
ENDBRANCH   4  18
TORSDOF 5
ENDMDL
MODEL 8
REMARK VINA RESULT:      -3.6      2.897      5.978
REMARK  Name = *****
REMARK                            x       y       z     vdW  Elec       q    Type
REMARK                         _______ _______ _______ _____ _____    ______ ____
ROOT
ATOM      1  C   LIG    1       23.856 -13.019   4.437  0.00  0.00    +0.044 C 
ATOM      2  C   LIG    1       23.933 -14.502   4.228  0.00  0.00    -0.050 A 
ATOM      3  C   LIG    1       25.146 -15.097   3.877  0.00  0.00    +0.009 A 
ATOM      4  C   LIG    1       25.247 -16.492   3.696  0.00  0.00    -0.015 A 
ATOM      5  C   LIG    1       24.106 -17.308   3.845  0.00  0.00    +0.035 A 
ATOM      6  C   LIG    1       22.906 -16.703   4.237  0.00  0.00    +0.024 A 
ATOM      7  C   LIG    1       22.818 -15.319   4.422  0.00  0.00    +0.005 A 
ENDROOT
BRANCH   5   8
ATOM      8  N   LIG    1       24.220 -18.715   3.713  0.00  0.00    -0.311 N 
ATOM      9  H   LIG    1       25.001 -18.923   3.084  0.00  0.00    +0.152 HD
BRANCH   8  10
ATOM     10  C   LIG    1       24.184 -19.704   4.744  0.00  0.00    +0.086 A 
ATOM     11  C   LIG    1       22.949 -20.201   5.208  0.00  0.00    +0.065 A 
ATOM     12 CL   LIG    1       21.465 -19.695   4.475  0.00  0.00    -0.082 Cl
ATOM     13  C   LIG    1       22.878 -21.128   6.259  0.00  0.00    +0.022 A 
ATOM     14  C   LIG    1       24.043 -21.560   6.889  0.00  0.00    +0.004 A 
ATOM     15  C   LIG    1       25.272 -21.059   6.468  0.00  0.00    +0.040 A 
ATOM     16  C   LIG    1       25.336 -20.141   5.417  0.00  0.00    +0.146 A 
ATOM     17  F   LIG    1       26.544 -19.663   5.079  0.00  0.00    -0.203 F 
ENDBRANCH   8  10
ENDBRANCH   5   8
BRANCH   4  18
ATOM     18  C   LIG    1       26.570 -17.045   3.214  0.00  0.00    +0.157 C 
BRANCH  18  19
ATOM     19  C   LIG    1       27.772 -16.692   4.060  0.00  0.00    +0.309 C 
ATOM     20  O   LIG    1       28.025 -15.529   4.365  0.00  0.00    -0.251 OA
BRANCH  19  21
ATOM     21  O   LIG    1       28.585 -17.699   4.443  0.00  0.00    -0.480 OA
ATOM     22  H   LIG    1       29.501 -17.642   4.103  0.00  0.00    +0.295 HD
ENDBRANCH  19  21
ENDBRANCH  18  19
ENDBRANCH   4  18
TORSDOF 5
ENDMDL
MODEL 9
REMARK VINA RESULT:      -3.4      2.522      5.553
REMARK  Name = *****
REMARK                            x       y       z     vdW  Elec       q    Type
REMARK                         _______ _______ _______ _____ _____    ______ ____
ROOT
ATOM      1  C   LIG    1       24.434 -13.515   3.490  0.00  0.00    +0.044 C 
ATOM      2  C   LIG    1       25.004 -14.898   3.588  0.00  0.00    -0.050 A 
ATOM      3  C   LIG    1       24.157 -16.008   3.559  0.00  0.00    +0.009 A 
ATOM      4  C   LIG    1       24.673 -17.319   3.628  0.00  0.00    -0.015 A 
ATOM      5  C   LIG    1       26.062 -17.526   3.755  0.00  0.00    +0.035 A 
ATOM      6  C   LIG    1       26.902 -16.406   3.743  0.00  0.00    +0.024 A 
ATOM      7  C   LIG    1       26.382 -15.110   3.666  0.00  0.00    +0.005 A 
ENDROOT
BRANCH   5   8
ATOM      8  N   LIG    1       26.582 -18.845   3.773  0.00  0.00    -0.311 N 
ATOM      9  H   LIG    1       27.414 -18.878   3.178  0.00  0.00    +0.152 HD
BRANCH   8  10
ATOM     10  C   LIG    1       26.790 -19.696   4.902  0.00  0.00    +0.086 A 
ATOM     11  C   LIG    1       27.993 -19.626   5.633  0.00  0.00    +0.065 A 
ATOM     12 CL   LIG    1       29.196 -18.446   5.237  0.00  0.00    -0.082 Cl
ATOM     13  C   LIG    1       28.252 -20.489   6.709  0.00  0.00    +0.022 A 
ATOM     14  C   LIG    1       27.320 -21.463   7.062  0.00  0.00    +0.004 A 
ATOM     15  C   LIG    1       26.138 -21.571   6.335  0.00  0.00    +0.040 A 
ATOM     16  C   LIG    1       25.885 -20.705   5.269  0.00  0.00    +0.146 A 
ATOM     17  F   LIG    1       24.746 -20.880   4.580  0.00  0.00    -0.203 F 
ENDBRANCH   8  10
ENDBRANCH   5   8
BRANCH   4  18
ATOM     18  C   LIG    1       23.683 -18.462   3.696  0.00  0.00    +0.157 C 
BRANCH  18  19
ATOM     19  C   LIG    1       22.570 -18.301   4.707  0.00  0.00    +0.309 C 
ATOM     20  O   LIG    1       21.925 -17.259   4.794  0.00  0.00    -0.251 OA
BRANCH  19  21
ATOM     21  O   LIG    1       22.331 -19.333   5.543  0.00  0.00    -0.480 OA
ATOM     22  H   LIG    1       22.234 -19.088   6.486  0.00  0.00    +0.295 HD
ENDBRANCH  19  21
ENDBRANCH  18  19
ENDBRANCH   4  18
TORSDOF 5
ENDMDL
