MODEL 1
REMARK VINA RESULT:       4.4      0.000      0.000
REMARK  Name = *****
REMARK                            x       y       z     vdW  Elec       q    Type
REMARK                         _______ _______ _______ _____ _____    ______ ____
ROOT
ATOM      1  C   LIG    1       24.894 -19.583   3.580  0.00  0.00    +0.225 C 
ATOM      2  C   LIG    1       24.618 -20.833   4.449  0.00  0.00    +0.045 C 
ATOM      3  C   LIG    1       24.271 -20.403   5.881  0.00  0.00    +0.058 C 
ATOM      4  C   LIG    1       23.182 -19.336   5.861  0.00  0.00    +0.133 C 
ATOM      5  N   LIG    1       22.536 -19.299   4.463  0.00  0.00    +0.246 N 
ATOM      6  C   LIG    1       22.126 -20.726   4.056  0.00  0.00    +0.133 C 
ATOM      7  C   LIG    1       23.393 -21.572   3.882  0.00  0.00    +0.058 C 
ATOM      8  C   LIG    1       23.586 -18.784   3.423  0.00  0.00    +0.179 C 
ENDROOT
BRANCH   1   9
ATOM      9  O   LIG    1       25.894 -18.767   4.249  0.00  0.00    -0.453 OA
BRANCH   9  11
ATOM     10  O   LIG    1       25.290 -16.961   3.009  0.00  0.00    -0.247 OA
ATOM     11  C   LIG    1       26.140 -17.530   3.665  0.00  0.00    +0.350 C 
BRANCH  11  12
ATOM     12  C   LIG    1       27.604 -17.045   4.008  0.00  0.00    +0.226 C 
BRANCH  12  13
ATOM     13  C   LIG    1       28.289 -17.882   5.108  0.00  0.00    +0.037 A 
ATOM     14  S   LIG    1       27.947 -19.584   5.237  0.00  0.00    -0.098 S 
ATOM     15  C   LIG    1       28.920 -19.784   6.617  0.00  0.00    +0.045 A 
ATOM     16  C   LIG    1       29.475 -18.595   7.023  0.00  0.00    +0.008 A 
ATOM     17  C   LIG    1       29.110 -17.504   6.165  0.00  0.00    +0.015 A 
ENDBRANCH  12  13
BRANCH  12  18
ATOM     18  C   LIG    1       27.555 -15.545   4.277  0.00  0.00    +0.037 A 
ATOM     19  S   LIG    1       27.449 -14.411   2.976  0.00  0.00    -0.098 S 
ATOM     20  C   LIG    1       27.424 -13.079   4.039  0.00  0.00    +0.045 A 
ATOM     21  C   LIG    1       27.491 -13.466   5.356  0.00  0.00    +0.008 A 
ATOM     22  C   LIG    1       27.554 -14.882   5.495  0.00  0.00    +0.015 A 
ENDBRANCH  12  18
BRANCH  12  23
ATOM     23  O   LIG    1       28.430 -17.220   2.842  0.00  0.00    -0.369 OA
ATOM     24  H   LIG    1       28.990 -17.996   3.011  0.00  0.00    +0.212 HD
ENDBRANCH  12  23
ENDBRANCH  11  12
ENDBRANCH   9  11
ENDBRANCH   1   9
BRANCH   5  25
ATOM     25  C   LIG    1       21.350 -18.326   4.425  0.00  0.00    +0.136 C 
BRANCH  25  26
ATOM     26  C   LIG    1       21.652 -16.993   5.093  0.00  0.00    +0.092 C 
BRANCH  26  27
ATOM     27  C   LIG    1       22.543 -16.150   4.203  0.00  0.00    +0.234 C 
BRANCH  27  28
ATOM     28  O   LIG    1       23.277 -15.231   5.016  0.00  0.00    -0.492 OA
BRANCH  28  29
ATOM     29  C   LIG    1       23.584 -14.059   4.373  0.00  0.00    +0.120 A 
ATOM     30  C   LIG    1       23.795 -12.847   5.035  0.00  0.00    +0.045 A 
ATOM     31  C   LIG    1       24.076 -11.689   4.320  0.00  0.00    +0.004 A 
ATOM     32  C   LIG    1       24.158 -11.732   2.932  0.00  0.00    +0.000 A 
ATOM     33  C   LIG    1       23.980 -12.942   2.263  0.00  0.00    +0.004 A 
ATOM     34  C   LIG    1       23.710 -14.110   2.983  0.00  0.00    +0.045 A 
ENDBRANCH  28  29
ENDBRANCH  27  28
ENDBRANCH  26  27
ENDBRANCH  25  26
ENDBRANCH   5  25
TORSDOF 11
ENDMDL
MODEL 2
REMARK VINA RESULT:       4.6      1.878      5.530
REMARK  Name = *****
REMARK                            x       y       z     vdW  Elec       q    Type
REMARK                         _______ _______ _______ _____ _____    ______ ____
ROOT
ATOM      1  C   LIG    1       24.044 -16.029   4.485  0.00  0.00    +0.225 C 
ATOM      2  C   LIG    1       22.501 -15.949   4.425  0.00  0.00    +0.045 C 
ATOM      3  C   LIG    1       21.997 -16.607   3.133  0.00  0.00    +0.058 C 
ATOM      4  C   LIG    1       22.612 -17.993   2.974  0.00  0.00    +0.133 C 
ATOM      5  N   LIG    1       23.239 -18.425   4.313  0.00  0.00    +0.246 N 
ATOM      6  C   LIG    1       22.205 -18.242   5.440  0.00  0.00    +0.133 C 
ATOM      7  C   LIG    1       21.916 -16.746   5.604  0.00  0.00    +0.058 C 
ATOM      8  C   LIG    1       24.464 -17.504   4.630  0.00  0.00    +0.179 C 
ENDROOT
BRANCH   1   9
ATOM      9  O   LIG    1       24.584 -15.481   3.251  0.00  0.00    -0.453 OA
BRANCH   9  11
ATOM     10  O   LIG    1       26.648 -16.430   3.208  0.00  0.00    -0.247 OA
ATOM     11  C   LIG    1       25.971 -15.422   3.183  0.00  0.00    +0.350 C 
BRANCH  11  12
ATOM     12  C   LIG    1       26.449 -13.921   3.055  0.00  0.00    +0.226 C 
BRANCH  12  13
ATOM     13  C   LIG    1       27.453 -13.499   4.148  0.00  0.00    +0.037 A 
ATOM     14  S   LIG    1       27.189 -13.987   5.798  0.00  0.00    -0.098 S 
ATOM     15  C   LIG    1       28.546 -13.143   6.377  0.00  0.00    +0.045 A 
ATOM     16  C   LIG    1       29.186 -12.460   5.372  0.00  0.00    +0.008 A 
ATOM     17  C   LIG    1       28.558 -12.657   4.096  0.00  0.00    +0.015 A 
ENDBRANCH  12  13
BRANCH  12  18
ATOM     18  C   LIG    1       25.211 -13.038   2.942  0.00  0.00    +0.037 A 
ATOM     19  S   LIG    1       24.267 -12.645   4.337  0.00  0.00    -0.098 S 
ATOM     20  C   LIG    1       23.183 -11.694   3.429  0.00  0.00    +0.045 A 
ATOM     21  C   LIG    1       23.515 -11.660   2.095  0.00  0.00    +0.008 A 
ATOM     22  C   LIG    1       24.686 -12.420   1.816  0.00  0.00    +0.015 A 
ENDBRANCH  12  18
BRANCH  12  23
ATOM     23  O   LIG    1       27.166 -13.772   1.816  0.00  0.00    -0.369 OA
ATOM     24  H   LIG    1       26.623 -14.188   1.128  0.00  0.00    +0.212 HD
ENDBRANCH  12  23
ENDBRANCH  11  12
ENDBRANCH   9  11
ENDBRANCH   1   9
BRANCH   5  25
ATOM     25  C   LIG    1       23.764 -19.864   4.242  0.00  0.00    +0.136 C 
BRANCH  25  26
ATOM     26  C   LIG    1       23.368 -20.704   5.447  0.00  0.00    +0.092 C 
BRANCH  26  27
ATOM     27  C   LIG    1       24.532 -20.819   6.411  0.00  0.00    +0.234 C 
BRANCH  27  28
ATOM     28  O   LIG    1       25.649 -21.392   5.725  0.00  0.00    -0.492 OA
BRANCH  28  29
ATOM     29  C   LIG    1       26.818 -20.701   5.917  0.00  0.00    +0.120 A 
ATOM     30  C   LIG    1       27.120 -19.500   5.270  0.00  0.00    +0.045 A 
ATOM     31  C   LIG    1       28.337 -18.865   5.490  0.00  0.00    +0.004 A 
ATOM     32  C   LIG    1       29.263 -19.421   6.365  0.00  0.00    +0.000 A 
ATOM     33  C   LIG    1       28.959 -20.603   7.040  0.00  0.00    +0.004 A 
ATOM     34  C   LIG    1       27.730 -21.236   6.830  0.00  0.00    +0.045 A 
ENDBRANCH  28  29
ENDBRANCH  27  28
ENDBRANCH  26  27
ENDBRANCH  25  26
ENDBRANCH   5  25
TORSDOF 11
ENDMDL
MODEL 3
REMARK VINA RESULT:       5.4      2.060      5.832
REMARK  Name = *****
REMARK                            x       y       z     vdW  Elec       q    Type
REMARK                         _______ _______ _______ _____ _____    ______ ____
ROOT
ATOM      1  C   LIG    1       23.718 -16.861   4.021  0.00  0.00    +0.225 C 
ATOM      2  C   LIG    1       23.735 -17.788   2.783  0.00  0.00    +0.045 C 
ATOM      3  C   LIG    1       24.718 -18.944   3.013  0.00  0.00    +0.058 C 
ATOM      4  C   LIG    1       24.439 -19.611   4.356  0.00  0.00    +0.133 C 
ATOM      5  N   LIG    1       23.060 -19.156   4.870  0.00  0.00    +0.246 N 
ATOM      6  C   LIG    1       22.013 -19.355   3.759  0.00  0.00    +0.133 C 
ATOM      7  C   LIG    1       22.337 -18.402   2.602  0.00  0.00    +0.058 C 
ATOM      8  C   LIG    1       23.116 -17.630   5.213  0.00  0.00    +0.179 C 
ENDROOT
BRANCH   1   9
ATOM      9  O   LIG    1       25.085 -16.471   4.326  0.00  0.00    -0.453 OA
BRANCH   9  11
ATOM     10  O   LIG    1       25.988 -15.797   2.352  0.00  0.00    -0.247 OA
ATOM     11  C   LIG    1       25.634 -15.515   3.480  0.00  0.00    +0.350 C 
BRANCH  11  12
ATOM     12  C   LIG    1       25.683 -14.110   4.201  0.00  0.00    +0.226 C 
BRANCH  12  13
ATOM     13  C   LIG    1       24.683 -13.086   3.626  0.00  0.00    +0.037 A 
ATOM     14  S   LIG    1       24.849 -12.548   1.978  0.00  0.00    -0.098 S 
ATOM     15  C   LIG    1       23.550 -11.457   2.091  0.00  0.00    +0.045 A 
ATOM     16  C   LIG    1       23.004 -11.447   3.351  0.00  0.00    +0.008 A 
ATOM     17  C   LIG    1       23.655 -12.374   4.233  0.00  0.00    +0.015 A 
ENDBRANCH  12  13
BRANCH  12  18
ATOM     18  C   LIG    1       27.135 -13.644   4.232  0.00  0.00    +0.037 A 
ATOM     19  S   LIG    1       27.647 -12.398   5.316  0.00  0.00    -0.098 S 
ATOM     20  C   LIG    1       29.261 -12.487   4.776  0.00  0.00    +0.045 A 
ATOM     21  C   LIG    1       29.428 -13.438   3.797  0.00  0.00    +0.008 A 
ATOM     22  C   LIG    1       28.211 -14.112   3.493  0.00  0.00    +0.015 A 
ENDBRANCH  12  18
BRANCH  12  23
ATOM     23  O   LIG    1       25.285 -14.285   5.573  0.00  0.00    -0.369 OA
ATOM     24  H   LIG    1       24.434 -14.751   5.559  0.00  0.00    +0.212 HD
ENDBRANCH  12  23
ENDBRANCH  11  12
ENDBRANCH   9  11
ENDBRANCH   1   9
BRANCH   5  25
ATOM     25  C   LIG    1       22.678 -19.893   6.160  0.00  0.00    +0.136 C 
BRANCH  25  26
ATOM     26  C   LIG    1       23.883 -20.271   7.009  0.00  0.00    +0.092 C 
BRANCH  26  27
ATOM     27  C   LIG    1       24.766 -21.249   6.259  0.00  0.00    +0.234 C 
BRANCH  27  28
ATOM     28  O   LIG    1       25.911 -21.551   7.062  0.00  0.00    -0.492 OA
BRANCH  28  29
ATOM     29  C   LIG    1       27.049 -20.902   6.654  0.00  0.00    +0.120 A 
ATOM     30  C   LIG    1       28.334 -21.268   7.062  0.00  0.00    +0.045 A 
ATOM     31  C   LIG    1       29.445 -20.550   6.631  0.00  0.00    +0.004 A 
ATOM     32  C   LIG    1       29.281 -19.462   5.782  0.00  0.00    +0.000 A 
ATOM     33  C   LIG    1       28.006 -19.107   5.344  0.00  0.00    +0.004 A 
ATOM     34  C   LIG    1       26.890 -19.837   5.765  0.00  0.00    +0.045 A 
ENDBRANCH  28  29
ENDBRANCH  27  28
ENDBRANCH  26  27
ENDBRANCH  25  26
ENDBRANCH   5  25
TORSDOF 11
ENDMDL
MODEL 4
REMARK VINA RESULT:       5.6      2.130      5.383
REMARK  Name = *****
REMARK                            x       y       z     vdW  Elec       q    Type
REMARK                         _______ _______ _______ _____ _____    ______ ____
ROOT
ATOM      1  C   LIG    1       28.422 -18.043   4.620  0.00  0.00    +0.225 C 
ATOM      2  C   LIG    1       29.157 -18.668   5.829  0.00  0.00    +0.045 C 
ATOM      3  C   LIG    1       28.240 -18.652   7.059  0.00  0.00    +0.058 C 
ATOM      4  C   LIG    1       26.880 -19.248   6.709  0.00  0.00    +0.133 C 
ATOM      5  N   LIG    1       26.985 -19.993   5.365  0.00  0.00    +0.246 N 
ATOM      6  C   LIG    1       28.182 -20.959   5.413  0.00  0.00    +0.133 C 
ATOM      7  C   LIG    1       29.474 -20.139   5.511  0.00  0.00    +0.058 C 
ATOM      8  C   LIG    1       27.247 -18.957   4.221  0.00  0.00    +0.179 C 
ENDROOT
BRANCH   1   9
ATOM      9  O   LIG    1       27.919 -16.736   5.010  0.00  0.00    -0.453 OA
BRANCH   9  11
ATOM     10  O   LIG    1       27.253 -16.428   2.859  0.00  0.00    -0.247 OA
ATOM     11  C   LIG    1       27.301 -16.009   3.999  0.00  0.00    +0.350 C 
BRANCH  11  12
ATOM     12  C   LIG    1       26.708 -14.663   4.576  0.00  0.00    +0.226 C 
BRANCH  12  13
ATOM     13  C   LIG    1       25.326 -14.300   3.996  0.00  0.00    +0.037 A 
ATOM     14  S   LIG    1       25.150 -12.876   3.010  0.00  0.00    -0.098 S 
ATOM     15  C   LIG    1       23.471 -13.077   2.831  0.00  0.00    +0.045 A 
ATOM     16  C   LIG    1       23.014 -14.170   3.526  0.00  0.00    +0.008 A 
ATOM     17  C   LIG    1       24.073 -14.868   4.199  0.00  0.00    +0.015 A 
ENDBRANCH  12  13
BRANCH  12  18
ATOM     18  C   LIG    1       27.771 -13.579   4.436  0.00  0.00    +0.037 A 
ATOM     19  S   LIG    1       28.340 -13.087   2.879  0.00  0.00    -0.098 S 
ATOM     20  C   LIG    1       29.398 -11.930   3.547  0.00  0.00    +0.045 A 
ATOM     21  C   LIG    1       29.333 -11.901   4.920  0.00  0.00    +0.008 A 
ATOM     22  C   LIG    1       28.390 -12.837   5.431  0.00  0.00    +0.015 A 
ENDBRANCH  12  18
BRANCH  12  23
ATOM     23  O   LIG    1       26.484 -14.829   5.989  0.00  0.00    -0.369 OA
ATOM     24  H   LIG    1       25.967 -14.062   6.281  0.00  0.00    +0.212 HD
ENDBRANCH  12  23
ENDBRANCH  11  12
ENDBRANCH   9  11
ENDBRANCH   1   9
BRANCH   5  25
ATOM     25  C   LIG    1       25.674 -20.714   5.027  0.00  0.00    +0.136 C 
BRANCH  25  26
ATOM     26  C   LIG    1       25.087 -21.468   6.211  0.00  0.00    +0.092 C 
BRANCH  26  27
ATOM     27  C   LIG    1       23.580 -21.568   6.073  0.00  0.00    +0.234 C 
BRANCH  27  28
ATOM     28  O   LIG    1       23.000 -20.298   6.385  0.00  0.00    -0.492 OA
BRANCH  28  29
ATOM     29  C   LIG    1       22.234 -19.785   5.369  0.00  0.00    +0.120 A 
ATOM     30  C   LIG    1       21.285 -20.531   4.666  0.00  0.00    +0.045 A 
ATOM     31  C   LIG    1       20.561 -19.956   3.627  0.00  0.00    +0.004 A 
ATOM     32  C   LIG    1       20.774 -18.625   3.286  0.00  0.00    +0.000 A 
ATOM     33  C   LIG    1       21.698 -17.863   4.001  0.00  0.00    +0.004 A 
ATOM     34  C   LIG    1       22.416 -18.437   5.055  0.00  0.00    +0.045 A 
ENDBRANCH  28  29
ENDBRANCH  27  28
ENDBRANCH  26  27
ENDBRANCH  25  26
ENDBRANCH   5  25
TORSDOF 11
ENDMDL
MODEL 5
REMARK VINA RESULT:       5.8      2.122      4.861
REMARK  Name = *****
REMARK                            x       y       z     vdW  Elec       q    Type
REMARK                         _______ _______ _______ _____ _____    ______ ____
ROOT
ATOM      1  C   LIG    1       25.188 -17.835   3.131  0.00  0.00    +0.225 C 
ATOM      2  C   LIG    1       26.086 -18.901   2.461  0.00  0.00    +0.045 C 
ATOM      3  C   LIG    1       27.373 -19.081   3.277  0.00  0.00    +0.058 C 
ATOM      4  C   LIG    1       27.037 -19.303   4.748  0.00  0.00    +0.133 C 
ATOM      5  N   LIG    1       25.539 -19.635   4.880  0.00  0.00    +0.246 N 
ATOM      6  C   LIG    1       25.182 -20.768   3.900  0.00  0.00    +0.133 C 
ATOM      7  C   LIG    1       25.346 -20.250   2.467  0.00  0.00    +0.058 C 
ATOM      8  C   LIG    1       24.696 -18.375   4.488  0.00  0.00    +0.179 C 
ENDROOT
BRANCH   1   9
ATOM      9  O   LIG    1       25.974 -16.629   3.335  0.00  0.00    -0.453 OA
BRANCH   9  11
ATOM     10  O   LIG    1       24.222 -15.578   4.330  0.00  0.00    -0.247 OA
ATOM     11  C   LIG    1       25.247 -15.497   3.683  0.00  0.00    +0.350 C 
BRANCH  11  12
ATOM     12  C   LIG    1       25.964 -14.198   3.137  0.00  0.00    +0.226 C 
BRANCH  12  13
ATOM     13  C   LIG    1       27.195 -13.780   3.967  0.00  0.00    +0.037 A 
ATOM     14  S   LIG    1       27.076 -13.681   5.701  0.00  0.00    -0.098 S 
ATOM     15  C   LIG    1       28.670 -13.121   5.886  0.00  0.00    +0.045 A 
ATOM     16  C   LIG    1       29.296 -12.961   4.674  0.00  0.00    +0.008 A 
ATOM     17  C   LIG    1       28.452 -13.332   3.574  0.00  0.00    +0.015 A 
ENDBRANCH  12  13
BRANCH  12  18
ATOM     18  C   LIG    1       24.908 -13.113   2.960  0.00  0.00    +0.037 A 
ATOM     19  S   LIG    1       23.941 -12.586   4.294  0.00  0.00    -0.098 S 
ATOM     20  C   LIG    1       23.108 -11.448   3.337  0.00  0.00    +0.045 A 
ATOM     21  C   LIG    1       23.541 -11.450   2.033  0.00  0.00    +0.008 A 
ATOM     22  C   LIG    1       24.583 -12.397   1.818  0.00  0.00    +0.015 A 
ENDBRANCH  12  18
BRANCH  12  23
ATOM     23  O   LIG    1       26.481 -14.478   1.823  0.00  0.00    -0.369 OA
ATOM     24  H   LIG    1       25.785 -14.959   1.347  0.00  0.00    +0.212 HD
ENDBRANCH  12  23
ENDBRANCH  11  12
ENDBRANCH   9  11
ENDBRANCH   1   9
BRANCH   5  25
ATOM     25  C   LIG    1       25.174 -19.987   6.327  0.00  0.00    +0.136 C 
BRANCH  25  26
ATOM     26  C   LIG    1       24.403 -21.294   6.445  0.00  0.00    +0.092 C 
BRANCH  26  27
ATOM     27  C   LIG    1       22.962 -21.019   6.827  0.00  0.00    +0.234 C 
BRANCH  27  28
ATOM     28  O   LIG    1       22.125 -21.271   5.695  0.00  0.00    -0.492 OA
BRANCH  28  29
ATOM     29  C   LIG    1       21.734 -20.130   5.042  0.00  0.00    +0.120 A 
ATOM     30  C   LIG    1       22.248 -18.863   5.328  0.00  0.00    +0.045 A 
ATOM     31  C   LIG    1       21.788 -17.742   4.645  0.00  0.00    +0.004 A 
ATOM     32  C   LIG    1       20.814 -17.878   3.663  0.00  0.00    +0.000 A 
ATOM     33  C   LIG    1       20.316 -19.142   3.349  0.00  0.00    +0.004 A 
ATOM     34  C   LIG    1       20.787 -20.271   4.025  0.00  0.00    +0.045 A 
ENDBRANCH  28  29
ENDBRANCH  27  28
ENDBRANCH  26  27
ENDBRANCH  25  26
ENDBRANCH   5  25
TORSDOF 11
ENDMDL
MODEL 6
REMARK VINA RESULT:       6.3      1.851      4.541
REMARK  Name = *****
REMARK                            x       y       z     vdW  Elec       q    Type
REMARK                         _______ _______ _______ _____ _____    ______ ____
ROOT
ATOM      1  C   LIG    1       23.654 -17.866   3.695  0.00  0.00    +0.225 C 
ATOM      2  C   LIG    1       22.416 -17.904   4.622  0.00  0.00    +0.045 C 
ATOM      3  C   LIG    1       22.584 -16.881   5.754  0.00  0.00    +0.058 C 
ATOM      4  C   LIG    1       22.960 -15.519   5.180  0.00  0.00    +0.133 C 
ATOM      5  N   LIG    1       22.697 -15.520   3.662  0.00  0.00    +0.246 N 
ATOM      6  C   LIG    1       21.266 -16.022   3.395  0.00  0.00    +0.133 C 
ATOM      7  C   LIG    1       21.175 -17.494   3.812  0.00  0.00    +0.058 C 
ATOM      8  C   LIG    1       23.692 -16.508   2.967  0.00  0.00    +0.179 C 
ENDROOT
BRANCH   1   9
ATOM      9  O   LIG    1       24.848 -18.022   4.510  0.00  0.00    -0.453 OA
BRANCH   9  11
ATOM     10  O   LIG    1       26.487 -18.223   2.950  0.00  0.00    -0.247 OA
ATOM     11  C   LIG    1       25.900 -18.696   3.902  0.00  0.00    +0.350 C 
BRANCH  11  12
ATOM     12  C   LIG    1       26.171 -20.067   4.640  0.00  0.00    +0.226 C 
BRANCH  12  13
ATOM     13  C   LIG    1       24.948 -20.604   5.411  0.00  0.00    +0.037 A 
ATOM     14  S   LIG    1       23.623 -21.320   4.538  0.00  0.00    -0.098 S 
ATOM     15  C   LIG    1       22.694 -21.571   5.940  0.00  0.00    +0.045 A 
ATOM     16  C   LIG    1       23.330 -21.096   7.061  0.00  0.00    +0.008 A 
ATOM     17  C   LIG    1       24.617 -20.536   6.760  0.00  0.00    +0.015 A 
ENDBRANCH  12  13
BRANCH  12  18
ATOM     18  C   LIG    1       27.440 -19.914   5.471  0.00  0.00    +0.037 A 
ATOM     19  S   LIG    1       28.297 -18.413   5.520  0.00  0.00    -0.098 S 
ATOM     20  C   LIG    1       29.470 -19.030   6.591  0.00  0.00    +0.045 A 
ATOM     21  C   LIG    1       29.232 -20.344   6.919  0.00  0.00    +0.008 A 
ATOM     22  C   LIG    1       28.060 -20.849   6.288  0.00  0.00    +0.015 A 
ENDBRANCH  12  18
BRANCH  12  23
ATOM     23  O   LIG    1       26.455 -21.072   3.650  0.00  0.00    -0.369 OA
ATOM     24  H   LIG    1       27.091 -21.686   4.050  0.00  0.00    +0.212 HD
ENDBRANCH  12  23
ENDBRANCH  11  12
ENDBRANCH   9  11
ENDBRANCH   1   9
BRANCH   5  25
ATOM     25  C   LIG    1       22.943 -14.133   3.055  0.00  0.00    +0.136 C 
BRANCH  25  26
ATOM     26  C   LIG    1       23.802 -13.241   3.939  0.00  0.00    +0.092 C 
BRANCH  26  27
ATOM     27  C   LIG    1       24.210 -11.991   3.184  0.00  0.00    +0.234 C 
BRANCH  27  28
ATOM     28  O   LIG    1       25.255 -12.323   2.266  0.00  0.00    -0.492 OA
BRANCH  28  29
ATOM     29  C   LIG    1       26.250 -13.083   2.825  0.00  0.00    +0.120 A 
ATOM     30  C   LIG    1       26.156 -14.466   3.004  0.00  0.00    +0.045 A 
ATOM     31  C   LIG    1       27.192 -15.174   3.603  0.00  0.00    +0.004 A 
ATOM     32  C   LIG    1       28.338 -14.507   4.022  0.00  0.00    +0.000 A 
ATOM     33  C   LIG    1       28.455 -13.132   3.820  0.00  0.00    +0.004 A 
ATOM     34  C   LIG    1       27.420 -12.421   3.206  0.00  0.00    +0.045 A 
ENDBRANCH  28  29
ENDBRANCH  27  28
ENDBRANCH  26  27
ENDBRANCH  25  26
ENDBRANCH   5  25
TORSDOF 11
ENDMDL
