MODEL 1
REMARK VINA RESULT:      -8.0      0.000      0.000
REMARK  Name = *****
REMARK                            x       y       z     vdW  Elec       q    Type
REMARK                         _______ _______ _______ _____ _____    ______ ____
ROOT
ATOM      1  C   LIG    1       23.906 -22.635   7.071  0.00  0.00    +0.042 C 
ATOM      2  C   LIG    1       25.044 -21.869   6.411  0.00  0.00    +0.069 C 
ATOM      3  C   LIG    1       26.071 -21.186   7.370  0.00  0.00    -0.000 C 
ATOM      4  C   LIG    1       25.394 -20.391   8.516  0.00  0.00    +0.014 C 
ATOM      5  C   LIG    1       26.736 -20.116   6.431  0.00  0.00    +0.001 C 
ATOM      6  C   LIG    1       28.185 -20.396   6.042  0.00  0.00    -0.004 C 
ATOM      7  C   LIG    1       28.989 -20.889   7.273  0.00  0.00    -0.001 C 
ATOM      8  C   LIG    1       28.408 -22.288   7.524  0.00  0.00    +0.005 C 
ATOM      9  C   LIG    1       29.579 -19.890   8.423  0.00  0.00    -0.022 C 
ATOM     10  C   LIG    1       30.457 -20.999   9.182  0.00  0.00    +0.012 C 
ATOM     11  C   LIG    1       29.959 -18.702   7.442  0.00  0.00    +0.001 C 
ATOM     12  C   LIG    1       31.457 -18.724   7.283  0.00  0.00    +0.059 C 
ATOM     13  C   LIG    1       31.824 -18.000   8.526  0.00  0.00    +0.040 A 
ATOM     14  C   LIG    1       31.010 -18.035   9.677  0.00  0.00    -0.006 A 
ATOM     15  C   LIG    1       31.522 -16.868  10.367  0.00  0.00    +0.138 A 
ATOM     16  N   LIG    1       32.475 -16.231   9.704  0.00  0.00    -0.182 NA
ATOM     17  N   LIG    1       32.593 -16.904   8.544  0.00  0.00    -0.281 N 
ATOM     18  H   LIG    1       33.085 -16.467   7.762  0.00  0.00    +0.189 HD
ATOM     19  C   LIG    1       29.138 -18.192   6.269  0.00  0.00    +0.005 C 
ATOM     20  C   LIG    1       29.590 -18.897   9.759  0.00  0.00    +0.045 C 
ATOM     21  C   LIG    1       28.857 -19.263   5.289  0.00  0.00    +0.004 C 
ATOM     22  C   LIG    1       25.846 -20.006   5.170  0.00  0.00    +0.007 C 
ATOM     23  C   LIG    1       27.012 -22.204   8.077  0.00  0.00    +0.010 C 
ATOM     24  C   LIG    1       24.553 -20.712   5.535  0.00  0.00    +0.035 C 
ENDROOT
BRANCH   2  25
ATOM     25  O   LIG    1       25.740 -22.795   5.559  0.00  0.00    -0.388 OA
ATOM     26  H   LIG    1       26.616 -22.419   5.360  0.00  0.00    +0.210 HD
ENDBRANCH   2  25
TORSDOF 1
ENDMDL
MODEL 2
REMARK VINA RESULT:      -6.2      9.710     11.966
REMARK  Name = *****
REMARK                            x       y       z     vdW  Elec       q    Type
REMARK                         _______ _______ _______ _____ _____    ______ ____
ROOT
ATOM      1  C   LIG    1       24.707 -33.221   4.693  0.00  0.00    +0.042 C 
ATOM      2  C   LIG    1       24.072 -32.708   5.978  0.00  0.00    +0.069 C 
ATOM      3  C   LIG    1       25.042 -32.080   7.031  0.00  0.00    -0.000 C 
ATOM      4  C   LIG    1       26.303 -32.945   7.284  0.00  0.00    +0.014 C 
ATOM      5  C   LIG    1       24.189 -32.155   8.348  0.00  0.00    +0.001 C 
ATOM      6  C   LIG    1       23.692 -30.816   8.884  0.00  0.00    -0.004 C 
ATOM      7  C   LIG    1       24.816 -29.751   8.800  0.00  0.00    -0.001 C 
ATOM      8  C   LIG    1       24.946 -29.506   7.290  0.00  0.00    +0.005 C 
ATOM      9  C   LIG    1       26.033 -29.637   9.883  0.00  0.00    -0.022 C 
ATOM     10  C   LIG    1       26.618 -28.243   9.342  0.00  0.00    +0.012 C 
ATOM     11  C   LIG    1       25.168 -30.020  11.157  0.00  0.00    +0.001 C 
ATOM     12  C   LIG    1       24.925 -28.746  11.924  0.00  0.00    +0.059 C 
ATOM     13  C   LIG    1       26.217 -28.673  12.651  0.00  0.00    +0.040 A 
ATOM     14  C   LIG    1       27.401 -29.231  12.126  0.00  0.00    -0.006 A 
ATOM     15  C   LIG    1       28.184 -29.318  13.342  0.00  0.00    +0.138 A 
ATOM     16  N   LIG    1       27.542 -28.897  14.421  0.00  0.00    -0.182 NA
ATOM     17  N   LIG    1       26.312 -28.574  13.983  0.00  0.00    -0.281 N 
ATOM     18  H   LIG    1       25.556 -28.457  14.661  0.00  0.00    +0.189 HD
ATOM     19  C   LIG    1       24.105 -31.102  11.243  0.00  0.00    +0.005 C 
ATOM     20  C   LIG    1       27.467 -29.996  10.650  0.00  0.00    +0.045 C 
ATOM     21  C   LIG    1       23.031 -30.897  10.247  0.00  0.00    +0.004 C 
ATOM     22  C   LIG    1       22.998 -33.102   8.063  0.00  0.00    +0.007 C 
ATOM     23  C   LIG    1       25.580 -30.685   6.603  0.00  0.00    +0.010 C 
ATOM     24  C   LIG    1       23.355 -33.808   6.768  0.00  0.00    +0.035 C 
ENDROOT
BRANCH   2  25
ATOM     25  O   LIG    1       23.087 -31.729   5.604  0.00  0.00    -0.388 OA
ATOM     26  H   LIG    1       23.459 -30.847   5.779  0.00  0.00    +0.210 HD
ENDBRANCH   2  25
TORSDOF 1
ENDMDL
MODEL 3
REMARK VINA RESULT:      -5.9      9.403     11.246
REMARK  Name = *****
REMARK                            x       y       z     vdW  Elec       q    Type
REMARK                         _______ _______ _______ _____ _____    ______ ____
ROOT
ATOM      1  C   LIG    1       22.174 -33.711   9.017  0.00  0.00    +0.042 C 
ATOM      2  C   LIG    1       23.456 -32.890   9.011  0.00  0.00    +0.069 C 
ATOM      3  C   LIG    1       23.520 -31.693  10.013  0.00  0.00    -0.000 C 
ATOM      4  C   LIG    1       22.242 -30.815   9.991  0.00  0.00    +0.014 C 
ATOM      5  C   LIG    1       24.665 -30.811   9.397  0.00  0.00    +0.001 C 
ATOM      6  C   LIG    1       25.966 -30.776  10.194  0.00  0.00    -0.004 C 
ATOM      7  C   LIG    1       25.667 -30.633  11.709  0.00  0.00    -0.001 C 
ATOM      8  C   LIG    1       25.061 -31.997  12.070  0.00  0.00    +0.005 C 
ATOM      9  C   LIG    1       25.290 -29.214  12.424  0.00  0.00    -0.022 C 
ATOM     10  C   LIG    1       25.368 -29.753  13.934  0.00  0.00    +0.012 C 
ATOM     11  C   LIG    1       26.263 -28.316  11.549  0.00  0.00    +0.001 C 
ATOM     12  C   LIG    1       27.440 -27.964  12.421  0.00  0.00    +0.059 C 
ATOM     13  C   LIG    1       26.836 -26.829  13.164  0.00  0.00    +0.040 A 
ATOM     14  C   LIG    1       25.448 -26.746  13.397  0.00  0.00    -0.006 A 
ATOM     15  C   LIG    1       25.340 -25.331  13.695  0.00  0.00    +0.138 A 
ATOM     16  N   LIG    1       26.492 -24.682  13.620  0.00  0.00    -0.182 NA
ATOM     17  N   LIG    1       27.382 -25.608  13.223  0.00  0.00    -0.281 N 
ATOM     18  H   LIG    1       28.288 -25.306  12.856  0.00  0.00    +0.189 HD
ATOM     19  C   LIG    1       26.510 -28.431  10.054  0.00  0.00    +0.005 C 
ATOM     20  C   LIG    1       24.370 -27.906  12.887  0.00  0.00    +0.045 C 
ATOM     21  C   LIG    1       26.986 -29.780   9.678  0.00  0.00    +0.004 C 
ATOM     22  C   LIG    1       24.920 -31.337   7.964  0.00  0.00    +0.007 C 
ATOM     23  C   LIG    1       23.680 -32.147  11.492  0.00  0.00    +0.010 C 
ATOM     24  C   LIG    1       23.735 -32.234   7.655  0.00  0.00    +0.035 C 
ENDROOT
BRANCH   2  25
ATOM     25  O   LIG    1       24.539 -33.794   9.288  0.00  0.00    -0.388 OA
ATOM     26  H   LIG    1       24.753 -33.724  10.235  0.00  0.00    +0.210 HD
ENDBRANCH   2  25
TORSDOF 1
ENDMDL
MODEL 4
REMARK VINA RESULT:      -5.9     10.224     12.712
REMARK  Name = *****
REMARK                            x       y       z     vdW  Elec       q    Type
REMARK                         _______ _______ _______ _____ _____    ______ ____
ROOT
ATOM      1  C   LIG    1       27.085 -31.096   9.895  0.00  0.00    +0.042 C 
ATOM      2  C   LIG    1       26.754 -29.960  10.853  0.00  0.00    +0.069 C 
ATOM      3  C   LIG    1       25.258 -29.828  11.285  0.00  0.00    -0.000 C 
ATOM      4  C   LIG    1       24.273 -29.917  10.092  0.00  0.00    +0.014 C 
ATOM      5  C   LIG    1       25.194 -28.343  11.794  0.00  0.00    +0.001 C 
ATOM      6  C   LIG    1       25.028 -28.174  13.302  0.00  0.00    -0.004 C 
ATOM      7  C   LIG    1       23.980 -29.179  13.845  0.00  0.00    -0.001 C 
ATOM      8  C   LIG    1       24.698 -30.530  13.713  0.00  0.00    +0.005 C 
ATOM      9  C   LIG    1       22.367 -28.952  13.727  0.00  0.00    -0.022 C 
ATOM     10  C   LIG    1       21.948 -30.181  14.672  0.00  0.00    +0.012 C 
ATOM     11  C   LIG    1       22.396 -27.381  13.951  0.00  0.00    +0.001 C 
ATOM     12  C   LIG    1       21.907 -27.128  15.354  0.00  0.00    +0.059 C 
ATOM     13  C   LIG    1       20.447 -27.204  15.099  0.00  0.00    +0.040 A 
ATOM     14  C   LIG    1       19.912 -27.987  14.055  0.00  0.00    -0.006 A 
ATOM     15  C   LIG    1       18.606 -27.370  13.938  0.00  0.00    +0.138 A 
ATOM     16  N   LIG    1       18.417 -26.359  14.773  0.00  0.00    -0.182 NA
ATOM     17  N   LIG    1       19.587 -26.231  15.425  0.00  0.00    -0.281 N 
ATOM     18  H   LIG    1       19.777 -25.370  15.943  0.00  0.00    +0.189 HD
ATOM     19  C   LIG    1       23.398 -26.397  13.371  0.00  0.00    +0.005 C 
ATOM     20  C   LIG    1       20.852 -28.906  13.035  0.00  0.00    +0.045 C 
ATOM     21  C   LIG    1       24.786 -26.743  13.744  0.00  0.00    +0.004 C 
ATOM     22  C   LIG    1       26.485 -27.642  11.308  0.00  0.00    +0.007 C 
ATOM     23  C   LIG    1       24.811 -30.945  12.271  0.00  0.00    +0.010 C 
ATOM     24  C   LIG    1       27.079 -28.580  10.272  0.00  0.00    +0.035 C 
ENDROOT
BRANCH   2  25
ATOM     25  O   LIG    1       27.568 -30.143  12.024  0.00  0.00    -0.388 OA
ATOM     26  H   LIG    1       27.489 -31.072  12.302  0.00  0.00    +0.210 HD
ENDBRANCH   2  25
TORSDOF 1
ENDMDL
MODEL 5
REMARK VINA RESULT:      -5.9      9.447     11.693
REMARK  Name = *****
REMARK                            x       y       z     vdW  Elec       q    Type
REMARK                         _______ _______ _______ _____ _____    ______ ____
ROOT
ATOM      1  C   LIG    1       19.464 -31.738  13.673  0.00  0.00    +0.042 C 
ATOM      2  C   LIG    1       19.995 -30.321  13.511  0.00  0.00    +0.069 C 
ATOM      3  C   LIG    1       21.517 -30.111  13.801  0.00  0.00    -0.000 C 
ATOM      4  C   LIG    1       21.981 -30.783  15.118  0.00  0.00    +0.014 C 
ATOM      5  C   LIG    1       21.592 -28.562  14.051  0.00  0.00    +0.001 C 
ATOM      6  C   LIG    1       22.295 -27.756  12.962  0.00  0.00    -0.004 C 
ATOM      7  C   LIG    1       23.582 -28.486  12.497  0.00  0.00    -0.001 C 
ATOM      8  C   LIG    1       23.032 -29.705  11.742  0.00  0.00    +0.005 C 
ATOM      9  C   LIG    1       24.991 -28.443  13.321  0.00  0.00    -0.022 C 
ATOM     10  C   LIG    1       25.879 -29.152  12.187  0.00  0.00    +0.012 C 
ATOM     11  C   LIG    1       24.863 -26.936  13.803  0.00  0.00    +0.001 C 
ATOM     12  C   LIG    1       25.813 -26.122  12.961  0.00  0.00    +0.059 C 
ATOM     13  C   LIG    1       27.066 -26.400  13.707  0.00  0.00    +0.040 A 
ATOM     14  C   LIG    1       27.255 -27.597  14.428  0.00  0.00    -0.006 A 
ATOM     15  C   LIG    1       28.337 -27.183  15.299  0.00  0.00    +0.138 A 
ATOM     16  N   LIG    1       28.706 -25.923  15.128  0.00  0.00    -0.182 NA
ATOM     17  N   LIG    1       27.864 -25.442  14.196  0.00  0.00    -0.281 N 
ATOM     18  H   LIG    1       27.783 -24.431  14.070  0.00  0.00    +0.189 HD
ATOM     19  C   LIG    1       23.608 -26.245  14.307  0.00  0.00    +0.005 C 
ATOM     20  C   LIG    1       26.115 -28.806  14.495  0.00  0.00    +0.045 C 
ATOM     21  C   LIG    1       22.515 -26.297  13.311  0.00  0.00    +0.004 C 
ATOM     22  C   LIG    1       20.140 -28.064  14.243  0.00  0.00    +0.007 C 
ATOM     23  C   LIG    1       22.432 -30.705  12.692  0.00  0.00    +0.010 C 
ATOM     24  C   LIG    1       19.314 -29.320  14.450  0.00  0.00    +0.035 C 
ENDROOT
BRANCH   2  25
ATOM     25  O   LIG    1       19.713 -29.914  12.161  0.00  0.00    -0.388 OA
ATOM     26  H   LIG    1       18.799 -29.579  12.134  0.00  0.00    +0.210 HD
ENDBRANCH   2  25
TORSDOF 1
ENDMDL
MODEL 6
REMARK VINA RESULT:      -5.5     10.678     13.926
REMARK  Name = *****
REMARK                            x       y       z     vdW  Elec       q    Type
REMARK                         _______ _______ _______ _____ _____    ______ ____
ROOT
ATOM      1  C   LIG    1       27.554 -26.983  13.890  0.00  0.00    +0.042 C 
ATOM      2  C   LIG    1       26.054 -26.799  14.080  0.00  0.00    +0.069 C 
ATOM      3  C   LIG    1       25.133 -27.880  13.427  0.00  0.00    -0.000 C 
ATOM      4  C   LIG    1       25.522 -28.202  11.961  0.00  0.00    +0.014 C 
ATOM      5  C   LIG    1       23.751 -27.136  13.359  0.00  0.00    +0.001 C 
ATOM      6  C   LIG    1       22.680 -27.655  14.314  0.00  0.00    -0.004 C 
ATOM      7  C   LIG    1       22.676 -29.206  14.329  0.00  0.00    -0.001 C 
ATOM      8  C   LIG    1       23.991 -29.546  15.045  0.00  0.00    +0.005 C 
ATOM      9  C   LIG    1       21.967 -30.116  13.174  0.00  0.00    -0.022 C 
ATOM     10  C   LIG    1       22.126 -31.520  13.936  0.00  0.00    +0.012 C 
ATOM     11  C   LIG    1       20.727 -29.155  12.933  0.00  0.00    +0.001 C 
ATOM     12  C   LIG    1       19.534 -29.803  13.587  0.00  0.00    +0.059 C 
ATOM     13  C   LIG    1       19.180 -30.760  12.509  0.00  0.00    +0.040 A 
ATOM     14  C   LIG    1       20.147 -31.274  11.621  0.00  0.00    -0.006 A 
ATOM     15  C   LIG    1       19.276 -31.724  10.553  0.00  0.00    +0.138 A 
ATOM     16  N   LIG    1       17.993 -31.483  10.774  0.00  0.00    -0.182 NA
ATOM     17  N   LIG    1       17.966 -30.826  11.948  0.00  0.00    -0.281 N 
ATOM     18  H   LIG    1       17.120 -30.316  12.215  0.00  0.00    +0.189 HD
ATOM     19  C   LIG    1       20.751 -27.638  12.868  0.00  0.00    +0.005 C 
ATOM     20  C   LIG    1       21.761 -30.881  11.709  0.00  0.00    +0.045 C 
ATOM     21  C   LIG    1       21.308 -27.044  14.102  0.00  0.00    +0.004 C 
ATOM     22  C   LIG    1       24.032 -25.637  13.620  0.00  0.00    +0.007 C 
ATOM     23  C   LIG    1       25.178 -29.245  14.171  0.00  0.00    +0.010 C 
ATOM     24  C   LIG    1       25.536 -25.486  13.485  0.00  0.00    +0.035 C 
ENDROOT
BRANCH   2  25
ATOM     25  O   LIG    1       25.807 -26.764  15.496  0.00  0.00    -0.388 OA
ATOM     26  H   LIG    1       26.663 -26.661  15.947  0.00  0.00    +0.210 HD
ENDBRANCH   2  25
TORSDOF 1
ENDMDL
MODEL 7
REMARK VINA RESULT:      -5.4     10.398     12.431
REMARK  Name = *****
REMARK                            x       y       z     vdW  Elec       q    Type
REMARK                         _______ _______ _______ _____ _____    ______ ____
ROOT
ATOM      1  C   LIG    1       19.133 -32.694  11.329  0.00  0.00    +0.042 C 
ATOM      2  C   LIG    1       19.773 -31.366  11.710  0.00  0.00    +0.069 C 
ATOM      3  C   LIG    1       21.305 -31.395  12.015  0.00  0.00    -0.000 C 
ATOM      4  C   LIG    1       21.714 -32.555  12.959  0.00  0.00    +0.014 C 
ATOM      5  C   LIG    1       21.501 -30.072  12.840  0.00  0.00    +0.001 C 
ATOM      6  C   LIG    1       22.266 -28.961  12.125  0.00  0.00    -0.004 C 
ATOM      7  C   LIG    1       23.493 -29.546  11.379  0.00  0.00    -0.001 C 
ATOM      8  C   LIG    1       22.852 -30.337  10.229  0.00  0.00    +0.005 C 
ATOM      9  C   LIG    1       24.900 -29.926  12.116  0.00  0.00    -0.022 C 
ATOM     10  C   LIG    1       25.731 -30.206  10.771  0.00  0.00    +0.012 C 
ATOM     11  C   LIG    1       24.889 -28.717  13.144  0.00  0.00    +0.001 C 
ATOM     12  C   LIG    1       25.900 -27.713  12.654  0.00  0.00    +0.059 C 
ATOM     13  C   LIG    1       27.126 -28.347  13.199  0.00  0.00    +0.040 A 
ATOM     14  C   LIG    1       27.220 -29.740  13.399  0.00  0.00    -0.006 A 
ATOM     15  C   LIG    1       28.330 -29.773  14.331  0.00  0.00    +0.138 A 
ATOM     16  N   LIG    1       28.796 -28.575  14.648  0.00  0.00    -0.182 NA
ATOM     17  N   LIG    1       27.995 -27.713  13.997  0.00  0.00    -0.281 N 
ATOM     18  H   LIG    1       27.994 -26.728  14.272  0.00  0.00    +0.189 HD
ATOM     19  C   LIG    1       23.690 -28.185  13.911  0.00  0.00    +0.005 C 
ATOM     20  C   LIG    1       25.989 -30.795  13.027  0.00  0.00    +0.045 C 
ATOM     21  C   LIG    1       22.598 -27.770  13.003  0.00  0.00    +0.004 C 
ATOM     22  C   LIG    1       20.091 -29.583  13.250  0.00  0.00    +0.007 C 
ATOM     23  C   LIG    1       22.174 -31.580  10.738  0.00  0.00    +0.010 C 
ATOM     24  C   LIG    1       19.170 -30.759  12.981  0.00  0.00    +0.035 C 
ENDROOT
BRANCH   2  25
ATOM     25  O   LIG    1       19.525 -30.450  10.630  0.00  0.00    -0.388 OA
ATOM     26  H   LIG    1       20.324 -30.417  10.075  0.00  0.00    +0.210 HD
ENDBRANCH   2  25
TORSDOF 1
ENDMDL
MODEL 8
REMARK VINA RESULT:      -5.4      9.701     12.165
REMARK  Name = *****
REMARK                            x       y       z     vdW  Elec       q    Type
REMARK                         _______ _______ _______ _____ _____    ______ ____
ROOT
ATOM      1  C   LIG    1       27.607 -25.966  15.166  0.00  0.00    +0.042 C 
ATOM      2  C   LIG    1       26.591 -27.019  14.747  0.00  0.00    +0.069 C 
ATOM      3  C   LIG    1       26.545 -27.374  13.226  0.00  0.00    -0.000 C 
ATOM      4  C   LIG    1       26.529 -26.122  12.312  0.00  0.00    +0.014 C 
ATOM      5  C   LIG    1       25.125 -28.034  13.086  0.00  0.00    +0.001 C 
ATOM      6  C   LIG    1       25.124 -29.538  12.831  0.00  0.00    -0.004 C 
ATOM      7  C   LIG    1       26.209 -29.909  11.786  0.00  0.00    -0.001 C 
ATOM      8  C   LIG    1       27.519 -29.676  12.554  0.00  0.00    +0.005 C 
ATOM      9  C   LIG    1       26.013 -29.720  10.176  0.00  0.00    -0.022 C 
ATOM     10  C   LIG    1       27.346 -30.503   9.745  0.00  0.00    +0.012 C 
ATOM     11  C   LIG    1       24.475 -30.112  10.143  0.00  0.00    +0.001 C 
ATOM     12  C   LIG    1       24.387 -31.503   9.569  0.00  0.00    +0.059 C 
ATOM     13  C   LIG    1       24.473 -31.155   8.128  0.00  0.00    +0.040 A 
ATOM     14  C   LIG    1       25.151 -30.004   7.678  0.00  0.00    -0.006 A 
ATOM     15  C   LIG    1       24.559 -29.877   6.361  0.00  0.00    +0.138 A 
ATOM     16  N   LIG    1       23.650 -30.802   6.094  0.00  0.00    -0.182 NA
ATOM     17  N   LIG    1       23.563 -31.532   7.221  0.00  0.00    -0.281 N 
ATOM     18  H   LIG    1       22.759 -32.149   7.354  0.00  0.00    +0.189 HD
ATOM     19  C   LIG    1       23.409 -29.700  11.143  0.00  0.00    +0.005 C 
ATOM     20  C   LIG    1       25.930 -28.950   8.702  0.00  0.00    +0.045 C 
ATOM     21  C   LIG    1       23.757 -30.116  12.519  0.00  0.00    +0.004 C 
ATOM     22  C   LIG    1       24.343 -27.702  14.379  0.00  0.00    +0.007 C 
ATOM     23  C   LIG    1       27.773 -28.208  12.760  0.00  0.00    +0.010 C 
ATOM     24  C   LIG    1       25.148 -26.609  15.060  0.00  0.00    +0.035 C 
ENDROOT
BRANCH   2  25
ATOM     25  O   LIG    1       26.878 -28.210  15.500  0.00  0.00    -0.388 OA
ATOM     26  H   LIG    1       27.845 -28.295  15.570  0.00  0.00    +0.210 HD
ENDBRANCH   2  25
TORSDOF 1
ENDMDL
MODEL 9
REMARK VINA RESULT:      -5.3     10.995     14.215
REMARK  Name = *****
REMARK                            x       y       z     vdW  Elec       q    Type
REMARK                         _______ _______ _______ _____ _____    ______ ____
ROOT
ATOM      1  C   LIG    1       28.220 -29.293  11.736  0.00  0.00    +0.042 C 
ATOM      2  C   LIG    1       26.897 -28.953  12.407  0.00  0.00    +0.069 C 
ATOM      3  C   LIG    1       25.621 -29.636  11.816  0.00  0.00    -0.000 C 
ATOM      4  C   LIG    1       25.552 -29.556  10.270  0.00  0.00    +0.014 C 
ATOM      5  C   LIG    1       24.473 -28.708  12.354  0.00  0.00    +0.001 C 
ATOM      6  C   LIG    1       23.582 -29.324  13.429  0.00  0.00    -0.004 C 
ATOM      7  C   LIG    1       23.227 -30.788  13.061  0.00  0.00    -0.001 C 
ATOM      8  C   LIG    1       24.564 -31.521  13.241  0.00  0.00    +0.005 C 
ATOM      9  C   LIG    1       22.066 -31.192  11.986  0.00  0.00    -0.022 C 
ATOM     10  C   LIG    1       22.083 -32.767  12.294  0.00  0.00    +0.012 C 
ATOM     11  C   LIG    1       21.058 -30.029  12.374  0.00  0.00    +0.001 C 
ATOM     12  C   LIG    1       19.948 -30.658  13.177  0.00  0.00    +0.059 C 
ATOM     13  C   LIG    1       19.130 -31.181  12.054  0.00  0.00    +0.040 A 
ATOM     14  C   LIG    1       19.704 -31.543  10.818  0.00  0.00    -0.006 A 
ATOM     15  C   LIG    1       18.518 -31.514   9.986  0.00  0.00    +0.138 A 
ATOM     16  N   LIG    1       17.419 -31.162  10.636  0.00  0.00    -0.182 NA
ATOM     17  N   LIG    1       17.833 -30.893  11.887  0.00  0.00    -0.281 N 
ATOM     18  H   LIG    1       17.220 -30.366  12.513  0.00  0.00    +0.189 HD
ATOM     19  C   LIG    1       21.412 -28.583  12.682  0.00  0.00    +0.005 C 
ATOM     20  C   LIG    1       21.336 -31.440  10.510  0.00  0.00    +0.045 C 
ATOM     21  C   LIG    1       22.377 -28.479  13.797  0.00  0.00    +0.004 C 
ATOM     22  C   LIG    1       25.145 -27.417  12.880  0.00  0.00    +0.007 C 
ATOM     23  C   LIG    1       25.535 -31.153  12.152  0.00  0.00    +0.010 C 
ATOM     24  C   LIG    1       26.563 -27.459  12.339  0.00  0.00    +0.035 C 
ENDROOT
BRANCH   2  25
ATOM     25  O   LIG    1       27.022 -29.309  13.795  0.00  0.00    -0.388 OA
ATOM     26  H   LIG    1       26.349 -28.814  14.293  0.00  0.00    +0.210 HD
ENDBRANCH   2  25
TORSDOF 1
ENDMDL
