MODEL 1
REMARK VINA RESULT:      -3.2      0.000      0.000
REMARK  Name = *****
REMARK                            x       y       z     vdW  Elec       q    Type
REMARK                         _______ _______ _______ _____ _____    ______ ____
ROOT
ATOM      1  C   LIG    1       25.674 -19.978   5.010  0.00  0.00    +0.128 A 
ATOM      2  N   LIG    1       26.167 -18.788   4.373  0.00  0.00    -0.182 N 
ATOM      3  C   LIG    1       27.491 -18.340   4.574  0.00  0.00    +0.255 A 
ATOM      4  N   LIG    1       27.692 -17.232   3.892  0.00  0.00    -0.197 NA
ATOM      5  C   LIG    1       26.500 -17.012   3.286  0.00  0.00    +0.247 A 
ATOM      6  N   LIG    1       28.377 -19.000   5.364  0.00  0.00    -0.216 NA
ATOM      7  C   LIG    1       27.936 -20.072   5.949  0.00  0.00    +0.045 A 
ATOM      8  C   LIG    1       28.898 -20.840   6.823  0.00  0.00    +0.066 C 
ATOM      9  N   LIG    1       25.550 -17.909   3.529  0.00  0.00    -0.151 NA
ATOM     10  C   LIG    1       26.552 -20.614   5.815  0.00  0.00    +0.067 A 
ENDROOT
BRANCH   1  11
ATOM     11  N   LIG    1       24.338 -20.452   4.805  0.00  0.00    -0.316 N 
BRANCH  11  13
ATOM     12  C   LIG    1       23.462 -21.074   7.044  0.00  0.00    +0.024 C 
ATOM     13  C   LIG    1       23.716 -21.525   5.611  0.00  0.00    +0.103 C 
ENDBRANCH  11  13
BRANCH  11  14
ATOM     14  C   LIG    1       23.434 -19.896   3.775  0.00  0.00    +0.103 C 
ATOM     15  C   LIG    1       22.343 -19.040   4.404  0.00  0.00    +0.024 C 
ENDBRANCH  11  14
ENDBRANCH   1  11
TORSDOF 3
ENDMDL
MODEL 2
REMARK VINA RESULT:      -3.0      1.422      3.400
REMARK  Name = *****
REMARK                            x       y       z     vdW  Elec       q    Type
REMARK                         _______ _______ _______ _____ _____    ______ ____
ROOT
ATOM      1  C   LIG    1       26.156 -20.094   5.205  0.00  0.00    +0.128 A 
ATOM      2  N   LIG    1       27.373 -20.387   5.911  0.00  0.00    -0.182 N 
ATOM      3  C   LIG    1       28.489 -19.524   5.842  0.00  0.00    +0.255 A 
ATOM      4  N   LIG    1       29.475 -20.016   6.564  0.00  0.00    -0.197 NA
ATOM      5  C   LIG    1       28.959 -21.166   7.062  0.00  0.00    +0.247 A 
ATOM      6  N   LIG    1       28.483 -18.371   5.124  0.00  0.00    -0.216 NA
ATOM      7  C   LIG    1       27.389 -18.105   4.478  0.00  0.00    +0.045 A 
ATOM      8  C   LIG    1       27.340 -16.825   3.680  0.00  0.00    +0.066 C 
ATOM      9  N   LIG    1       27.707 -21.441   6.713  0.00  0.00    -0.151 NA
ATOM     10  C   LIG    1       26.166 -18.961   4.471  0.00  0.00    +0.067 A 
ENDROOT
BRANCH   1  11
ATOM     11  N   LIG    1       25.012 -20.953   5.276  0.00  0.00    -0.316 N 
BRANCH  11  13
ATOM     12  C   LIG    1       23.509 -20.142   3.474  0.00  0.00    +0.024 C 
ATOM     13  C   LIG    1       24.206 -21.344   4.099  0.00  0.00    +0.103 C 
ENDBRANCH  11  13
BRANCH  11  14
ATOM     14  C   LIG    1       24.534 -21.557   6.539  0.00  0.00    +0.103 C 
ATOM     15  C   LIG    1       23.296 -20.839   7.059  0.00  0.00    +0.024 C 
ENDBRANCH  11  14
ENDBRANCH   1  11
TORSDOF 3
ENDMDL
MODEL 3
REMARK VINA RESULT:      -2.7      4.541      6.880
REMARK  Name = *****
REMARK                            x       y       z     vdW  Elec       q    Type
REMARK                         _______ _______ _______ _____ _____    ______ ____
ROOT
ATOM      1  C   LIG    1       25.358 -13.433   3.965  0.00  0.00    +0.128 A 
ATOM      2  N   LIG    1       26.788 -13.304   3.904  0.00  0.00    -0.182 N 
ATOM      3  C   LIG    1       27.618 -14.422   3.671  0.00  0.00    +0.255 A 
ATOM      4  N   LIG    1       28.881 -14.045   3.670  0.00  0.00    -0.197 NA
ATOM      5  C   LIG    1       28.813 -12.712   3.903  0.00  0.00    +0.247 A 
ATOM      6  N   LIG    1       27.127 -15.674   3.481  0.00  0.00    -0.216 NA
ATOM      7  C   LIG    1       25.837 -15.798   3.543  0.00  0.00    +0.045 A 
ATOM      8  C   LIG    1       25.254 -17.173   3.322  0.00  0.00    +0.066 C 
ATOM      9  N   LIG    1       27.591 -12.208   4.045  0.00  0.00    -0.151 NA
ATOM     10  C   LIG    1       24.878 -14.684   3.802  0.00  0.00    +0.067 A 
ENDROOT
BRANCH   1  11
ATOM     11  N   LIG    1       24.503 -12.305   4.187  0.00  0.00    -0.316 N 
BRANCH  11  13
ATOM     12  C   LIG    1       24.470 -11.515   1.833  0.00  0.00    +0.024 C 
ATOM     13  C   LIG    1       23.683 -11.676   3.129  0.00  0.00    +0.103 C 
ENDBRANCH  11  13
BRANCH  11  14
ATOM     14  C   LIG    1       24.336 -11.668   5.512  0.00  0.00    +0.103 C 
ATOM     15  C   LIG    1       22.864 -11.467   5.845  0.00  0.00    +0.024 C 
ENDBRANCH  11  14
ENDBRANCH   1  11
TORSDOF 3
ENDMDL
MODEL 4
REMARK VINA RESULT:      -2.3      1.972      5.113
REMARK  Name = *****
REMARK                            x       y       z     vdW  Elec       q    Type
REMARK                         _______ _______ _______ _____ _____    ______ ____
ROOT
ATOM      1  C   LIG    1       26.617 -16.968   3.802  0.00  0.00    +0.128 A 
ATOM      2  N   LIG    1       27.575 -17.789   4.489  0.00  0.00    -0.182 N 
ATOM      3  C   LIG    1       27.327 -19.157   4.740  0.00  0.00    +0.255 A 
ATOM      4  N   LIG    1       28.348 -19.681   5.387  0.00  0.00    -0.197 NA
ATOM      5  C   LIG    1       29.203 -18.639   5.527  0.00  0.00    +0.247 A 
ATOM      6  N   LIG    1       26.187 -19.780   4.344  0.00  0.00    -0.216 NA
ATOM      7  C   LIG    1       25.314 -19.042   3.730  0.00  0.00    +0.045 A 
ATOM      8  C   LIG    1       24.040 -19.705   3.263  0.00  0.00    +0.066 C 
ATOM      9  N   LIG    1       28.802 -17.484   5.007  0.00  0.00    -0.151 NA
ATOM     10  C   LIG    1       25.474 -17.588   3.436  0.00  0.00    +0.067 A 
ENDROOT
BRANCH   1  11
ATOM     11  N   LIG    1       26.860 -15.584   3.529  0.00  0.00    -0.316 N 
BRANCH  11  13
ATOM     12  C   LIG    1       24.889 -14.077   3.440  0.00  0.00    +0.024 C 
ATOM     13  C   LIG    1       26.002 -14.757   2.653  0.00  0.00    +0.103 C 
ENDBRANCH  11  13
BRANCH  11  14
ATOM     14  C   LIG    1       27.990 -14.831   4.119  0.00  0.00    +0.103 C 
ATOM     15  C   LIG    1       28.151 -13.470   3.456  0.00  0.00    +0.024 C 
ENDBRANCH  11  14
ENDBRANCH   1  11
TORSDOF 3
ENDMDL
MODEL 5
REMARK VINA RESULT:      -2.3      3.856      6.084
REMARK  Name = *****
REMARK                            x       y       z     vdW  Elec       q    Type
REMARK                         _______ _______ _______ _____ _____    ______ ____
ROOT
ATOM      1  C   LIG    1       25.564 -13.781   3.642  0.00  0.00    +0.128 A 
ATOM      2  N   LIG    1       25.971 -15.155   3.536  0.00  0.00    -0.182 N 
ATOM      3  C   LIG    1       27.316 -15.541   3.726  0.00  0.00    +0.255 A 
ATOM      4  N   LIG    1       27.430 -16.844   3.569  0.00  0.00    -0.197 NA
ATOM      5  C   LIG    1       26.165 -17.240   3.286  0.00  0.00    +0.247 A 
ATOM      6  N   LIG    1       28.299 -14.653   4.026  0.00  0.00    -0.216 NA
ATOM      7  C   LIG    1       27.939 -13.409   4.114  0.00  0.00    +0.045 A 
ATOM      8  C   LIG    1       29.003 -12.395   4.460  0.00  0.00    +0.066 C 
ATOM      9  N   LIG    1       25.247 -16.280   3.257  0.00  0.00    -0.151 NA
ATOM     10  C   LIG    1       26.551 -12.900   3.913  0.00  0.00    +0.067 A 
ENDROOT
BRANCH   1  11
ATOM     11  N   LIG    1       24.202 -13.377   3.466  0.00  0.00    -0.316 N 
BRANCH  11  13
ATOM     12  C   LIG    1       22.967 -14.959   4.927  0.00  0.00    +0.024 C 
ATOM     13  C   LIG    1       23.053 -14.304   3.554  0.00  0.00    +0.103 C 
ENDBRANCH  11  13
BRANCH  11  14
ATOM     14  C   LIG    1       23.803 -11.977   3.198  0.00  0.00    +0.103 C 
ATOM     15  C   LIG    1       24.250 -11.532   1.812  0.00  0.00    +0.024 C 
ENDBRANCH  11  14
ENDBRANCH   1  11
TORSDOF 3
ENDMDL
MODEL 6
REMARK VINA RESULT:      -2.3      3.859      6.273
REMARK  Name = *****
REMARK                            x       y       z     vdW  Elec       q    Type
REMARK                         _______ _______ _______ _____ _____    ______ ____
ROOT
ATOM      1  C   LIG    1       25.553 -13.783   3.668  0.00  0.00    +0.128 A 
ATOM      2  N   LIG    1       25.957 -15.156   3.549  0.00  0.00    -0.182 N 
ATOM      3  C   LIG    1       27.306 -15.543   3.709  0.00  0.00    +0.255 A 
ATOM      4  N   LIG    1       27.416 -16.845   3.545  0.00  0.00    -0.197 NA
ATOM      5  C   LIG    1       26.146 -17.240   3.286  0.00  0.00    +0.247 A 
ATOM      6  N   LIG    1       28.295 -14.656   3.992  0.00  0.00    -0.216 NA
ATOM      7  C   LIG    1       27.937 -13.412   4.093  0.00  0.00    +0.045 A 
ATOM      8  C   LIG    1       29.007 -12.399   4.420  0.00  0.00    +0.066 C 
ATOM      9  N   LIG    1       25.228 -16.280   3.281  0.00  0.00    -0.151 NA
ATOM     10  C   LIG    1       26.545 -12.903   3.923  0.00  0.00    +0.067 A 
ENDROOT
BRANCH   1  11
ATOM     11  N   LIG    1       24.186 -13.378   3.522  0.00  0.00    -0.316 N 
BRANCH  11  13
ATOM     12  C   LIG    1       24.200 -11.508   1.889  0.00  0.00    +0.024 C 
ATOM     13  C   LIG    1       23.767 -11.982   3.271  0.00  0.00    +0.103 C 
ENDBRANCH  11  13
BRANCH  11  14
ATOM     14  C   LIG    1       23.053 -14.326   3.586  0.00  0.00    +0.103 C 
ATOM     15  C   LIG    1       22.933 -14.950   4.971  0.00  0.00    +0.024 C 
ENDBRANCH  11  14
ENDBRANCH   1  11
TORSDOF 3
ENDMDL
MODEL 7
REMARK VINA RESULT:      -2.3      3.108      5.777
REMARK  Name = *****
REMARK                            x       y       z     vdW  Elec       q    Type
REMARK                         _______ _______ _______ _____ _____    ______ ____
ROOT
ATOM      1  C   LIG    1       25.638 -16.067   3.515  0.00  0.00    +0.128 A 
ATOM      2  N   LIG    1       24.316 -15.895   4.051  0.00  0.00    -0.182 N 
ATOM      3  C   LIG    1       23.457 -16.997   4.257  0.00  0.00    +0.255 A 
ATOM      4  N   LIG    1       22.307 -16.577   4.744  0.00  0.00    -0.197 NA
ATOM      5  C   LIG    1       22.471 -15.235   4.830  0.00  0.00    +0.247 A 
ATOM      6  N   LIG    1       23.822 -18.275   3.977  0.00  0.00    -0.216 NA
ATOM      7  C   LIG    1       25.012 -18.435   3.485  0.00  0.00    +0.045 A 
ATOM      8  C   LIG    1       25.458 -19.844   3.175  0.00  0.00    +0.066 C 
ATOM      9  N   LIG    1       23.650 -14.766   4.436  0.00  0.00    -0.151 NA
ATOM     10  C   LIG    1       25.984 -17.336   3.213  0.00  0.00    +0.067 A 
ENDROOT
BRANCH   1  11
ATOM     11  N   LIG    1       26.525 -14.961   3.313  0.00  0.00    -0.316 N 
BRANCH  11  13
ATOM     12  C   LIG    1       25.409 -13.027   2.228  0.00  0.00    +0.024 C 
ATOM     13  C   LIG    1       26.493 -14.091   2.117  0.00  0.00    +0.103 C 
ENDBRANCH  11  13
BRANCH  11  14
ATOM     14  C   LIG    1       27.554 -14.561   4.299  0.00  0.00    +0.103 C 
ATOM     15  C   LIG    1       26.995 -13.563   5.305  0.00  0.00    +0.024 C 
ENDBRANCH  11  14
ENDBRANCH   1  11
TORSDOF 3
ENDMDL
MODEL 8
REMARK VINA RESULT:      -2.2      1.605      3.845
REMARK  Name = *****
REMARK                            x       y       z     vdW  Elec       q    Type
REMARK                         _______ _______ _______ _____ _____    ______ ____
ROOT
ATOM      1  C   LIG    1       25.787 -19.700   4.775  0.00  0.00    +0.128 A 
ATOM      2  N   LIG    1       24.688 -20.296   5.484  0.00  0.00    -0.182 N 
ATOM      3  C   LIG    1       24.902 -21.152   6.587  0.00  0.00    +0.255 A 
ATOM      4  N   LIG    1       23.743 -21.571   7.054  0.00  0.00    -0.197 NA
ATOM      5  C   LIG    1       22.839 -20.976   6.238  0.00  0.00    +0.247 A 
ATOM      6  N   LIG    1       26.142 -21.455   7.051  0.00  0.00    -0.216 NA
ATOM      7  C   LIG    1       27.138 -20.926   6.410  0.00  0.00    +0.045 A 
ATOM      8  C   LIG    1       28.531 -21.230   6.906  0.00  0.00    +0.066 C 
ATOM      9  N   LIG    1       23.340 -20.197   5.284  0.00  0.00    -0.151 NA
ATOM     10  C   LIG    1       27.017 -20.028   5.224  0.00  0.00    +0.067 A 
ENDROOT
BRANCH   1  11
ATOM     11  N   LIG    1       25.585 -18.821   3.663  0.00  0.00    -0.316 N 
BRANCH  11  13
ATOM     12  C   LIG    1       25.391 -16.368   3.329  0.00  0.00    +0.024 C 
ATOM     13  C   LIG    1       26.332 -17.559   3.469  0.00  0.00    +0.103 C 
ENDBRANCH  11  13
BRANCH  11  14
ATOM     14  C   LIG    1       24.618 -19.100   2.578  0.00  0.00    +0.103 C 
ATOM     15  C   LIG    1       24.228 -20.572   2.553  0.00  0.00    +0.024 C 
ENDBRANCH  11  14
ENDBRANCH   1  11
TORSDOF 3
ENDMDL
MODEL 9
REMARK VINA RESULT:      -2.1      1.585      3.926
REMARK  Name = *****
REMARK                            x       y       z     vdW  Elec       q    Type
REMARK                         _______ _______ _______ _____ _____    ______ ____
ROOT
ATOM      1  C   LIG    1       26.886 -19.612   4.935  0.00  0.00    +0.128 A 
ATOM      2  N   LIG    1       26.791 -18.328   4.295  0.00  0.00    -0.182 N 
ATOM      3  C   LIG    1       25.690 -17.996   3.475  0.00  0.00    +0.255 A 
ATOM      4  N   LIG    1       25.842 -16.775   3.003  0.00  0.00    -0.197 NA
ATOM      5  C   LIG    1       27.025 -16.376   3.531  0.00  0.00    +0.247 A 
ATOM      6  N   LIG    1       24.658 -18.849   3.249  0.00  0.00    -0.216 NA
ATOM      7  C   LIG    1       24.743 -20.013   3.818  0.00  0.00    +0.045 A 
ATOM      8  C   LIG    1       23.607 -20.983   3.601  0.00  0.00    +0.066 C 
ATOM      9  N   LIG    1       27.637 -17.257   4.316  0.00  0.00    -0.151 NA
ATOM     10  C   LIG    1       25.871 -20.465   4.684  0.00  0.00    +0.067 A 
ENDROOT
BRANCH   1  11
ATOM     11  N   LIG    1       27.990 -19.958   5.779  0.00  0.00    -0.316 N 
BRANCH  11  13
ATOM     12  C   LIG    1       26.548 -21.527   7.055  0.00  0.00    +0.024 C 
ATOM     13  C   LIG    1       27.972 -21.093   6.728  0.00  0.00    +0.103 C 
ENDBRANCH  11  13
BRANCH  11  14
ATOM     14  C   LIG    1       29.275 -19.225   5.769  0.00  0.00    +0.103 C 
ATOM     15  C   LIG    1       29.474 -18.444   7.062  0.00  0.00    +0.024 C 
ENDBRANCH  11  14
ENDBRANCH   1  11
TORSDOF 3
ENDMDL
