MODEL 1
REMARK VINA RESULT:      -8.7      0.000      0.000
REMARK  Name = *****
REMARK                            x       y       z     vdW  Elec       q    Type
REMARK                         _______ _______ _______ _____ _____    ______ ____
ROOT
ATOM      1  O   LIG    1       26.587 -21.976   6.828  0.00  0.00    -0.362 OA
ENDROOT
BRANCH   1   5
ATOM      2  N   LIG    1       29.269 -21.041   7.753  0.00  0.00    -0.302 NA
ATOM      3  C   LIG    1       28.382 -20.292   8.643  0.00  0.00    +0.087 C 
ATOM      4  C   LIG    1       27.017 -19.934   8.022  0.00  0.00    +0.047 C 
ATOM      5  C   LIG    1       26.800 -20.573   6.639  0.00  0.00    +0.122 C 
ATOM      6  C   LIG    1       27.993 -20.118   5.799  0.00  0.00    +0.047 C 
ATOM      7  C   LIG    1       29.345 -20.477   6.417  0.00  0.00    +0.087 C 
BRANCH   2   8
ATOM      8  C   LIG    1       30.529 -21.444   8.386  0.00  0.00    +0.085 C 
BRANCH   8   9
ATOM      9  C   LIG    1       31.431 -20.399   9.092  0.00  0.00    +0.026 C 
BRANCH   9  10
ATOM     10  C   LIG    1       31.571 -19.041   8.397  0.00  0.00    +0.121 C 
BRANCH  10  12
ATOM     11  O   LIG    1       32.054 -17.922  10.509  0.00  0.00    -0.251 OA
ATOM     12  C   LIG    1       32.057 -17.910   9.258  0.00  0.00    +0.305 C 
BRANCH  12  13
ATOM     13  O   LIG    1       32.360 -16.782   8.537  0.00  0.00    -0.481 OA
ATOM     14  H   LIG    1       32.746 -16.068   9.070  0.00  0.00    +0.295 HD
ENDBRANCH  12  13
ENDBRANCH  10  12
ENDBRANCH   9  10
ENDBRANCH   8   9
ENDBRANCH   2   8
ENDBRANCH   1   5
BRANCH   1  15
ATOM     15  C   LIG    1       25.243 -22.490   6.868  0.00  0.00    +0.197 C 
BRANCH  15  16
ATOM     16  C   LIG    1       25.123 -23.989   6.590  0.00  0.00    -0.013 A 
ATOM     17  C   LIG    1       23.899 -24.643   6.372  0.00  0.00    +0.008 A 
ATOM     18  C   LIG    1       23.875 -25.982   5.958  0.00  0.00    +0.020 A 
ATOM     19  C   LIG    1       25.074 -26.659   5.734  0.00  0.00    +0.041 A 
ATOM     20 CL   LIG    1       25.061 -28.273   5.136  0.00  0.00    -0.084 Cl
ATOM     21  C   LIG    1       26.289 -26.044   6.012  0.00  0.00    +0.020 A 
ATOM     22  C   LIG    1       26.306 -24.740   6.505  0.00  0.00    +0.008 A 
ENDBRANCH  15  16
BRANCH  15  23
ATOM     23  C   LIG    1       24.331 -21.642   5.959  0.00  0.00    +0.074 A 
ATOM     24  N   LIG    1       24.497 -21.718   4.610  0.00  0.00    -0.257 NA
ATOM     25  C   LIG    1       23.712 -20.940   3.831  0.00  0.00    +0.111 A 
ATOM     26  C   LIG    1       22.736 -20.086   4.315  0.00  0.00    +0.020 A 
ATOM     27  C   LIG    1       22.549 -20.028   5.688  0.00  0.00    +0.003 A 
ATOM     28  C   LIG    1       23.355 -20.808   6.521  0.00  0.00    +0.026 A 
ENDBRANCH  15  23
ENDBRANCH   1  15
TORSDOF 9
ENDMDL
MODEL 2
REMARK VINA RESULT:      -8.7      3.924      7.580
REMARK  Name = *****
REMARK                            x       y       z     vdW  Elec       q    Type
REMARK                         _______ _______ _______ _____ _____    ______ ____
ROOT
ATOM      1  O   LIG    1       25.157 -22.367   5.416  0.00  0.00    -0.362 OA
ENDROOT
BRANCH   1   5
ATOM      2  N   LIG    1       24.579 -25.260   5.884  0.00  0.00    -0.302 NA
ATOM      3  C   LIG    1       23.418 -24.631   6.514  0.00  0.00    +0.087 C 
ATOM      4  C   LIG    1       23.703 -23.242   7.119  0.00  0.00    +0.047 C 
ATOM      5  C   LIG    1       25.116 -22.726   6.802  0.00  0.00    +0.122 C 
ATOM      6  C   LIG    1       26.061 -23.817   7.305  0.00  0.00    +0.047 C 
ATOM      7  C   LIG    1       25.778 -25.193   6.701  0.00  0.00    +0.087 C 
BRANCH   2   8
ATOM      8  C   LIG    1       24.273 -26.544   5.242  0.00  0.00    +0.085 C 
BRANCH   8   9
ATOM      9  C   LIG    1       25.395 -27.571   4.946  0.00  0.00    +0.026 C 
BRANCH   9  10
ATOM     10  C   LIG    1       25.431 -28.815   5.839  0.00  0.00    +0.121 C 
BRANCH  10  12
ATOM     11  O   LIG    1       23.882 -29.473   7.604  0.00  0.00    -0.251 OA
ATOM     12  C   LIG    1       24.108 -29.266   6.391  0.00  0.00    +0.305 C 
BRANCH  12  13
ATOM     13  O   LIG    1       23.202 -29.589   5.411  0.00  0.00    -0.481 OA
ATOM     14  H   LIG    1       22.296 -29.706   5.739  0.00  0.00    +0.295 HD
ENDBRANCH  12  13
ENDBRANCH  10  12
ENDBRANCH   9  10
ENDBRANCH   8   9
ENDBRANCH   2   8
ENDBRANCH   1   5
BRANCH   1  15
ATOM     15  C   LIG    1       25.649 -21.070   5.034  0.00  0.00    +0.197 C 
BRANCH  15  16
ATOM     16  C   LIG    1       26.680 -20.469   5.992  0.00  0.00    -0.013 A 
ATOM     17  C   LIG    1       26.522 -20.445   7.387  0.00  0.00    +0.008 A 
ATOM     18  C   LIG    1       27.577 -20.031   8.212  0.00  0.00    +0.020 A 
ATOM     19  C   LIG    1       28.799 -19.669   7.645  0.00  0.00    +0.041 A 
ATOM     20 CL   LIG    1       30.132 -19.250   8.648  0.00  0.00    -0.084 Cl
ATOM     21  C   LIG    1       28.944 -19.624   6.263  0.00  0.00    +0.020 A 
ATOM     22  C   LIG    1       27.865 -19.953   5.444  0.00  0.00    +0.008 A 
ENDBRANCH  15  16
BRANCH  15  23
ATOM     23  C   LIG    1       24.465 -20.120   4.765  0.00  0.00    +0.074 A 
ATOM     24  N   LIG    1       24.604 -19.151   3.819  0.00  0.00    -0.257 NA
ATOM     25  C   LIG    1       23.567 -18.304   3.622  0.00  0.00    +0.111 A 
ATOM     26  C   LIG    1       22.365 -18.374   4.305  0.00  0.00    +0.020 A 
ATOM     27  C   LIG    1       22.214 -19.378   5.250  0.00  0.00    +0.003 A 
ATOM     28  C   LIG    1       23.272 -20.259   5.488  0.00  0.00    +0.026 A 
ENDBRANCH  15  23
ENDBRANCH   1  15
TORSDOF 9
ENDMDL
MODEL 3
REMARK VINA RESULT:      -8.7      3.938      6.412
REMARK  Name = *****
REMARK                            x       y       z     vdW  Elec       q    Type
REMARK                         _______ _______ _______ _____ _____    ______ ____
ROOT
ATOM      1  O   LIG    1       24.164 -20.438   6.407  0.00  0.00    -0.362 OA
ENDROOT
BRANCH   1   5
ATOM      2  N   LIG    1       24.271 -18.653   4.014  0.00  0.00    -0.302 NA
ATOM      3  C   LIG    1       22.836 -18.666   4.297  0.00  0.00    +0.087 C 
ATOM      4  C   LIG    1       22.327 -19.979   4.926  0.00  0.00    +0.047 C 
ATOM      5  C   LIG    1       23.461 -20.958   5.273  0.00  0.00    +0.122 C 
ATOM      6  C   LIG    1       24.226 -21.162   3.965  0.00  0.00    +0.047 C 
ATOM      7  C   LIG    1       24.731 -19.858   3.346  0.00  0.00    +0.087 C 
BRANCH   2   8
ATOM      8  C   LIG    1       24.752 -17.369   3.493  0.00  0.00    +0.085 C 
BRANCH   8   9
ATOM      9  C   LIG    1       26.263 -17.132   3.241  0.00  0.00    +0.026 C 
BRANCH   9  10
ATOM     10  C   LIG    1       26.826 -15.783   3.701  0.00  0.00    +0.121 C 
BRANCH  10  12
ATOM     11  O   LIG    1       26.635 -14.273   1.795  0.00  0.00    -0.251 OA
ATOM     12  C   LIG    1       26.316 -14.575   2.967  0.00  0.00    +0.305 C 
BRANCH  12  13
ATOM     13  O   LIG    1       25.583 -13.734   3.767  0.00  0.00    -0.481 OA
ATOM     14  H   LIG    1       25.034 -14.194   4.422  0.00  0.00    +0.295 HD
ENDBRANCH  12  13
ENDBRANCH  10  12
ENDBRANCH   9  10
ENDBRANCH   8   9
ENDBRANCH   2   8
ENDBRANCH   1   5
BRANCH   1  15
ATOM     15  C   LIG    1       25.097 -21.279   7.110  0.00  0.00    +0.197 C 
BRANCH  15  16
ATOM     16  C   LIG    1       26.568 -20.915   6.902  0.00  0.00    -0.013 A 
ATOM     17  C   LIG    1       27.033 -20.150   5.820  0.00  0.00    +0.008 A 
ATOM     18  C   LIG    1       28.366 -19.715   5.781  0.00  0.00    +0.020 A 
ATOM     19  C   LIG    1       29.224 -20.019   6.837  0.00  0.00    +0.041 A 
ATOM     20 CL   LIG    1       30.835 -19.413   6.849  0.00  0.00    -0.084 Cl
ATOM     21  C   LIG    1       28.794 -20.833   7.879  0.00  0.00    +0.020 A 
ATOM     22  C   LIG    1       27.493 -21.335   7.871  0.00  0.00    +0.008 A 
ENDBRANCH  15  16
BRANCH  15  23
ATOM     23  C   LIG    1       24.802 -22.760   6.800  0.00  0.00    +0.074 A 
ATOM     24  N   LIG    1       25.829 -23.565   6.410  0.00  0.00    -0.257 NA
ATOM     25  C   LIG    1       25.544 -24.852   6.108  0.00  0.00    +0.111 A 
ATOM     26  C   LIG    1       24.279 -25.410   6.189  0.00  0.00    +0.020 A 
ATOM     27  C   LIG    1       23.238 -24.597   6.611  0.00  0.00    +0.003 A 
ATOM     28  C   LIG    1       23.497 -23.258   6.916  0.00  0.00    +0.026 A 
ENDBRANCH  15  23
ENDBRANCH   1  15
TORSDOF 9
ENDMDL
MODEL 4
REMARK VINA RESULT:      -8.2      3.833      6.841
REMARK  Name = *****
REMARK                            x       y       z     vdW  Elec       q    Type
REMARK                         _______ _______ _______ _____ _____    ______ ____
ROOT
ATOM      1  O   LIG    1       24.130 -20.204   6.176  0.00  0.00    -0.362 OA
ENDROOT
BRANCH   1   5
ATOM      2  N   LIG    1       22.780 -18.185   4.438  0.00  0.00    -0.302 NA
ATOM      3  C   LIG    1       21.740 -19.208   4.548  0.00  0.00    +0.087 C 
ATOM      4  C   LIG    1       22.280 -20.644   4.705  0.00  0.00    +0.047 C 
ATOM      5  C   LIG    1       23.808 -20.696   4.870  0.00  0.00    +0.122 C 
ATOM      6  C   LIG    1       24.367 -19.963   3.651  0.00  0.00    +0.047 C 
ATOM      7  C   LIG    1       23.831 -18.538   3.500  0.00  0.00    +0.087 C 
BRANCH   2   8
ATOM      8  C   LIG    1       22.251 -16.818   4.372  0.00  0.00    +0.085 C 
BRANCH   8   9
ATOM      9  C   LIG    1       23.025 -15.636   5.009  0.00  0.00    +0.026 C 
BRANCH   9  10
ATOM     10  C   LIG    1       23.635 -14.620   4.037  0.00  0.00    +0.121 C 
BRANCH  10  12
ATOM     11  O   LIG    1       25.810 -15.544   3.434  0.00  0.00    -0.251 OA
ATOM     12  C   LIG    1       25.135 -14.621   3.942  0.00  0.00    +0.305 C 
BRANCH  12  13
ATOM     13  O   LIG    1       25.714 -13.575   4.617  0.00  0.00    -0.481 OA
ATOM     14  H   LIG    1       26.202 -12.961   4.045  0.00  0.00    +0.295 HD
ENDBRANCH  12  13
ENDBRANCH  10  12
ENDBRANCH   9  10
ENDBRANCH   8   9
ENDBRANCH   2   8
ENDBRANCH   1   5
BRANCH   1  15
ATOM     15  C   LIG    1       25.012 -20.964   7.023  0.00  0.00    +0.197 C 
BRANCH  15  16
ATOM     16  C   LIG    1       26.489 -20.580   6.915  0.00  0.00    -0.013 A 
ATOM     17  C   LIG    1       27.108 -20.204   5.712  0.00  0.00    +0.008 A 
ATOM     18  C   LIG    1       28.418 -19.706   5.716  0.00  0.00    +0.020 A 
ATOM     19  C   LIG    1       29.099 -19.557   6.923  0.00  0.00    +0.041 A 
ATOM     20 CL   LIG    1       30.672 -18.859   6.953  0.00  0.00    -0.084 Cl
ATOM     21  C   LIG    1       28.523 -19.990   8.112  0.00  0.00    +0.020 A 
ATOM     22  C   LIG    1       27.252 -20.564   8.094  0.00  0.00    +0.008 A 
ENDBRANCH  15  16
BRANCH  15  23
ATOM     23  C   LIG    1       24.773 -22.471   6.808  0.00  0.00    +0.074 A 
ATOM     24  N   LIG    1       25.837 -23.269   6.514  0.00  0.00    -0.257 NA
ATOM     25  C   LIG    1       25.602 -24.583   6.294  0.00  0.00    +0.111 A 
ATOM     26  C   LIG    1       24.352 -25.173   6.368  0.00  0.00    +0.020 A 
ATOM     27  C   LIG    1       23.272 -24.366   6.693  0.00  0.00    +0.003 A 
ATOM     28  C   LIG    1       23.480 -23.002   6.911  0.00  0.00    +0.026 A 
ENDBRANCH  15  23
ENDBRANCH   1  15
TORSDOF 9
ENDMDL
MODEL 5
REMARK VINA RESULT:      -8.2      3.693      8.035
REMARK  Name = *****
REMARK                            x       y       z     vdW  Elec       q    Type
REMARK                         _______ _______ _______ _____ _____    ______ ____
ROOT
ATOM      1  O   LIG    1       25.672 -23.136   6.143  0.00  0.00    -0.362 OA
ENDROOT
BRANCH   1   5
ATOM      2  N   LIG    1       25.472 -26.110   6.334  0.00  0.00    -0.302 NA
ATOM      3  C   LIG    1       25.553 -25.921   4.886  0.00  0.00    +0.087 C 
ATOM      4  C   LIG    1       24.935 -24.600   4.385  0.00  0.00    +0.047 C 
ATOM      5  C   LIG    1       24.495 -23.671   5.529  0.00  0.00    +0.122 C 
ATOM      6  C   LIG    1       23.540 -24.510   6.378  0.00  0.00    +0.047 C 
ATOM      7  C   LIG    1       24.157 -25.818   6.875  0.00  0.00    +0.087 C 
BRANCH   2   8
ATOM      8  C   LIG    1       26.137 -27.331   6.802  0.00  0.00    +0.085 C 
BRANCH   8   9
ATOM      9  C   LIG    1       25.468 -28.240   7.865  0.00  0.00    +0.026 C 
BRANCH   9  10
ATOM     10  C   LIG    1       24.835 -29.537   7.350  0.00  0.00    +0.121 C 
BRANCH  10  12
ATOM     11  O   LIG    1       25.501 -29.812   5.019  0.00  0.00    -0.251 OA
ATOM     12  C   LIG    1       24.602 -29.610   5.867  0.00  0.00    +0.305 C 
BRANCH  12  13
ATOM     13  O   LIG    1       23.321 -29.272   5.510  0.00  0.00    -0.481 OA
ATOM     14  H   LIG    1       23.158 -29.305   4.553  0.00  0.00    +0.295 HD
ENDBRANCH  12  13
ENDBRANCH  10  12
ENDBRANCH   9  10
ENDBRANCH   8   9
ENDBRANCH   2   8
ENDBRANCH   1   5
BRANCH   1  15
ATOM     15  C   LIG    1       25.643 -21.805   6.691  0.00  0.00    +0.197 C 
BRANCH  15  16
ATOM     16  C   LIG    1       24.713 -20.834   5.963  0.00  0.00    -0.013 A 
ATOM     17  C   LIG    1       24.952 -20.356   4.663  0.00  0.00    +0.008 A 
ATOM     18  C   LIG    1       23.976 -19.602   3.996  0.00  0.00    +0.020 A 
ATOM     19  C   LIG    1       22.753 -19.349   4.614  0.00  0.00    +0.041 A 
ATOM     20 CL   LIG    1       21.511 -18.506   3.772  0.00  0.00    -0.084 Cl
ATOM     21  C   LIG    1       22.531 -19.758   5.925  0.00  0.00    +0.020 A 
ATOM     22  C   LIG    1       23.536 -20.433   6.616  0.00  0.00    +0.008 A 
ENDBRANCH  15  16
BRANCH  15  23
ATOM     23  C   LIG    1       27.080 -21.264   6.826  0.00  0.00    +0.074 A 
ATOM     24  N   LIG    1       27.907 -21.824   7.751  0.00  0.00    -0.257 NA
ATOM     25  C   LIG    1       29.153 -21.311   7.879  0.00  0.00    +0.111 A 
ATOM     26  C   LIG    1       29.647 -20.268   7.115  0.00  0.00    +0.020 A 
ATOM     27  C   LIG    1       28.813 -19.715   6.155  0.00  0.00    +0.003 A 
ATOM     28  C   LIG    1       27.516 -20.212   6.008  0.00  0.00    +0.026 A 
ENDBRANCH  15  23
ENDBRANCH   1  15
TORSDOF 9
ENDMDL
MODEL 6
REMARK VINA RESULT:      -7.7      3.782      7.638
REMARK  Name = *****
REMARK                            x       y       z     vdW  Elec       q    Type
REMARK                         _______ _______ _______ _____ _____    ______ ____
ROOT
ATOM      1  O   LIG    1       25.729 -23.370   6.226  0.00  0.00    -0.362 OA
ENDROOT
BRANCH   1   5
ATOM      2  N   LIG    1       25.676 -26.342   6.520  0.00  0.00    -0.302 NA
ATOM      3  C   LIG    1       25.832 -26.200   5.073  0.00  0.00    +0.087 C 
ATOM      4  C   LIG    1       25.176 -24.934   4.487  0.00  0.00    +0.047 C 
ATOM      5  C   LIG    1       24.620 -23.991   5.567  0.00  0.00    +0.122 C 
ATOM      6  C   LIG    1       23.663 -24.850   6.392  0.00  0.00    +0.047 C 
ATOM      7  C   LIG    1       24.318 -26.103   6.974  0.00  0.00    +0.087 C 
BRANCH   2   8
ATOM      8  C   LIG    1       26.376 -27.507   7.072  0.00  0.00    +0.085 C 
BRANCH   8   9
ATOM      9  C   LIG    1       25.682 -28.434   8.102  0.00  0.00    +0.026 C 
BRANCH   9  10
ATOM     10  C   LIG    1       26.397 -28.616   9.445  0.00  0.00    +0.121 C 
BRANCH  10  12
ATOM     11  O   LIG    1       27.930 -30.154  10.555  0.00  0.00    -0.251 OA
ATOM     12  C   LIG    1       27.111 -29.924   9.637  0.00  0.00    +0.305 C 
BRANCH  12  13
ATOM     13  O   LIG    1       26.899 -30.805   8.606  0.00  0.00    -0.481 OA
ATOM     14  H   LIG    1       26.705 -30.377   7.757  0.00  0.00    +0.295 HD
ENDBRANCH  12  13
ENDBRANCH  10  12
ENDBRANCH   9  10
ENDBRANCH   8   9
ENDBRANCH   2   8
ENDBRANCH   1   5
BRANCH   1  15
ATOM     15  C   LIG    1       25.595 -22.028   6.729  0.00  0.00    +0.197 C 
BRANCH  15  16
ATOM     16  C   LIG    1       24.540 -21.180   6.015  0.00  0.00    -0.013 A 
ATOM     17  C   LIG    1       23.386 -20.686   6.644  0.00  0.00    +0.008 A 
ATOM     18  C   LIG    1       22.550 -19.779   5.977  0.00  0.00    +0.020 A 
ATOM     19  C   LIG    1       22.882 -19.345   4.695  0.00  0.00    +0.041 A 
ATOM     20 CL   LIG    1       21.917 -18.162   3.901  0.00  0.00    -0.084 Cl
ATOM     21  C   LIG    1       23.984 -19.879   4.037  0.00  0.00    +0.020 A 
ATOM     22  C   LIG    1       24.765 -20.845   4.670  0.00  0.00    +0.008 A 
ENDBRANCH  15  16
BRANCH  15  23
ATOM     23  C   LIG    1       26.976 -21.345   6.773  0.00  0.00    +0.074 A 
ATOM     24  N   LIG    1       27.911 -21.813   7.646  0.00  0.00    -0.257 NA
ATOM     25  C   LIG    1       29.104 -21.177   7.695  0.00  0.00    +0.111 A 
ATOM     26  C   LIG    1       29.444 -20.096   6.901  0.00  0.00    +0.020 A 
ATOM     27  C   LIG    1       28.501 -19.636   5.994  0.00  0.00    +0.003 A 
ATOM     28  C   LIG    1       27.253 -20.261   5.929  0.00  0.00    +0.026 A 
ENDBRANCH  15  23
ENDBRANCH   1  15
TORSDOF 9
ENDMDL
MODEL 7
REMARK VINA RESULT:      -7.0      4.906      8.281
REMARK  Name = *****
REMARK                            x       y       z     vdW  Elec       q    Type
REMARK                         _______ _______ _______ _____ _____    ______ ____
ROOT
ATOM      1  O   LIG    1       25.227 -28.452   7.210  0.00  0.00    -0.362 OA
ENDROOT
BRANCH   1   5
ATOM      2  N   LIG    1       25.628 -25.555   6.601  0.00  0.00    -0.302 NA
ATOM      3  C   LIG    1       24.275 -25.772   6.086  0.00  0.00    +0.087 C 
ATOM      4  C   LIG    1       24.023 -27.196   5.552  0.00  0.00    +0.047 C 
ATOM      5  C   LIG    1       25.199 -28.152   5.811  0.00  0.00    +0.122 C 
ATOM      6  C   LIG    1       26.414 -27.470   5.181  0.00  0.00    +0.047 C 
ATOM      7  C   LIG    1       26.663 -26.059   5.715  0.00  0.00    +0.087 C 
BRANCH   2   8
ATOM      8  C   LIG    1       25.826 -24.222   7.180  0.00  0.00    +0.085 C 
BRANCH   8   9
ATOM      9  C   LIG    1       24.981 -23.015   6.699  0.00  0.00    +0.026 C 
BRANCH   9  10
ATOM     10  C   LIG    1       24.606 -21.980   7.764  0.00  0.00    +0.121 C 
BRANCH  10  12
ATOM     11  O   LIG    1       26.300 -20.343   7.129  0.00  0.00    -0.251 OA
ATOM     12  C   LIG    1       25.624 -20.905   8.021  0.00  0.00    +0.305 C 
BRANCH  12  13
ATOM     13  O   LIG    1       25.863 -20.703   9.358  0.00  0.00    -0.481 OA
ATOM     14  H   LIG    1       25.436 -21.355   9.935  0.00  0.00    +0.295 HD
ENDBRANCH  12  13
ENDBRANCH  10  12
ENDBRANCH   9  10
ENDBRANCH   8   9
ENDBRANCH   2   8
ENDBRANCH   1   5
BRANCH   1  15
ATOM     15  C   LIG    1       24.388 -29.500   7.728  0.00  0.00    +0.197 C 
BRANCH  15  16
ATOM     16  C   LIG    1       24.476 -29.701   9.242  0.00  0.00    -0.013 A 
ATOM     17  C   LIG    1       25.598 -29.346  10.009  0.00  0.00    +0.008 A 
ATOM     18  C   LIG    1       25.546 -29.403  11.409  0.00  0.00    +0.020 A 
ATOM     19  C   LIG    1       24.365 -29.788  12.043  0.00  0.00    +0.041 A 
ATOM     20 CL   LIG    1       24.257 -29.774  13.760  0.00  0.00    -0.084 Cl
ATOM     21  C   LIG    1       23.272 -30.208  11.294  0.00  0.00    +0.020 A 
ATOM     22  C   LIG    1       23.355 -30.231   9.902  0.00  0.00    +0.008 A 
ENDBRANCH  15  16
BRANCH  15  23
ATOM     23  C   LIG    1       24.632 -30.803   6.941  0.00  0.00    +0.074 A 
ATOM     24  N   LIG    1       23.599 -31.351   6.244  0.00  0.00    -0.257 NA
ATOM     25  C   LIG    1       23.823 -32.514   5.589  0.00  0.00    +0.111 A 
ATOM     26  C   LIG    1       25.041 -33.170   5.564  0.00  0.00    +0.020 A 
ATOM     27  C   LIG    1       26.101 -32.598   6.252  0.00  0.00    +0.003 A 
ATOM     28  C   LIG    1       25.897 -31.406   6.952  0.00  0.00    +0.026 A 
ENDBRANCH  15  23
ENDBRANCH   1  15
TORSDOF 9
ENDMDL
MODEL 8
REMARK VINA RESULT:      -6.9      1.894      2.363
REMARK  Name = *****
REMARK                            x       y       z     vdW  Elec       q    Type
REMARK                         _______ _______ _______ _____ _____    ______ ____
ROOT
ATOM      1  O   LIG    1       26.321 -20.344   6.787  0.00  0.00    -0.362 OA
ENDROOT
BRANCH   1   5
ATOM      2  N   LIG    1       28.965 -19.514   7.904  0.00  0.00    -0.302 NA
ATOM      3  C   LIG    1       29.013 -18.909   6.573  0.00  0.00    +0.087 C 
ATOM      4  C   LIG    1       28.239 -19.691   5.494  0.00  0.00    +0.047 C 
ATOM      5  C   LIG    1       27.439 -20.873   6.066  0.00  0.00    +0.122 C 
ATOM      6  C   LIG    1       28.464 -21.721   6.819  0.00  0.00    +0.047 C 
ATOM      7  C   LIG    1       29.228 -20.943   7.891  0.00  0.00    +0.087 C 
BRANCH   2   8
ATOM      8  C   LIG    1       29.636 -18.716   8.935  0.00  0.00    +0.085 C 
BRANCH   8   9
ATOM      9  C   LIG    1       30.960 -19.203   9.578  0.00  0.00    +0.026 C 
BRANCH   9  10
ATOM     10  C   LIG    1       31.768 -20.229   8.778  0.00  0.00    +0.121 C 
BRANCH  10  12
ATOM     11  O   LIG    1       32.230 -22.622   8.695  0.00  0.00    -0.251 OA
ATOM     12  C   LIG    1       31.708 -21.645   9.277  0.00  0.00    +0.305 C 
BRANCH  12  13
ATOM     13  O   LIG    1       30.881 -21.796  10.362  0.00  0.00    -0.481 OA
ATOM     14  H   LIG    1       30.007 -22.155  10.142  0.00  0.00    +0.295 HD
ENDBRANCH  12  13
ENDBRANCH  10  12
ENDBRANCH   9  10
ENDBRANCH   8   9
ENDBRANCH   2   8
ENDBRANCH   1   5
BRANCH   1  15
ATOM     15  C   LIG    1       25.028 -20.959   6.643  0.00  0.00    +0.197 C 
BRANCH  15  16
ATOM     16  C   LIG    1       25.063 -22.467   6.388  0.00  0.00    -0.013 A 
ATOM     17  C   LIG    1       24.738 -23.053   5.154  0.00  0.00    +0.008 A 
ATOM     18  C   LIG    1       24.951 -24.423   4.942  0.00  0.00    +0.020 A 
ATOM     19  C   LIG    1       25.516 -25.200   5.953  0.00  0.00    +0.041 A 
ATOM     20 CL   LIG    1       25.871 -26.861   5.676  0.00  0.00    -0.084 Cl
ATOM     21  C   LIG    1       25.777 -24.646   7.201  0.00  0.00    +0.020 A 
ATOM     22  C   LIG    1       25.484 -23.303   7.435  0.00  0.00    +0.008 A 
ENDBRANCH  15  16
BRANCH  15  23
ATOM     23  C   LIG    1       24.201 -20.197   5.589  0.00  0.00    +0.074 A 
ATOM     24  N   LIG    1       24.827 -19.738   4.471  0.00  0.00    -0.257 NA
ATOM     25  C   LIG    1       24.092 -19.040   3.575  0.00  0.00    +0.111 A 
ATOM     26  C   LIG    1       22.739 -18.782   3.711  0.00  0.00    +0.020 A 
ATOM     27  C   LIG    1       22.095 -19.273   4.837  0.00  0.00    +0.003 A 
ATOM     28  C   LIG    1       22.830 -19.984   5.789  0.00  0.00    +0.026 A 
ENDBRANCH  15  23
ENDBRANCH   1  15
TORSDOF 9
ENDMDL
MODEL 9
REMARK VINA RESULT:      -6.9      6.886     10.268
REMARK  Name = *****
REMARK                            x       y       z     vdW  Elec       q    Type
REMARK                         _______ _______ _______ _____ _____    ______ ____
ROOT
ATOM      1  O   LIG    1       25.158 -28.962  11.438  0.00  0.00    -0.362 OA
ENDROOT
BRANCH   1   5
ATOM      2  N   LIG    1       25.052 -29.602   8.522  0.00  0.00    -0.302 NA
ATOM      3  C   LIG    1       23.995 -30.468   9.044  0.00  0.00    +0.087 C 
ATOM      4  C   LIG    1       24.239 -30.967  10.482  0.00  0.00    +0.047 C 
ATOM      5  C   LIG    1       25.473 -30.326  11.139  0.00  0.00    +0.122 C 
ATOM      6  C   LIG    1       26.630 -30.621  10.186  0.00  0.00    +0.047 C 
ATOM      7  C   LIG    1       26.386 -30.123   8.761  0.00  0.00    +0.087 C 
BRANCH   2   8
ATOM      8  C   LIG    1       24.765 -29.071   7.185  0.00  0.00    +0.085 C 
BRANCH   8   9
ATOM      9  C   LIG    1       25.168 -27.623   6.804  0.00  0.00    +0.026 C 
BRANCH   9  10
ATOM     10  C   LIG    1       24.370 -26.972   5.669  0.00  0.00    +0.121 C 
BRANCH  10  12
ATOM     11  O   LIG    1       23.412 -24.931   6.600  0.00  0.00    -0.251 OA
ATOM     12  C   LIG    1       24.172 -25.486   5.774  0.00  0.00    +0.305 C 
BRANCH  12  13
ATOM     13  O   LIG    1       24.788 -24.792   4.763  0.00  0.00    -0.481 OA
ATOM     14  H   LIG    1       24.344 -24.874   3.904  0.00  0.00    +0.295 HD
ENDBRANCH  12  13
ENDBRANCH  10  12
ENDBRANCH   9  10
ENDBRANCH   8   9
ENDBRANCH   2   8
ENDBRANCH   1   5
BRANCH   1  15
ATOM     15  C   LIG    1       24.702 -28.611  12.758  0.00  0.00    +0.197 C 
BRANCH  15  16
ATOM     16  C   LIG    1       23.273 -28.069  12.818  0.00  0.00    -0.013 A 
ATOM     17  C   LIG    1       22.141 -28.823  12.467  0.00  0.00    +0.008 A 
ATOM     18  C   LIG    1       20.854 -28.320  12.705  0.00  0.00    +0.020 A 
ATOM     19  C   LIG    1       20.698 -27.078  13.319  0.00  0.00    +0.041 A 
ATOM     20 CL   LIG    1       19.127 -26.490  13.703  0.00  0.00    -0.084 Cl
ATOM     21  C   LIG    1       21.810 -26.295  13.608  0.00  0.00    +0.020 A 
ATOM     22  C   LIG    1       23.085 -26.761  13.292  0.00  0.00    +0.008 A 
ENDBRANCH  15  16
BRANCH  15  23
ATOM     23  C   LIG    1       25.723 -27.672  13.430  0.00  0.00    +0.074 A 
ATOM     24  N   LIG    1       26.043 -27.880  14.737  0.00  0.00    -0.257 NA
ATOM     25  C   LIG    1       26.913 -27.023  15.320  0.00  0.00    +0.111 A 
ATOM     26  C   LIG    1       27.515 -25.962  14.667  0.00  0.00    +0.020 A 
ATOM     27  C   LIG    1       27.209 -25.765  13.329  0.00  0.00    +0.003 A 
ATOM     28  C   LIG    1       26.302 -26.623  12.702  0.00  0.00    +0.026 A 
ENDBRANCH  15  23
ENDBRANCH   1  15
TORSDOF 9
ENDMDL
