MODEL 1
REMARK VINA RESULT:      -5.5      0.000      0.000
REMARK  Name = *****
REMARK                            x       y       z     vdW  Elec       q    Type
REMARK                         _______ _______ _______ _____ _____    ______ ____
ROOT
ATOM      1  C   LIG    1       25.494 -28.577   7.666  0.00  0.00    +0.073 C 
ATOM      2  C   LIG    1       24.937 -29.935   8.105  0.00  0.00    +0.166 C 
ATOM      3  O   LIG    1       25.880 -30.512   9.092  0.00  0.00    -0.332 OA
ATOM      4  C   LIG    1       25.028 -30.911  10.176  0.00  0.00    +0.164 C 
ATOM      5  C   LIG    1       24.033 -29.765  10.090  0.00  0.00    +0.162 C 
ATOM      6  C   LIG    1       23.234 -29.827  11.381  0.00  0.00    +0.039 C 
ATOM      7  C   LIG    1       24.478 -29.779  12.294  0.00  0.00    +0.004 C 
ATOM      8  C   LIG    1       24.466 -29.765  13.816  0.00  0.00    -0.000 C 
ATOM      9  C   LIG    1       25.893 -29.312  14.301  0.00  0.00    +0.035 C 
ATOM     10  C   LIG    1       27.067 -30.057  13.546  0.00  0.00    +0.120 C 
ATOM     11  C   LIG    1       26.865 -30.383  12.033  0.00  0.00    +0.042 C 
ATOM     12  C   LIG    1       26.127 -27.735  14.404  0.00  0.00    +0.013 C 
ATOM     13  C   LIG    1       24.852 -26.962  14.815  0.00  0.00    -0.056 C 
ATOM     14  C   LIG    1       24.943 -25.619  14.969  0.00  0.00    +0.051 C 
ATOM     15  C   LIG    1       25.389 -24.982  13.671  0.00  0.00    +0.179 C 
ATOM     16  C   LIG    1       26.274 -25.797  12.787  0.00  0.00    +0.047 C 
ATOM     17  O   LIG    1       25.111 -23.821  13.400  0.00  0.00    -0.288 OA
ATOM     18  C   LIG    1       23.547 -27.446  14.220  0.00  0.00    +0.032 C 
ATOM     19  C   LIG    1       27.222 -27.525  15.492  0.00  0.00    +0.020 C 
ATOM     20  C   LIG    1       26.639 -27.047  13.134  0.00  0.00    -0.012 C 
ATOM     21  C   LIG    1       23.353 -28.930  14.440  0.00  0.00    +0.008 C 
ATOM     22  C   LIG    1       25.448 -30.872  11.703  0.00  0.00    +0.012 C 
ATOM     23  C   LIG    1       25.203 -32.256  12.376  0.00  0.00    +0.015 C 
ATOM     24  O   LIG    1       23.634 -29.774   8.746  0.00  0.00    -0.343 OA
ATOM     25  C   LIG    1       24.779 -30.837   6.885  0.00  0.00    +0.073 C 
ENDROOT
BRANCH  10  26
ATOM     26  O   LIG    1       27.339 -31.290  14.219  0.00  0.00    -0.391 OA
ATOM     27  H   LIG    1       27.642 -31.936  13.558  0.00  0.00    +0.210 HD
ENDBRANCH  10  26
BRANCH   4  28
ATOM     28  C   LIG    1       24.453 -32.293   9.761  0.00  0.00    +0.193 C 
ATOM     29  O   LIG    1       23.268 -32.612   9.904  0.00  0.00    -0.292 OA
BRANCH  28  30
ATOM     30  C   LIG    1       25.446 -33.303   9.177  0.00  0.00    +0.233 C 
BRANCH  30  31
ATOM     31  O   LIG    1       26.776 -33.010   9.584  0.00  0.00    -0.387 OA
ATOM     32  H   LIG    1       26.713 -32.694  10.508  0.00  0.00    +0.210 HD
ENDBRANCH  30  31
ENDBRANCH  28  30
ENDBRANCH   4  28
TORSDOF 4
ENDMDL
MODEL 2
REMARK VINA RESULT:      -5.1      2.282      2.862
REMARK  Name = *****
REMARK                            x       y       z     vdW  Elec       q    Type
REMARK                         _______ _______ _______ _____ _____    ______ ____
ROOT
ATOM      1  C   LIG    1       24.710 -28.299   7.346  0.00  0.00    +0.073 C 
ATOM      2  C   LIG    1       24.850 -29.821   7.252  0.00  0.00    +0.166 C 
ATOM      3  O   LIG    1       25.734 -30.262   8.356  0.00  0.00    -0.332 OA
ATOM      4  C   LIG    1       25.008 -31.346   8.955  0.00  0.00    +0.164 C 
ATOM      5  C   LIG    1       23.608 -30.782   8.776  0.00  0.00    +0.162 C 
ATOM      6  C   LIG    1       22.713 -31.639   9.655  0.00  0.00    +0.039 C 
ATOM      7  C   LIG    1       23.544 -31.406  10.935  0.00  0.00    +0.004 C 
ATOM      8  C   LIG    1       23.220 -31.953  12.319  0.00  0.00    -0.000 C 
ATOM      9  C   LIG    1       24.084 -31.151  13.362  0.00  0.00    +0.035 C 
ATOM     10  C   LIG    1       25.597 -31.002  12.927  0.00  0.00    +0.120 C 
ATOM     11  C   LIG    1       25.899 -30.809  11.407  0.00  0.00    +0.042 C 
ATOM     12  C   LIG    1       23.453 -29.780  13.883  0.00  0.00    +0.013 C 
ATOM     13  C   LIG    1       21.909 -29.823  13.977  0.00  0.00    -0.056 C 
ATOM     14  C   LIG    1       21.268 -28.724  14.443  0.00  0.00    +0.051 C 
ATOM     15  C   LIG    1       21.576 -27.536  13.559  0.00  0.00    +0.179 C 
ATOM     16  C   LIG    1       22.911 -27.519  12.888  0.00  0.00    +0.047 C 
ATOM     17  O   LIG    1       20.805 -26.590  13.468  0.00  0.00    -0.288 OA
ATOM     18  C   LIG    1       21.186 -30.559  12.869  0.00  0.00    +0.032 C 
ATOM     19  C   LIG    1       24.042 -29.539  15.306  0.00  0.00    +0.020 C 
ATOM     20  C   LIG    1       23.784 -28.531  13.059  0.00  0.00    -0.012 C 
ATOM     21  C   LIG    1       21.738 -31.954  12.676  0.00  0.00    +0.008 C 
ATOM     22  C   LIG    1       25.031 -31.692  10.501  0.00  0.00    +0.012 C 
ATOM     23  C   LIG    1       25.400 -33.190  10.723  0.00  0.00    +0.015 C 
ATOM     24  O   LIG    1       23.549 -30.469   7.411  0.00  0.00    -0.343 OA
ATOM     25  C   LIG    1       25.424 -30.194   5.888  0.00  0.00    +0.073 C 
ENDROOT
BRANCH  10  26
ATOM     26  O   LIG    1       26.320 -32.157  13.365  0.00  0.00    -0.391 OA
ATOM     27  H   LIG    1       26.966 -32.390  12.677  0.00  0.00    +0.210 HD
ENDBRANCH  10  26
BRANCH   4  28
ATOM     28  C   LIG    1       25.317 -32.587   8.072  0.00  0.00    +0.193 C 
ATOM     29  O   LIG    1       24.450 -33.246   7.490  0.00  0.00    -0.292 OA
BRANCH  28  30
ATOM     30  C   LIG    1       26.788 -33.006   7.967  0.00  0.00    +0.233 C 
BRANCH  30  31
ATOM     31  O   LIG    1       27.450 -32.299   6.927  0.00  0.00    -0.387 OA
ATOM     32  H   LIG    1       27.780 -31.471   7.331  0.00  0.00    +0.210 HD
ENDBRANCH  30  31
ENDBRANCH  28  30
ENDBRANCH   4  28
TORSDOF 4
ENDMDL
MODEL 3
REMARK VINA RESULT:      -5.0      3.283      6.831
REMARK  Name = *****
REMARK                            x       y       z     vdW  Elec       q    Type
REMARK                         _______ _______ _______ _____ _____    ______ ____
ROOT
ATOM      1  C   LIG    1       21.964 -26.387  13.250  0.00  0.00    +0.073 C 
ATOM      2  C   LIG    1       21.136 -27.431  14.004  0.00  0.00    +0.166 C 
ATOM      3  O   LIG    1       20.409 -28.243  12.999  0.00  0.00    -0.332 OA
ATOM      4  C   LIG    1       20.679 -29.594  13.401  0.00  0.00    +0.164 C 
ATOM      5  C   LIG    1       22.107 -29.388  13.879  0.00  0.00    +0.162 C 
ATOM      6  C   LIG    1       22.685 -30.785  14.035  0.00  0.00    +0.039 C 
ATOM      7  C   LIG    1       22.347 -31.216  12.591  0.00  0.00    +0.004 C 
ATOM      8  C   LIG    1       22.679 -32.562  11.963  0.00  0.00    -0.000 C 
ATOM      9  C   LIG    1       22.519 -32.414  10.404  0.00  0.00    +0.035 C 
ATOM     10  C   LIG    1       21.182 -31.678   9.989  0.00  0.00    +0.120 C 
ATOM     11  C   LIG    1       20.679 -30.516  10.902  0.00  0.00    +0.042 C 
ATOM     12  C   LIG    1       23.797 -31.863   9.621  0.00  0.00    +0.013 C 
ATOM     13  C   LIG    1       25.134 -32.313  10.255  0.00  0.00    -0.056 C 
ATOM     14  C   LIG    1       26.286 -31.934   9.650  0.00  0.00    +0.051 C 
ATOM     15  C   LIG    1       26.365 -30.424   9.597  0.00  0.00    +0.179 C 
ATOM     16  C   LIG    1       25.071 -29.682   9.501  0.00  0.00    +0.047 C 
ATOM     17  O   LIG    1       27.440 -29.841   9.543  0.00  0.00    -0.288 OA
ATOM     18  C   LIG    1       25.189 -32.340  11.767  0.00  0.00    +0.032 C 
ATOM     19  C   LIG    1       23.703 -32.433   8.174  0.00  0.00    +0.020 C 
ATOM     20  C   LIG    1       23.896 -30.340   9.482  0.00  0.00    -0.012 C 
ATOM     21  C   LIG    1       24.040 -33.132  12.351  0.00  0.00    +0.008 C 
ATOM     22  C   LIG    1       20.837 -30.811  12.399  0.00  0.00    +0.012 C 
ATOM     23  C   LIG    1       19.890 -31.982  12.802  0.00  0.00    +0.015 C 
ATOM     24  O   LIG    1       22.004 -28.317  14.777  0.00  0.00    -0.343 OA
ATOM     25  C   LIG    1       20.176 -26.726  14.957  0.00  0.00    +0.073 C 
ENDROOT
BRANCH  10  26
ATOM     26  O   LIG    1       20.130 -32.645   9.905  0.00  0.00    -0.391 OA
ATOM     27  H   LIG    1       20.336 -33.256   9.177  0.00  0.00    +0.210 HD
ENDBRANCH  10  26
BRANCH   4  28
ATOM     28  C   LIG    1       19.660 -29.897  14.536  0.00  0.00    +0.193 C 
ATOM     29  O   LIG    1       19.907 -30.630  15.499  0.00  0.00    -0.292 OA
BRANCH  28  30
ATOM     30  C   LIG    1       18.273 -29.260  14.400  0.00  0.00    +0.233 C 
BRANCH  30  31
ATOM     31  O   LIG    1       17.607 -29.723  13.233  0.00  0.00    -0.387 OA
ATOM     32  H   LIG    1       17.023 -30.452  13.526  0.00  0.00    +0.210 HD
ENDBRANCH  30  31
ENDBRANCH  28  30
ENDBRANCH   4  28
TORSDOF 4
ENDMDL
MODEL 4
REMARK VINA RESULT:      -4.7      3.666      6.846
REMARK  Name = *****
REMARK                            x       y       z     vdW  Elec       q    Type
REMARK                         _______ _______ _______ _____ _____    ______ ____
ROOT
ATOM      1  C   LIG    1       19.153 -32.998   9.512  0.00  0.00    +0.073 C 
ATOM      2  C   LIG    1       19.513 -32.156  10.739  0.00  0.00    +0.166 C 
ATOM      3  O   LIG    1       20.621 -32.840  11.448  0.00  0.00    -0.332 OA
ATOM      4  C   LIG    1       21.579 -31.793  11.663  0.00  0.00    +0.164 C 
ATOM      5  C   LIG    1       21.356 -31.038  10.363  0.00  0.00    +0.162 C 
ATOM      6  C   LIG    1       22.527 -30.075  10.251  0.00  0.00    +0.039 C 
ATOM      7  C   LIG    1       23.601 -31.174  10.399  0.00  0.00    +0.004 C 
ATOM      8  C   LIG    1       25.107 -30.960  10.344  0.00  0.00    -0.000 C 
ATOM      9  C   LIG    1       25.781 -32.367  10.136  0.00  0.00    +0.035 C 
ATOM     10  C   LIG    1       25.195 -33.481  11.094  0.00  0.00    +0.120 C 
ATOM     11  C   LIG    1       23.669 -33.428  11.419  0.00  0.00    +0.042 C 
ATOM     12  C   LIG    1       25.913 -32.861   8.623  0.00  0.00    +0.013 C 
ATOM     13  C   LIG    1       26.145 -31.700   7.627  0.00  0.00    -0.056 C 
ATOM     14  C   LIG    1       26.309 -32.007   6.318  0.00  0.00    +0.051 C 
ATOM     15  C   LIG    1       25.083 -32.728   5.802  0.00  0.00    +0.179 C 
ATOM     16  C   LIG    1       24.329 -33.566   6.783  0.00  0.00    +0.047 C 
ATOM     17  O   LIG    1       24.775 -32.700   4.618  0.00  0.00    -0.288 OA
ATOM     18  C   LIG    1       25.379 -30.422   7.890  0.00  0.00    +0.032 C 
ATOM     19  C   LIG    1       27.140 -33.821   8.581  0.00  0.00    +0.020 C 
ATOM     20  C   LIG    1       24.724 -33.652   8.068  0.00  0.00    -0.012 C 
ATOM     21  C   LIG    1       25.572 -29.940   9.310  0.00  0.00    +0.008 C 
ATOM     22  C   LIG    1       23.149 -32.004  11.659  0.00  0.00    +0.012 C 
ATOM     23  C   LIG    1       23.784 -31.430  12.962  0.00  0.00    +0.015 C 
ATOM     24  O   LIG    1       19.971 -30.827  10.335  0.00  0.00    -0.343 OA
ATOM     25  C   LIG    1       18.284 -32.005  11.630  0.00  0.00    +0.073 C 
ENDROOT
BRANCH  10  26
ATOM     26  O   LIG    1       25.900 -33.437  12.339  0.00  0.00    -0.391 OA
ATOM     27  H   LIG    1       25.666 -32.608  12.791  0.00  0.00    +0.210 HD
ENDBRANCH  10  26
BRANCH   4  28
ATOM     28  C   LIG    1       21.091 -31.042  12.933  0.00  0.00    +0.193 C 
ATOM     29  O   LIG    1       20.705 -31.611  13.958  0.00  0.00    -0.292 OA
BRANCH  28  30
ATOM     30  C   LIG    1       21.071 -29.511  12.859  0.00  0.00    +0.233 C 
BRANCH  30  31
ATOM     31  O   LIG    1       19.739 -29.014  12.875  0.00  0.00    -0.387 OA
ATOM     32  H   LIG    1       19.484 -28.894  11.938  0.00  0.00    +0.210 HD
ENDBRANCH  30  31
ENDBRANCH  28  30
ENDBRANCH   4  28
TORSDOF 4
ENDMDL
MODEL 5
REMARK VINA RESULT:      -4.6      2.964      5.127
REMARK  Name = *****
REMARK                            x       y       z     vdW  Elec       q    Type
REMARK                         _______ _______ _______ _____ _____    ______ ____
ROOT
ATOM      1  C   LIG    1       20.410 -27.078  14.459  0.00  0.00    +0.073 C 
ATOM      2  C   LIG    1       20.033 -28.546  14.236  0.00  0.00    +0.166 C 
ATOM      3  O   LIG    1       20.503 -28.933  12.885  0.00  0.00    -0.332 OA
ATOM      4  C   LIG    1       21.204 -30.164  13.113  0.00  0.00    +0.164 C 
ATOM      5  C   LIG    1       21.801 -29.815  14.467  0.00  0.00    +0.162 C 
ATOM      6  C   LIG    1       22.860 -30.873  14.726  0.00  0.00    +0.039 C 
ATOM      7  C   LIG    1       23.608 -30.620  13.399  0.00  0.00    +0.004 C 
ATOM      8  C   LIG    1       24.879 -31.325  12.946  0.00  0.00    -0.000 C 
ATOM      9  C   LIG    1       25.493 -30.487  11.763  0.00  0.00    +0.035 C 
ATOM     10  C   LIG    1       24.417 -30.065  10.683  0.00  0.00    +0.120 C 
ATOM     11  C   LIG    1       22.986 -29.700  11.188  0.00  0.00    +0.042 C 
ATOM     12  C   LIG    1       26.450 -29.281  12.186  0.00  0.00    +0.013 C 
ATOM     13  C   LIG    1       27.260 -29.575  13.471  0.00  0.00    -0.056 C 
ATOM     14  C   LIG    1       28.135 -28.635  13.903  0.00  0.00    +0.051 C 
ATOM     15  C   LIG    1       27.400 -27.343  14.187  0.00  0.00    +0.179 C 
ATOM     16  C   LIG    1       26.186 -27.060  13.364  0.00  0.00    +0.047 C 
ATOM     17  O   LIG    1       27.831 -26.526  14.991  0.00  0.00    -0.288 OA
ATOM     18  C   LIG    1       26.534 -30.321  14.570  0.00  0.00    +0.032 C 
ATOM     19  C   LIG    1       27.439 -29.070  11.000  0.00  0.00    +0.020 C 
ATOM     20  C   LIG    1       25.767 -27.932  12.426  0.00  0.00    -0.012 C 
ATOM     21  C   LIG    1       25.895 -31.590  14.052  0.00  0.00    +0.008 C 
ATOM     22  C   LIG    1       22.481 -30.630  12.299  0.00  0.00    +0.012 C 
ATOM     23  C   LIG    1       22.273 -32.064  11.725  0.00  0.00    +0.015 C 
ATOM     24  O   LIG    1       20.693 -29.402  15.221  0.00  0.00    -0.343 OA
ATOM     25  C   LIG    1       18.522 -28.708  14.375  0.00  0.00    +0.073 C 
ENDROOT
BRANCH  10  26
ATOM     26  O   LIG    1       24.280 -31.124   9.730  0.00  0.00    -0.391 OA
ATOM     27  H   LIG    1       23.571 -30.883   9.109  0.00  0.00    +0.210 HD
ENDBRANCH  10  26
BRANCH   4  28
ATOM     28  C   LIG    1       20.106 -31.262  13.160  0.00  0.00    +0.193 C 
ATOM     29  O   LIG    1       20.082 -32.171  13.996  0.00  0.00    -0.292 OA
BRANCH  28  30
ATOM     30  C   LIG    1       19.027 -31.200  12.073  0.00  0.00    +0.233 C 
BRANCH  30  31
ATOM     31  O   LIG    1       19.489 -30.492  10.931  0.00  0.00    -0.387 OA
ATOM     32  H   LIG    1       20.464 -30.468  11.004  0.00  0.00    +0.210 HD
ENDBRANCH  30  31
ENDBRANCH  28  30
ENDBRANCH   4  28
TORSDOF 4
ENDMDL
MODEL 6
REMARK VINA RESULT:      -4.2      3.007      5.784
REMARK  Name = *****
REMARK                            x       y       z     vdW  Elec       q    Type
REMARK                         _______ _______ _______ _____ _____    ______ ____
ROOT
ATOM      1  C   LIG    1       25.071 -30.637   9.099  0.00  0.00    +0.073 C 
ATOM      2  C   LIG    1       25.962 -30.413  10.324  0.00  0.00    +0.166 C 
ATOM      3  O   LIG    1       25.415 -29.258  11.075  0.00  0.00    -0.332 OA
ATOM      4  C   LIG    1       25.350 -29.737  12.426  0.00  0.00    +0.164 C 
ATOM      5  C   LIG    1       24.970 -31.176  12.119  0.00  0.00    +0.162 C 
ATOM      6  C   LIG    1       24.524 -31.767  13.446  0.00  0.00    +0.039 C 
ATOM      7  C   LIG    1       23.472 -30.670  13.718  0.00  0.00    +0.004 C 
ATOM      8  C   LIG    1       22.540 -30.609  14.920  0.00  0.00    -0.000 C 
ATOM      9  C   LIG    1       21.397 -29.579  14.586  0.00  0.00    +0.035 C 
ATOM     10  C   LIG    1       21.943 -28.231  13.963  0.00  0.00    +0.120 C 
ATOM     11  C   LIG    1       23.168 -28.321  13.001  0.00  0.00    +0.042 C 
ATOM     12  C   LIG    1       20.143 -30.164  13.789  0.00  0.00    +0.013 C 
ATOM     13  C   LIG    1       19.823 -31.632  14.159  0.00  0.00    -0.056 C 
ATOM     14  C   LIG    1       18.754 -32.220  13.570  0.00  0.00    +0.051 C 
ATOM     15  C   LIG    1       18.933 -32.223  12.067  0.00  0.00    +0.179 C 
ATOM     16  C   LIG    1       19.714 -31.095  11.477  0.00  0.00    +0.047 C 
ATOM     17  O   LIG    1       18.388 -33.060  11.360  0.00  0.00    -0.288 OA
ATOM     18  C   LIG    1       21.010 -32.546  14.380  0.00  0.00    +0.032 C 
ATOM     19  C   LIG    1       18.925 -29.268  14.169  0.00  0.00    +0.020 C 
ATOM     20  C   LIG    1       20.243 -30.134  12.260  0.00  0.00    -0.012 C 
ATOM     21  C   LIG    1       21.987 -31.957  15.372  0.00  0.00    +0.008 C 
ATOM     22  C   LIG    1       24.237 -29.315  13.472  0.00  0.00    +0.012 C 
ATOM     23  C   LIG    1       24.889 -28.795  14.789  0.00  0.00    +0.015 C 
ATOM     24  O   LIG    1       25.942 -31.585  11.196  0.00  0.00    -0.343 OA
ATOM     25  C   LIG    1       27.396 -30.160   9.869  0.00  0.00    +0.073 C 
ENDROOT
BRANCH  10  26
ATOM     26  O   LIG    1       22.296 -27.342  15.028  0.00  0.00    -0.391 OA
ATOM     27  H   LIG    1       21.478 -26.957  15.386  0.00  0.00    +0.210 HD
ENDBRANCH  10  26
BRANCH   4  28
ATOM     28  C   LIG    1       26.786 -29.560  12.995  0.00  0.00    +0.193 C 
ATOM     29  O   LIG    1       27.491 -30.500  13.377  0.00  0.00    -0.292 OA
BRANCH  28  30
ATOM     30  C   LIG    1       27.309 -28.124  13.105  0.00  0.00    +0.233 C 
BRANCH  30  31
ATOM     31  O   LIG    1       27.377 -27.503  11.828  0.00  0.00    -0.387 OA
ATOM     32  H   LIG    1       27.904 -28.103  11.263  0.00  0.00    +0.210 HD
ENDBRANCH  30  31
ENDBRANCH  28  30
ENDBRANCH   4  28
TORSDOF 4
ENDMDL
MODEL 7
REMARK VINA RESULT:      -4.2      3.500      6.263
REMARK  Name = *****
REMARK                            x       y       z     vdW  Elec       q    Type
REMARK                         _______ _______ _______ _____ _____    ______ ____
ROOT
ATOM      1  C   LIG    1       24.398 -30.091   8.242  0.00  0.00    +0.073 C 
ATOM      2  C   LIG    1       25.244 -30.075   9.519  0.00  0.00    +0.166 C 
ATOM      3  O   LIG    1       24.569 -29.189  10.496  0.00  0.00    -0.332 OA
ATOM      4  C   LIG    1       24.536 -29.976  11.696  0.00  0.00    +0.164 C 
ATOM      5  C   LIG    1       24.313 -31.333  11.048  0.00  0.00    +0.162 C 
ATOM      6  C   LIG    1       23.912 -32.260  12.183  0.00  0.00    +0.039 C 
ATOM      7  C   LIG    1       22.748 -31.367  12.663  0.00  0.00    +0.004 C 
ATOM      8  C   LIG    1       21.798 -31.683  13.810  0.00  0.00    -0.000 C 
ATOM      9  C   LIG    1       20.558 -30.721  13.681  0.00  0.00    +0.035 C 
ATOM     10  C   LIG    1       20.968 -29.218  13.410  0.00  0.00    +0.120 C 
ATOM     11  C   LIG    1       22.210 -28.957  12.500  0.00  0.00    +0.042 C 
ATOM     12  C   LIG    1       19.383 -31.223  12.722  0.00  0.00    +0.013 C 
ATOM     13  C   LIG    1       19.214 -32.761  12.729  0.00  0.00    -0.056 C 
ATOM     14  C   LIG    1       18.221 -33.296  11.979  0.00  0.00    +0.051 C 
ATOM     15  C   LIG    1       18.420 -32.928  10.525  0.00  0.00    +0.179 C 
ATOM     16  C   LIG    1       19.087 -31.621  10.243  0.00  0.00    +0.047 C 
ATOM     17  O   LIG    1       17.975 -33.625   9.622  0.00  0.00    -0.288 OA
ATOM     18  C   LIG    1       20.487 -33.580  12.776  0.00  0.00    +0.032 C 
ATOM     19  C   LIG    1       18.074 -30.566  13.254  0.00  0.00    +0.020 C 
ATOM     20  C   LIG    1       19.501 -30.825  11.248  0.00  0.00    -0.012 C 
ATOM     21  C   LIG    1       21.384 -33.147  13.914  0.00  0.00    +0.008 C 
ATOM     22  C   LIG    1       23.371 -29.924  12.768  0.00  0.00    +0.012 C 
ATOM     23  C   LIG    1       23.946 -29.667  14.194  0.00  0.00    +0.015 C 
ATOM     24  O   LIG    1       25.335 -31.416  10.093  0.00  0.00    -0.343 OA
ATOM     25  C   LIG    1       26.650 -29.582   9.190  0.00  0.00    +0.073 C 
ENDROOT
BRANCH  10  26
ATOM     26  O   LIG    1       21.212 -28.573  14.665  0.00  0.00    -0.391 OA
ATOM     27  H   LIG    1       21.152 -29.243  15.367  0.00  0.00    +0.210 HD
ENDBRANCH  10  26
BRANCH   4  28
ATOM     28  C   LIG    1       25.937 -29.798  12.344  0.00  0.00    +0.193 C 
ATOM     29  O   LIG    1       26.650 -30.741  12.703  0.00  0.00    -0.292 OA
BRANCH  28  30
ATOM     30  C   LIG    1       26.413 -28.358  12.565  0.00  0.00    +0.233 C 
BRANCH  30  31
ATOM     31  O   LIG    1       27.775 -28.204  12.188  0.00  0.00    -0.387 OA
ATOM     32  H   LIG    1       27.771 -27.644  11.386  0.00  0.00    +0.210 HD
ENDBRANCH  30  31
ENDBRANCH  28  30
ENDBRANCH   4  28
TORSDOF 4
ENDMDL
MODEL 8
REMARK VINA RESULT:      -4.2      2.036      3.415
REMARK  Name = *****
REMARK                            x       y       z     vdW  Elec       q    Type
REMARK                         _______ _______ _______ _____ _____    ______ ____
ROOT
ATOM      1  C   LIG    1       25.809 -27.483   7.135  0.00  0.00    +0.073 C 
ATOM      2  C   LIG    1       25.158 -28.746   6.563  0.00  0.00    +0.166 C 
ATOM      3  O   LIG    1       25.903 -29.916   7.087  0.00  0.00    -0.332 OA
ATOM      4  C   LIG    1       24.867 -30.782   7.573  0.00  0.00    +0.164 C 
ATOM      5  C   LIG    1       23.925 -29.709   8.093  0.00  0.00    +0.162 C 
ATOM      6  C   LIG    1       22.912 -30.445   8.955  0.00  0.00    +0.039 C 
ATOM      7  C   LIG    1       23.979 -31.116   9.846  0.00  0.00    +0.004 C 
ATOM      8  C   LIG    1       23.702 -32.029  11.032  0.00  0.00    -0.000 C 
ATOM      9  C   LIG    1       25.032 -32.145  11.866  0.00  0.00    +0.035 C 
ATOM     10  C   LIG    1       26.304 -32.414  10.966  0.00  0.00    +0.120 C 
ATOM     11  C   LIG    1       26.362 -31.725   9.567  0.00  0.00    +0.042 C 
ATOM     12  C   LIG    1       25.275 -31.000  12.953  0.00  0.00    +0.013 C 
ATOM     13  C   LIG    1       23.964 -30.487  13.593  0.00  0.00    -0.056 C 
ATOM     14  C   LIG    1       24.053 -29.539  14.557  0.00  0.00    +0.051 C 
ATOM     15  C   LIG    1       24.730 -28.305  14.002  0.00  0.00    +0.179 C 
ATOM     16  C   LIG    1       25.740 -28.515  12.922  0.00  0.00    +0.047 C 
ATOM     17  O   LIG    1       24.527 -27.196  14.478  0.00  0.00    -0.288 OA
ATOM     18  C   LIG    1       22.773 -30.344  12.669  0.00  0.00    +0.032 C 
ATOM     19  C   LIG    1       26.168 -31.633  14.063  0.00  0.00    +0.020 C 
ATOM     20  C   LIG    1       26.014 -29.751  12.461  0.00  0.00    -0.012 C 
ATOM     21  C   LIG    1       22.514 -31.617  11.895  0.00  0.00    +0.008 C 
ATOM     22  C   LIG    1       25.015 -31.733   8.832  0.00  0.00    +0.012 C 
ATOM     23  C   LIG    1       24.630 -33.198   8.463  0.00  0.00    +0.015 C 
ATOM     24  O   LIG    1       23.766 -28.849   6.997  0.00  0.00    -0.343 OA
ATOM     25  C   LIG    1       25.196 -28.691   5.039  0.00  0.00    +0.073 C 
ENDROOT
BRANCH  10  26
ATOM     26  O   LIG    1       26.430 -33.825  10.756  0.00  0.00    -0.391 OA
ATOM     27  H   LIG    1       27.376 -34.052  10.782  0.00  0.00    +0.210 HD
ENDBRANCH  10  26
BRANCH   4  28
ATOM     28  C   LIG    1       24.345 -31.543   6.322  0.00  0.00    +0.193 C 
ATOM     29  O   LIG    1       23.148 -31.662   6.044  0.00  0.00    -0.292 OA
BRANCH  28  30
ATOM     30  C   LIG    1       25.403 -32.196   5.425  0.00  0.00    +0.233 C 
BRANCH  30  31
ATOM     31  O   LIG    1       25.028 -32.128   4.056  0.00  0.00    -0.387 OA
ATOM     32  H   LIG    1       25.259 -31.225   3.758  0.00  0.00    +0.210 HD
ENDBRANCH  30  31
ENDBRANCH  28  30
ENDBRANCH   4  28
TORSDOF 4
ENDMDL
MODEL 9
REMARK VINA RESULT:      -4.1      3.093      5.678
REMARK  Name = *****
REMARK                            x       y       z     vdW  Elec       q    Type
REMARK                         _______ _______ _______ _____ _____    ______ ____
ROOT
ATOM      1  C   LIG    1       19.110 -31.048  10.365  0.00  0.00    +0.073 C 
ATOM      2  C   LIG    1       19.506 -31.305  11.822  0.00  0.00    +0.166 C 
ATOM      3  O   LIG    1       20.535 -32.372  11.828  0.00  0.00    -0.332 OA
ATOM      4  C   LIG    1       21.570 -31.835  12.666  0.00  0.00    +0.164 C 
ATOM      5  C   LIG    1       21.444 -30.380  12.244  0.00  0.00    +0.162 C 
ATOM      6  C   LIG    1       22.692 -29.697  12.778  0.00  0.00    +0.039 C 
ATOM      7  C   LIG    1       23.668 -30.678  12.094  0.00  0.00    +0.004 C 
ATOM      8  C   LIG    1       25.187 -30.602  12.144  0.00  0.00    -0.000 C 
ATOM      9  C   LIG    1       25.749 -31.532  11.005  0.00  0.00    +0.035 C 
ATOM     10  C   LIG    1       25.048 -32.949  10.963  0.00  0.00    +0.120 C 
ATOM     11  C   LIG    1       23.524 -33.015  11.292  0.00  0.00    +0.042 C 
ATOM     12  C   LIG    1       25.880 -30.864   9.561  0.00  0.00    +0.013 C 
ATOM     13  C   LIG    1       26.232 -29.359   9.621  0.00  0.00    -0.056 C 
ATOM     14  C   LIG    1       26.405 -28.697   8.451  0.00  0.00    +0.051 C 
ATOM     15  C   LIG    1       25.137 -28.771   7.628  0.00  0.00    +0.179 C 
ATOM     16  C   LIG    1       24.292 -29.991   7.797  0.00  0.00    +0.047 C 
ATOM     17  O   LIG    1       24.864 -27.916   6.796  0.00  0.00    -0.288 OA
ATOM     18  C   LIG    1       25.566 -28.553  10.716  0.00  0.00    +0.032 C 
ATOM     19  C   LIG    1       27.025 -31.625   8.827  0.00  0.00    +0.020 C 
ATOM     20  C   LIG    1       24.645 -30.965   8.659  0.00  0.00    -0.012 C 
ATOM     21  C   LIG    1       25.761 -29.191  12.073  0.00  0.00    +0.008 C 
ATOM     22  C   LIG    1       23.117 -32.107  12.460  0.00  0.00    +0.012 C 
ATOM     23  C   LIG    1       23.762 -32.633  13.778  0.00  0.00    +0.015 C 
ATOM     24  O   LIG    1       20.081 -30.102  12.420  0.00  0.00    -0.343 OA
ATOM     25  C   LIG    1       18.271 -31.710  12.620  0.00  0.00    +0.073 C 
ENDROOT
BRANCH  10  26
ATOM     26  O   LIG    1       25.722 -33.825  11.873  0.00  0.00    -0.391 OA
ATOM     27  H   LIG    1       25.683 -33.429  12.761  0.00  0.00    +0.210 HD
ENDBRANCH  10  26
BRANCH   4  28
ATOM     28  C   LIG    1       21.112 -32.123  14.123  0.00  0.00    +0.193 C 
ATOM     29  O   LIG    1       21.100 -31.271  15.017  0.00  0.00    -0.292 OA
BRANCH  28  30
ATOM     30  C   LIG    1       20.690 -33.562  14.438  0.00  0.00    +0.233 C 
BRANCH  30  31
ATOM     31  O   LIG    1       19.687 -33.595  15.445  0.00  0.00    -0.387 OA
ATOM     32  H   LIG    1       20.031 -34.179  16.150  0.00  0.00    +0.210 HD
ENDBRANCH  30  31
ENDBRANCH  28  30
ENDBRANCH   4  28
TORSDOF 4
ENDMDL
