MODEL 1
REMARK VINA RESULT:      -7.4      0.000      0.000
REMARK  Name = *****
REMARK                            x       y       z     vdW  Elec       q    Type
REMARK                         _______ _______ _______ _____ _____    ______ ____
ROOT
ATOM      1  C   LIG    1       26.855 -21.983   7.990  0.00  0.00    +0.265 C 
ATOM      2  N   LIG    1       26.396 -22.457   6.771  0.00  0.00    -0.307 N 
ATOM      3  H   LIG    1       27.031 -22.314   5.992  0.00  0.00    +0.149 HD
ATOM      4  O   LIG    1       26.192 -22.029   9.020  0.00  0.00    -0.268 OA
ENDROOT
BRANCH   1  12
ATOM      5  C   LIG    1       31.499 -21.313   9.141  0.00  0.00    +0.173 C 
ATOM      6  N   LIG    1       30.264 -21.102   8.425  0.00  0.00    -0.266 N 
ATOM      7  C   LIG    1       30.035 -20.202   7.415  0.00  0.00    +0.069 A 
ATOM      8  C   LIG    1       28.701 -20.392   7.058  0.00  0.00    +0.032 A 
ATOM      9  C   LIG    1       28.160 -19.605   6.020  0.00  0.00    +0.012 A 
ATOM     10  C   LIG    1       28.968 -18.655   5.380  0.00  0.00    +0.001 A 
ATOM     11  C   LIG    1       30.295 -18.480   5.762  0.00  0.00    +0.002 A 
ATOM     12  C   LIG    1       28.217 -21.416   7.932  0.00  0.00    +0.155 A 
ATOM     13  C   LIG    1       30.856 -19.249   6.788  0.00  0.00    +0.028 A 
ATOM     14  N   LIG    1       29.188 -21.839   8.770  0.00  0.00    -0.166 NA
ENDBRANCH   1  12
BRANCH   2  15
ATOM     15  C   LIG    1       25.081 -23.065   6.597  0.00  0.00    +0.076 C 
ATOM     16  C   LIG    1       24.707 -23.297   5.123  0.00  0.00    +0.041 C 
ATOM     17  C   LIG    1       23.776 -22.250   4.484  0.00  0.00    +0.058 C 
ATOM     18  N   LIG    1       22.636 -22.047   5.387  0.00  0.00    -0.299 NA
ATOM     19  C   LIG    1       23.087 -21.377   6.612  0.00  0.00    +0.058 C 
ATOM     20  C   LIG    1       23.745 -20.013   6.349  0.00  0.00    +0.019 C 
ATOM     21  C   LIG    1       24.808 -20.015   5.256  0.00  0.00    +0.003 C 
ATOM     22  C   LIG    1       21.504 -21.383   4.745  0.00  0.00    +0.105 C 
ATOM     23  C   LIG    1       24.480 -20.941   4.091  0.00  0.00    +0.019 C 
ATOM     24  C   LIG    1       23.981 -22.352   7.400  0.00  0.00    +0.041 C 
ENDBRANCH   2  15
TORSDOF 2
ENDMDL
MODEL 2
REMARK VINA RESULT:      -7.0      2.582      3.872
REMARK  Name = *****
REMARK                            x       y       z     vdW  Elec       q    Type
REMARK                         _______ _______ _______ _____ _____    ______ ____
ROOT
ATOM      1  C   LIG    1       25.900 -22.170   6.623  0.00  0.00    +0.265 C 
ATOM      2  N   LIG    1       25.954 -23.419   6.021  0.00  0.00    -0.307 N 
ATOM      3  H   LIG    1       26.893 -23.765   5.844  0.00  0.00    +0.149 HD
ATOM      4  O   LIG    1       24.850 -21.585   6.859  0.00  0.00    -0.268 OA
ENDROOT
BRANCH   1  12
ATOM      5  C   LIG    1       30.157 -21.715   8.862  0.00  0.00    +0.173 C 
ATOM      6  N   LIG    1       29.106 -21.391   7.927  0.00  0.00    -0.266 N 
ATOM      7  C   LIG    1       29.083 -20.350   7.034  0.00  0.00    +0.069 A 
ATOM      8  C   LIG    1       27.867 -20.474   6.366  0.00  0.00    +0.032 A 
ATOM      9  C   LIG    1       27.549 -19.538   5.359  0.00  0.00    +0.012 A 
ATOM     10  C   LIG    1       28.454 -18.511   5.061  0.00  0.00    +0.001 A 
ATOM     11  C   LIG    1       29.659 -18.405   5.749  0.00  0.00    +0.002 A 
ATOM     12  C   LIG    1       27.227 -21.612   6.951  0.00  0.00    +0.155 A 
ATOM     13  C   LIG    1       29.998 -19.321   6.751  0.00  0.00    +0.028 A 
ATOM     14  N   LIG    1       28.000 -22.162   7.913  0.00  0.00    -0.166 NA
ENDBRANCH   1  12
BRANCH   2  15
ATOM     15  C   LIG    1       24.765 -24.160   5.617  0.00  0.00    +0.076 C 
ATOM     16  C   LIG    1       24.161 -25.008   6.751  0.00  0.00    +0.041 C 
ATOM     17  C   LIG    1       24.512 -26.506   6.740  0.00  0.00    +0.058 C 
ATOM     18  N   LIG    1       24.268 -27.020   5.386  0.00  0.00    -0.299 NA
ATOM     19  C   LIG    1       25.248 -26.450   4.456  0.00  0.00    +0.058 C 
ATOM     20  C   LIG    1       26.702 -26.768   4.838  0.00  0.00    +0.019 C 
ATOM     21  C   LIG    1       27.054 -26.500   6.298  0.00  0.00    +0.003 C 
ATOM     22  C   LIG    1       24.191 -28.477   5.328  0.00  0.00    +0.105 C 
ATOM     23  C   LIG    1       25.922 -26.825   7.265  0.00  0.00    +0.019 C 
ATOM     24  C   LIG    1       24.963 -24.944   4.310  0.00  0.00    +0.041 C 
ENDBRANCH   2  15
TORSDOF 2
ENDMDL
MODEL 3
REMARK VINA RESULT:      -6.5      7.779     10.128
REMARK  Name = *****
REMARK                            x       y       z     vdW  Elec       q    Type
REMARK                         _______ _______ _______ _____ _____    ______ ____
ROOT
ATOM      1  C   LIG    1       26.126 -29.192   9.677  0.00  0.00    +0.265 C 
ATOM      2  N   LIG    1       25.176 -29.394  10.667  0.00  0.00    -0.307 N 
ATOM      3  H   LIG    1       24.230 -29.536  10.326  0.00  0.00    +0.149 HD
ATOM      4  O   LIG    1       27.304 -28.954   9.916  0.00  0.00    -0.268 OA
ENDROOT
BRANCH   1  12
ATOM      5  C   LIG    1       24.017 -31.169   5.806  0.00  0.00    +0.173 C 
ATOM      6  N   LIG    1       24.661 -30.141   6.588  0.00  0.00    -0.266 N 
ATOM      7  C   LIG    1       24.978 -28.868   6.185  0.00  0.00    +0.069 A 
ATOM      8  C   LIG    1       25.574 -28.276   7.296  0.00  0.00    +0.032 A 
ATOM      9  C   LIG    1       26.008 -26.937   7.197  0.00  0.00    +0.012 A 
ATOM     10  C   LIG    1       25.836 -26.242   5.993  0.00  0.00    +0.001 A 
ATOM     11  C   LIG    1       25.244 -26.861   4.895  0.00  0.00    +0.002 A 
ATOM     12  C   LIG    1       25.584 -29.289   8.306  0.00  0.00    +0.155 A 
ATOM     13  C   LIG    1       24.804 -28.187   4.969  0.00  0.00    +0.028 A 
ATOM     14  N   LIG    1       25.024 -30.432   7.854  0.00  0.00    -0.166 NA
ENDBRANCH   1  12
BRANCH   2  15
ATOM     15  C   LIG    1       25.489 -29.351  12.091  0.00  0.00    +0.076 C 
ATOM     16  C   LIG    1       25.067 -30.622  12.847  0.00  0.00    +0.041 C 
ATOM     17  C   LIG    1       23.742 -30.542  13.626  0.00  0.00    +0.058 C 
ATOM     18  N   LIG    1       23.767 -29.319  14.438  0.00  0.00    -0.299 NA
ATOM     19  C   LIG    1       23.703 -28.143  13.565  0.00  0.00    +0.058 C 
ATOM     20  C   LIG    1       22.444 -28.111  12.684  0.00  0.00    +0.019 C 
ATOM     21  C   LIG    1       22.150 -29.410  11.940  0.00  0.00    +0.003 C 
ATOM     22  C   LIG    1       22.763 -29.311  15.499  0.00  0.00    +0.105 C 
ATOM     23  C   LIG    1       22.488 -30.659  12.745  0.00  0.00    +0.019 C 
ATOM     24  C   LIG    1       25.018 -28.054  12.769  0.00  0.00    +0.041 C 
ENDBRANCH   2  15
TORSDOF 2
ENDMDL
MODEL 4
REMARK VINA RESULT:      -6.4      8.080     10.822
REMARK  Name = *****
REMARK                            x       y       z     vdW  Elec       q    Type
REMARK                         _______ _______ _______ _____ _____    ______ ____
ROOT
ATOM      1  C   LIG    1       23.565 -30.345   9.949  0.00  0.00    +0.265 C 
ATOM      2  N   LIG    1       24.720 -30.213  10.705  0.00  0.00    -0.307 N 
ATOM      3  H   LIG    1       25.585 -30.315  10.183  0.00  0.00    +0.149 HD
ATOM      4  O   LIG    1       22.440 -30.300  10.431  0.00  0.00    -0.268 OA
ENDROOT
BRANCH   1  12
ATOM      5  C   LIG    1       23.682 -32.594   5.675  0.00  0.00    +0.173 C 
ATOM      6  N   LIG    1       23.883 -31.518   6.617  0.00  0.00    -0.266 N 
ATOM      7  C   LIG    1       24.444 -30.292   6.366  0.00  0.00    +0.069 A 
ATOM      8  C   LIG    1       24.404 -29.621   7.587  0.00  0.00    +0.032 A 
ATOM      9  C   LIG    1       24.909 -28.305   7.652  0.00  0.00    +0.012 A 
ATOM     10  C   LIG    1       25.439 -27.710   6.500  0.00  0.00    +0.001 A 
ATOM     11  C   LIG    1       25.474 -28.406   5.294  0.00  0.00    +0.002 A 
ATOM     12  C   LIG    1       23.819 -30.545   8.508  0.00  0.00    +0.155 A 
ATOM     13  C   LIG    1       24.978 -29.711   5.203  0.00  0.00    +0.028 A 
ATOM     14  N   LIG    1       23.508 -31.709   7.898  0.00  0.00    -0.166 NA
ENDBRANCH   1  12
BRANCH   2  15
ATOM     15  C   LIG    1       24.707 -30.000  12.149  0.00  0.00    +0.076 C 
ATOM     16  C   LIG    1       24.549 -28.522  12.546  0.00  0.00    +0.041 C 
ATOM     17  C   LIG    1       25.841 -27.781  12.932  0.00  0.00    +0.058 C 
ATOM     18  N   LIG    1       26.566 -28.609  13.904  0.00  0.00    -0.299 NA
ATOM     19  C   LIG    1       27.070 -29.819  13.247  0.00  0.00    +0.058 C 
ATOM     20  C   LIG    1       28.012 -29.520  12.069  0.00  0.00    +0.019 C 
ATOM     21  C   LIG    1       27.489 -28.487  11.076  0.00  0.00    +0.003 C 
ATOM     22  C   LIG    1       27.595 -27.872  14.634  0.00  0.00    +0.105 C 
ATOM     23  C   LIG    1       26.705 -27.357  11.732  0.00  0.00    +0.019 C 
ATOM     24  C   LIG    1       25.869 -30.704  12.868  0.00  0.00    +0.041 C 
ENDBRANCH   2  15
TORSDOF 2
ENDMDL
MODEL 5
REMARK VINA RESULT:      -6.3      1.708      2.814
REMARK  Name = *****
REMARK                            x       y       z     vdW  Elec       q    Type
REMARK                         _______ _______ _______ _____ _____    ______ ____
ROOT
ATOM      1  C   LIG    1       27.302 -20.253   7.985  0.00  0.00    +0.265 C 
ATOM      2  N   LIG    1       26.963 -20.449   6.655  0.00  0.00    -0.307 N 
ATOM      3  H   LIG    1       27.753 -20.574   6.029  0.00  0.00    +0.149 HD
ATOM      4  O   LIG    1       26.474 -20.035   8.862  0.00  0.00    -0.268 OA
ENDROOT
BRANCH   1  12
ATOM      5  C   LIG    1       31.647 -22.249   8.674  0.00  0.00    +0.173 C 
ATOM      6  N   LIG    1       30.676 -21.188   8.556  0.00  0.00    -0.266 N 
ATOM      7  C   LIG    1       30.899 -19.842   8.696  0.00  0.00    +0.069 A 
ATOM      8  C   LIG    1       29.657 -19.246   8.484  0.00  0.00    +0.032 A 
ATOM      9  C   LIG    1       29.560 -17.840   8.554  0.00  0.00    +0.012 A 
ATOM     10  C   LIG    1       30.704 -17.082   8.836  0.00  0.00    +0.001 A 
ATOM     11  C   LIG    1       31.932 -17.703   9.051  0.00  0.00    +0.002 A 
ATOM     12  C   LIG    1       28.753 -20.329   8.246  0.00  0.00    +0.155 A 
ATOM     13  C   LIG    1       32.054 -19.095   8.987  0.00  0.00    +0.028 A 
ATOM     14  N   LIG    1       29.394 -21.517   8.297  0.00  0.00    -0.166 NA
ENDBRANCH   1  12
BRANCH   2  15
ATOM     15  C   LIG    1       25.587 -20.424   6.171  0.00  0.00    +0.076 C 
ATOM     16  C   LIG    1       24.543 -20.516   7.297  0.00  0.00    +0.041 C 
ATOM     17  C   LIG    1       23.925 -21.905   7.539  0.00  0.00    +0.058 C 
ATOM     18  N   LIG    1       23.486 -22.437   6.244  0.00  0.00    -0.299 NA
ATOM     19  C   LIG    1       24.654 -22.742   5.411  0.00  0.00    +0.058 C 
ATOM     20  C   LIG    1       25.607 -23.763   6.056  0.00  0.00    +0.019 C 
ATOM     21  C   LIG    1       25.980 -23.465   7.504  0.00  0.00    +0.003 C 
ATOM     22  C   LIG    1       22.553 -23.555   6.366  0.00  0.00    +0.105 C 
ATOM     23  C   LIG    1       24.835 -22.870   8.316  0.00  0.00    +0.019 C 
ATOM     24  C   LIG    1       25.337 -21.418   5.025  0.00  0.00    +0.041 C 
ENDBRANCH   2  15
TORSDOF 2
ENDMDL
MODEL 6
REMARK VINA RESULT:      -6.2      8.910     10.459
REMARK  Name = *****
REMARK                            x       y       z     vdW  Elec       q    Type
REMARK                         _______ _______ _______ _____ _____    ______ ____
ROOT
ATOM      1  C   LIG    1       26.597 -29.715  12.211  0.00  0.00    +0.265 C 
ATOM      2  N   LIG    1       26.060 -30.051  10.977  0.00  0.00    -0.307 N 
ATOM      3  H   LIG    1       25.395 -29.379  10.605  0.00  0.00    +0.149 HD
ATOM      4  O   LIG    1       27.374 -30.439  12.823  0.00  0.00    -0.268 OA
ENDROOT
BRANCH   1  12
ATOM      5  C   LIG    1       26.906 -25.226  13.969  0.00  0.00    +0.173 C 
ATOM      6  N   LIG    1       26.259 -26.426  13.496  0.00  0.00    -0.266 N 
ATOM      7  C   LIG    1       24.910 -26.665  13.419  0.00  0.00    +0.069 A 
ATOM      8  C   LIG    1       24.800 -27.952  12.898  0.00  0.00    +0.032 A 
ATOM      9  C   LIG    1       23.513 -28.490  12.688  0.00  0.00    +0.012 A 
ATOM     10  C   LIG    1       22.384 -27.725  13.010  0.00  0.00    +0.001 A 
ATOM     11  C   LIG    1       22.522 -26.444  13.537  0.00  0.00    +0.002 A 
ATOM     12  C   LIG    1       26.145 -28.404  12.718  0.00  0.00    +0.155 A 
ATOM     13  C   LIG    1       23.787 -25.888  13.753  0.00  0.00    +0.028 A 
ATOM     14  N   LIG    1       27.031 -27.457  13.095  0.00  0.00    -0.166 NA
ENDBRANCH   1  12
BRANCH   2  15
ATOM     15  C   LIG    1       26.373 -31.296  10.285  0.00  0.00    +0.076 C 
ATOM     16  C   LIG    1       26.712 -31.098   8.797  0.00  0.00    +0.041 C 
ATOM     17  C   LIG    1       25.577 -31.387   7.797  0.00  0.00    +0.058 C 
ATOM     18  N   LIG    1       25.002 -32.696   8.131  0.00  0.00    -0.299 NA
ATOM     19  C   LIG    1       24.293 -32.613   9.412  0.00  0.00    +0.058 C 
ATOM     20  C   LIG    1       23.160 -31.573   9.411  0.00  0.00    +0.019 C 
ATOM     21  C   LIG    1       23.550 -30.203   8.866  0.00  0.00    +0.003 C 
ATOM     22  C   LIG    1       24.192 -33.261   7.054  0.00  0.00    +0.105 C 
ATOM     23  C   LIG    1       24.527 -30.269   7.698  0.00  0.00    +0.019 C 
ATOM     24  C   LIG    1       25.329 -32.397  10.530  0.00  0.00    +0.041 C 
ENDBRANCH   2  15
TORSDOF 2
ENDMDL
MODEL 7
REMARK VINA RESULT:      -6.2      9.687     11.126
REMARK  Name = *****
REMARK                            x       y       z     vdW  Elec       q    Type
REMARK                         _______ _______ _______ _____ _____    ______ ____
ROOT
ATOM      1  C   LIG    1       22.615 -30.590  11.809  0.00  0.00    +0.265 C 
ATOM      2  N   LIG    1       23.427 -30.584  10.686  0.00  0.00    -0.307 N 
ATOM      3  H   LIG    1       23.697 -29.661  10.360  0.00  0.00    +0.149 HD
ATOM      4  O   LIG    1       22.158 -31.615  12.301  0.00  0.00    -0.268 OA
ENDROOT
BRANCH   1  12
ATOM      5  C   LIG    1       20.070 -26.764  13.302  0.00  0.00    +0.173 C 
ATOM      6  N   LIG    1       21.249 -27.546  13.016  0.00  0.00    -0.266 N 
ATOM      7  C   LIG    1       22.556 -27.168  13.188  0.00  0.00    +0.069 A 
ATOM      8  C   LIG    1       23.307 -28.268  12.777  0.00  0.00    +0.032 A 
ATOM      9  C   LIG    1       24.714 -28.190  12.845  0.00  0.00    +0.012 A 
ATOM     10  C   LIG    1       25.319 -27.017  13.317  0.00  0.00    +0.001 A 
ATOM     11  C   LIG    1       24.545 -25.930  13.714  0.00  0.00    +0.002 A 
ATOM     12  C   LIG    1       22.350 -29.244  12.357  0.00  0.00    +0.155 A 
ATOM     13  C   LIG    1       23.148 -25.983  13.657  0.00  0.00    +0.028 A 
ATOM     14  N   LIG    1       21.089 -28.784  12.505  0.00  0.00    -0.166 NA
ENDBRANCH   1  12
BRANCH   2  15
ATOM     15  C   LIG    1       23.824 -31.800   9.984  0.00  0.00    +0.076 C 
ATOM     16  C   LIG    1       25.239 -32.281  10.350  0.00  0.00    +0.041 C 
ATOM     17  C   LIG    1       26.359 -31.917   9.359  0.00  0.00    +0.058 C 
ATOM     18  N   LIG    1       25.909 -32.288   8.011  0.00  0.00    -0.299 NA
ATOM     19  C   LIG    1       24.810 -31.410   7.596  0.00  0.00    +0.058 C 
ATOM     20  C   LIG    1       25.195 -29.922   7.585  0.00  0.00    +0.019 C 
ATOM     21  C   LIG    1       25.893 -29.431   8.849  0.00  0.00    +0.003 C 
ATOM     22  C   LIG    1       26.997 -32.356   7.038  0.00  0.00    +0.105 C 
ATOM     23  C   LIG    1       26.838 -30.460   9.459  0.00  0.00    +0.019 C 
ATOM     24  C   LIG    1       23.580 -31.723   8.468  0.00  0.00    +0.041 C 
ENDBRANCH   2  15
TORSDOF 2
ENDMDL
MODEL 8
REMARK VINA RESULT:      -6.1      1.522      2.470
REMARK  Name = *****
REMARK                            x       y       z     vdW  Elec       q    Type
REMARK                         _______ _______ _______ _____ _____    ______ ____
ROOT
ATOM      1  C   LIG    1       26.850 -21.448   6.958  0.00  0.00    +0.265 C 
ATOM      2  N   LIG    1       25.675 -20.748   6.730  0.00  0.00    -0.307 N 
ATOM      3  H   LIG    1       25.799 -19.759   6.535  0.00  0.00    +0.149 HD
ATOM      4  O   LIG    1       26.875 -22.636   7.257  0.00  0.00    -0.268 OA
ENDROOT
BRANCH   1  12
ATOM      5  C   LIG    1       29.794 -18.057   5.176  0.00  0.00    +0.173 C 
ATOM      6  N   LIG    1       29.383 -19.142   6.034  0.00  0.00    -0.266 N 
ATOM      7  C   LIG    1       30.126 -19.751   7.013  0.00  0.00    +0.069 A 
ATOM      8  C   LIG    1       29.286 -20.724   7.551  0.00  0.00    +0.032 A 
ATOM      9  C   LIG    1       29.769 -21.528   8.606  0.00  0.00    +0.012 A 
ATOM     10  C   LIG    1       31.073 -21.333   9.080  0.00  0.00    +0.001 A 
ATOM     11  C   LIG    1       31.895 -20.359   8.520  0.00  0.00    +0.002 A 
ATOM     12  C   LIG    1       28.068 -20.627   6.806  0.00  0.00    +0.155 A 
ATOM     13  C   LIG    1       31.438 -19.549   7.474  0.00  0.00    +0.028 A 
ATOM     14  N   LIG    1       28.145 -19.653   5.874  0.00  0.00    -0.166 NA
ENDBRANCH   1  12
BRANCH   2  15
ATOM     15  C   LIG    1       24.354 -21.360   6.817  0.00  0.00    +0.076 C 
ATOM     16  C   LIG    1       24.074 -22.370   5.690  0.00  0.00    +0.041 C 
ATOM     17  C   LIG    1       23.229 -21.855   4.511  0.00  0.00    +0.058 C 
ATOM     18  N   LIG    1       22.038 -21.195   5.061  0.00  0.00    -0.299 NA
ATOM     19  C   LIG    1       22.428 -19.958   5.745  0.00  0.00    +0.058 C 
ATOM     20  C   LIG    1       23.152 -18.961   4.827  0.00  0.00    +0.019 C 
ATOM     21  C   LIG    1       24.288 -19.558   4.002  0.00  0.00    +0.003 C 
ATOM     22  C   LIG    1       20.978 -21.003   4.073  0.00  0.00    +0.105 C 
ATOM     23  C   LIG    1       24.006 -20.975   3.518  0.00  0.00    +0.019 C 
ATOM     24  C   LIG    1       23.228 -20.331   7.007  0.00  0.00    +0.041 C 
ENDBRANCH   2  15
TORSDOF 2
ENDMDL
MODEL 9
REMARK VINA RESULT:      -6.1      1.823      2.555
REMARK  Name = *****
REMARK                            x       y       z     vdW  Elec       q    Type
REMARK                         _______ _______ _______ _____ _____    ______ ____
ROOT
ATOM      1  C   LIG    1       27.402 -20.643   8.195  0.00  0.00    +0.265 C 
ATOM      2  N   LIG    1       27.214 -21.852   7.542  0.00  0.00    -0.307 N 
ATOM      3  H   LIG    1       27.860 -22.028   6.778  0.00  0.00    +0.149 HD
ATOM      4  O   LIG    1       26.678 -20.253   9.103  0.00  0.00    -0.268 OA
ENDROOT
BRANCH   1  12
ATOM      5  C   LIG    1       30.497 -18.745   5.009  0.00  0.00    +0.173 C 
ATOM      6  N   LIG    1       29.933 -19.027   6.307  0.00  0.00    -0.266 N 
ATOM      7  C   LIG    1       30.407 -18.609   7.525  0.00  0.00    +0.069 A 
ATOM      8  C   LIG    1       29.515 -19.135   8.458  0.00  0.00    +0.032 A 
ATOM      9  C   LIG    1       29.731 -18.867   9.826  0.00  0.00    +0.012 A 
ATOM     10  C   LIG    1       30.831 -18.089  10.212  0.00  0.00    +0.001 A 
ATOM     11  C   LIG    1       31.711 -17.582   9.259  0.00  0.00    +0.002 A 
ATOM     12  C   LIG    1       28.555 -19.870   7.693  0.00  0.00    +0.155 A 
ATOM     13  C   LIG    1       31.517 -17.833   7.896  0.00  0.00    +0.028 A 
ATOM     14  N   LIG    1       28.828 -19.798   6.372  0.00  0.00    -0.166 NA
ENDBRANCH   1  12
BRANCH   2  15
ATOM     15  C   LIG    1       26.140 -22.780   7.878  0.00  0.00    +0.076 C 
ATOM     16  C   LIG    1       25.758 -23.716   6.718  0.00  0.00    +0.041 C 
ATOM     17  C   LIG    1       24.512 -23.320   5.907  0.00  0.00    +0.058 C 
ATOM     18  N   LIG    1       23.426 -23.034   6.854  0.00  0.00    -0.299 NA
ATOM     19  C   LIG    1       23.731 -21.810   7.601  0.00  0.00    +0.058 C 
ATOM     20  C   LIG    1       23.920 -20.580   6.698  0.00  0.00    +0.019 C 
ATOM     21  C   LIG    1       24.858 -20.794   5.514  0.00  0.00    +0.003 C 
ATOM     22  C   LIG    1       22.105 -23.021   6.230  0.00  0.00    +0.105 C 
ATOM     23  C   LIG    1       24.753 -22.184   4.899  0.00  0.00    +0.019 C 
ATOM     24  C   LIG    1       24.930 -22.087   8.525  0.00  0.00    +0.041 C 
ENDBRANCH   2  15
TORSDOF 2
ENDMDL
