MODEL 1
REMARK VINA RESULT:      -4.3      0.000      0.000
REMARK  Name = *****
REMARK                            x       y       z     vdW  Elec       q    Type
REMARK                         _______ _______ _______ _____ _____    ______ ____
ROOT
ATOM      1  C   LIG    1       26.077 -17.741   3.516  0.00  0.00    +0.317 C 
ATOM      2  O   LIG    1       25.045 -18.136   2.980  0.00  0.00    -0.250 OA
ENDROOT
BRANCH   1   3
ATOM      3  O   LIG    1       26.457 -16.429   3.602  0.00  0.00    -0.461 OA
BRANCH   3   8
ATOM      4  C   LIG    1       24.615 -12.169   2.613  0.00  0.00    +0.105 C 
ATOM      5  N   LIG    1       25.648 -12.586   3.544  0.00  0.00    -0.299 NA
ATOM      6  C   LIG    1       26.812 -13.245   2.944  0.00  0.00    +0.060 C 
ATOM      7  C   LIG    1       26.409 -14.490   2.140  0.00  0.00    +0.063 C 
ATOM      8  C   LIG    1       25.569 -15.493   2.952  0.00  0.00    +0.179 C 
ATOM      9  C   LIG    1       24.674 -14.842   4.021  0.00  0.00    +0.063 C 
ATOM     10  C   LIG    1       27.616 -13.599   4.203  0.00  0.00    +0.020 C 
ATOM     11  C   LIG    1       26.565 -13.743   5.307  0.00  0.00    +0.020 C 
ATOM     12  C   LIG    1       25.230 -13.525   4.591  0.00  0.00    +0.060 C 
ENDBRANCH   3   8
ENDBRANCH   1   3
BRANCH   1  13
ATOM     13  C   LIG    1       27.126 -18.635   4.153  0.00  0.00    +0.153 C 
BRANCH  13  14
ATOM     14  C   LIG    1       26.501 -19.681   5.066  0.00  0.00    -0.032 A 
ATOM     15  C   LIG    1       27.166 -20.146   6.214  0.00  0.00    +0.004 A 
ATOM     16  C   LIG    1       26.566 -21.080   7.061  0.00  0.00    +0.000 A 
ATOM     17  C   LIG    1       25.296 -21.571   6.771  0.00  0.00    +0.000 A 
ATOM     18  C   LIG    1       24.628 -21.131   5.631  0.00  0.00    +0.000 A 
ATOM     19  C   LIG    1       25.225 -20.193   4.784  0.00  0.00    +0.004 A 
ENDBRANCH  13  14
BRANCH  13  20
ATOM     20  C   LIG    1       28.142 -17.745   4.874  0.00  0.00    +0.175 C 
BRANCH  20  21
ATOM     21  O   LIG    1       29.472 -18.250   4.739  0.00  0.00    -0.394 OA
ATOM     22  H   LIG    1       29.940 -17.721   4.071  0.00  0.00    +0.209 HD
ENDBRANCH  20  21
ENDBRANCH  13  20
ENDBRANCH   1  13
TORSDOF 6
ENDMDL
MODEL 2
REMARK VINA RESULT:      -4.1      2.608      6.579
REMARK  Name = *****
REMARK                            x       y       z     vdW  Elec       q    Type
REMARK                         _______ _______ _______ _____ _____    ______ ____
ROOT
ATOM      1  C   LIG    1       25.770 -17.764   3.396  0.00  0.00    +0.317 C 
ATOM      2  O   LIG    1       25.875 -17.976   2.191  0.00  0.00    -0.250 OA
ENDROOT
BRANCH   1   3
ATOM      3  O   LIG    1       25.150 -18.602   4.283  0.00  0.00    -0.461 OA
BRANCH   3   8
ATOM      4  C   LIG    1       21.259 -21.314   4.469  0.00  0.00    +0.105 C 
ATOM      5  N   LIG    1       22.478 -21.309   5.261  0.00  0.00    -0.299 NA
ATOM      6  C   LIG    1       22.762 -20.061   5.976  0.00  0.00    +0.060 C 
ATOM      7  C   LIG    1       22.850 -18.864   5.017  0.00  0.00    +0.063 C 
ATOM      8  C   LIG    1       23.851 -19.078   3.867  0.00  0.00    +0.179 C 
ATOM      9  C   LIG    1       23.985 -20.543   3.416  0.00  0.00    +0.063 C 
ATOM     10  C   LIG    1       24.119 -20.401   6.609  0.00  0.00    +0.020 C 
ATOM     11  C   LIG    1       24.736 -21.439   5.668  0.00  0.00    +0.020 C 
ATOM     12  C   LIG    1       23.722 -21.572   4.529  0.00  0.00    +0.060 C 
ENDBRANCH   3   8
ENDBRANCH   1   3
BRANCH   1  13
ATOM     13  C   LIG    1       26.282 -16.527   4.111  0.00  0.00    +0.153 C 
BRANCH  13  14
ATOM     14  C   LIG    1       25.661 -15.252   3.556  0.00  0.00    -0.032 A 
ATOM     15  C   LIG    1       24.375 -14.834   3.937  0.00  0.00    +0.004 A 
ATOM     16  C   LIG    1       23.832 -13.644   3.446  0.00  0.00    +0.000 A 
ATOM     17  C   LIG    1       24.562 -12.858   2.559  0.00  0.00    +0.000 A 
ATOM     18  C   LIG    1       25.834 -13.264   2.160  0.00  0.00    +0.000 A 
ATOM     19  C   LIG    1       26.380 -14.452   2.654  0.00  0.00    +0.004 A 
ENDBRANCH  13  14
BRANCH  13  20
ATOM     20  C   LIG    1       27.812 -16.526   4.035  0.00  0.00    +0.175 C 
BRANCH  20  21
ATOM     21  O   LIG    1       28.357 -17.791   4.416  0.00  0.00    -0.394 OA
ATOM     22  H   LIG    1       27.839 -18.142   5.160  0.00  0.00    +0.209 HD
ENDBRANCH  20  21
ENDBRANCH  13  20
ENDBRANCH   1  13
TORSDOF 6
ENDMDL
MODEL 3
REMARK VINA RESULT:      -4.0      1.734      2.428
REMARK  Name = *****
REMARK                            x       y       z     vdW  Elec       q    Type
REMARK                         _______ _______ _______ _____ _____    ______ ____
ROOT
ATOM      1  C   LIG    1       23.313 -17.267   4.195  0.00  0.00    +0.317 C 
ATOM      2  O   LIG    1       22.154 -17.225   4.599  0.00  0.00    -0.250 OA
ENDROOT
BRANCH   1   3
ATOM      3  O   LIG    1       24.131 -16.178   4.061  0.00  0.00    -0.461 OA
BRANCH   3   8
ATOM      4  C   LIG    1       23.770 -11.447   3.967  0.00  0.00    +0.105 C 
ATOM      5  N   LIG    1       24.880 -12.341   3.686  0.00  0.00    -0.299 NA
ATOM      6  C   LIG    1       24.660 -13.300   2.600  0.00  0.00    +0.060 C 
ATOM      7  C   LIG    1       23.431 -14.185   2.863  0.00  0.00    +0.063 C 
ATOM      8  C   LIG    1       23.478 -14.900   4.225  0.00  0.00    +0.179 C 
ATOM      9  C   LIG    1       24.211 -14.111   5.324  0.00  0.00    +0.063 C 
ATOM     10  C   LIG    1       25.972 -14.095   2.654  0.00  0.00    +0.020 C 
ATOM     11  C   LIG    1       26.434 -13.981   4.109  0.00  0.00    +0.020 C 
ATOM     12  C   LIG    1       25.324 -13.186   4.800  0.00  0.00    +0.060 C 
ENDBRANCH   3   8
ENDBRANCH   1   3
BRANCH   1  13
ATOM     13  C   LIG    1       24.034 -18.525   3.745  0.00  0.00    +0.153 C 
BRANCH  13  14
ATOM     14  C   LIG    1       24.015 -19.605   4.818  0.00  0.00    -0.032 A 
ATOM     15  C   LIG    1       25.199 -20.064   5.422  0.00  0.00    +0.004 A 
ATOM     16  C   LIG    1       25.162 -21.030   6.429  0.00  0.00    +0.000 A 
ATOM     17  C   LIG    1       23.944 -21.560   6.845  0.00  0.00    +0.000 A 
ATOM     18  C   LIG    1       22.762 -21.126   6.250  0.00  0.00    +0.000 A 
ATOM     19  C   LIG    1       22.796 -20.156   5.244  0.00  0.00    +0.004 A 
ENDBRANCH  13  14
BRANCH  13  20
ATOM     20  C   LIG    1       25.452 -18.139   3.314  0.00  0.00    +0.175 C 
BRANCH  20  21
ATOM     21  O   LIG    1       25.890 -18.911   2.195  0.00  0.00    -0.394 OA
ATOM     22  H   LIG    1       26.541 -18.391   1.694  0.00  0.00    +0.209 HD
ENDBRANCH  20  21
ENDBRANCH  13  20
ENDBRANCH   1  13
TORSDOF 6
ENDMDL
MODEL 4
REMARK VINA RESULT:      -3.8      1.501      2.836
REMARK  Name = *****
REMARK                            x       y       z     vdW  Elec       q    Type
REMARK                         _______ _______ _______ _____ _____    ______ ____
ROOT
ATOM      1  C   LIG    1       25.977 -17.938   3.653  0.00  0.00    +0.317 C 
ATOM      2  O   LIG    1       27.074 -18.349   4.023  0.00  0.00    -0.250 OA
ENDROOT
BRANCH   1   3
ATOM      3  O   LIG    1       25.696 -16.633   3.352  0.00  0.00    -0.461 OA
BRANCH   3   8
ATOM      4  C   LIG    1       28.090 -12.540   3.549  0.00  0.00    +0.105 C 
ATOM      5  N   LIG    1       26.689 -12.857   3.773  0.00  0.00    -0.299 NA
ATOM      6  C   LIG    1       26.423 -13.817   4.848  0.00  0.00    +0.060 C 
ATOM      7  C   LIG    1       27.148 -15.151   4.613  0.00  0.00    +0.063 C 
ATOM      8  C   LIG    1       26.849 -15.771   3.236  0.00  0.00    +0.179 C 
ATOM      9  C   LIG    1       26.582 -14.739   2.126  0.00  0.00    +0.063 C 
ATOM     10  C   LIG    1       24.898 -13.956   4.732  0.00  0.00    +0.020 C 
ATOM     11  C   LIG    1       24.592 -13.649   3.263  0.00  0.00    +0.020 C 
ATOM     12  C   LIG    1       25.966 -13.421   2.628  0.00  0.00    +0.060 C 
ENDBRANCH   3   8
ENDBRANCH   1   3
BRANCH   1  13
ATOM     13  C   LIG    1       24.735 -18.795   3.493  0.00  0.00    +0.153 C 
BRANCH  13  14
ATOM     14  C   LIG    1       24.425 -19.588   4.756  0.00  0.00    -0.032 A 
ATOM     15  C   LIG    1       23.111 -19.720   5.238  0.00  0.00    +0.004 A 
ATOM     16  C   LIG    1       22.838 -20.479   6.378  0.00  0.00    +0.000 A 
ATOM     17  C   LIG    1       23.874 -21.111   7.060  0.00  0.00    +0.000 A 
ATOM     18  C   LIG    1       25.183 -20.982   6.603  0.00  0.00    +0.000 A 
ATOM     19  C   LIG    1       25.458 -20.226   5.460  0.00  0.00    +0.004 A 
ENDBRANCH  13  14
BRANCH  13  20
ATOM     20  C   LIG    1       24.921 -19.686   2.261  0.00  0.00    +0.175 C 
BRANCH  20  21
ATOM     21  O   LIG    1       24.229 -20.928   2.402  0.00  0.00    -0.394 OA
ATOM     22  H   LIG    1       23.714 -21.091   1.593  0.00  0.00    +0.209 HD
ENDBRANCH  20  21
ENDBRANCH  13  20
ENDBRANCH   1  13
TORSDOF 6
ENDMDL
MODEL 5
REMARK VINA RESULT:      -3.8      1.401      2.580
REMARK  Name = *****
REMARK                            x       y       z     vdW  Elec       q    Type
REMARK                         _______ _______ _______ _____ _____    ______ ____
ROOT
ATOM      1  C   LIG    1       25.538 -17.961   3.250  0.00  0.00    +0.317 C 
ATOM      2  O   LIG    1       26.115 -18.432   2.273  0.00  0.00    -0.250 OA
ENDROOT
BRANCH   1   3
ATOM      3  O   LIG    1       25.546 -16.636   3.593  0.00  0.00    -0.461 OA
BRANCH   3   8
ATOM      4  C   LIG    1       28.482 -12.912   3.420  0.00  0.00    +0.105 C 
ATOM      5  N   LIG    1       27.104 -13.041   3.862  0.00  0.00    -0.299 NA
ATOM      6  C   LIG    1       26.879 -13.982   4.963  0.00  0.00    +0.060 C 
ATOM      7  C   LIG    1       27.368 -15.396   4.612  0.00  0.00    +0.063 C 
ATOM      8  C   LIG    1       26.774 -15.936   3.298  0.00  0.00    +0.179 C 
ATOM      9  C   LIG    1       26.482 -14.850   2.248  0.00  0.00    +0.063 C 
ATOM     10  C   LIG    1       25.351 -13.909   5.089  0.00  0.00    +0.020 C 
ATOM     11  C   LIG    1       24.864 -13.528   3.688  0.00  0.00    +0.020 C 
ATOM     12  C   LIG    1       26.140 -13.473   2.844  0.00  0.00    +0.060 C 
ENDBRANCH   3   8
ENDBRANCH   1   3
BRANCH   1  13
ATOM     13  C   LIG    1       24.740 -18.762   4.262  0.00  0.00    +0.153 C 
BRANCH  13  14
ATOM     14  C   LIG    1       25.639 -19.620   5.142  0.00  0.00    -0.032 A 
ATOM     15  C   LIG    1       27.038 -19.480   5.123  0.00  0.00    +0.004 A 
ATOM     16  C   LIG    1       27.847 -20.250   5.961  0.00  0.00    +0.000 A 
ATOM     17  C   LIG    1       27.274 -21.178   6.826  0.00  0.00    +0.000 A 
ATOM     18  C   LIG    1       25.890 -21.339   6.849  0.00  0.00    +0.000 A 
ATOM     19  C   LIG    1       25.078 -20.567   6.014  0.00  0.00    +0.004 A 
ENDBRANCH  13  14
BRANCH  13  20
ATOM     20  C   LIG    1       23.690 -19.581   3.506  0.00  0.00    +0.175 C 
BRANCH  20  21
ATOM     21  O   LIG    1       24.294 -20.589   2.693  0.00  0.00    -0.394 OA
ATOM     22  H   LIG    1       24.850 -21.152   3.258  0.00  0.00    +0.209 HD
ENDBRANCH  20  21
ENDBRANCH  13  20
ENDBRANCH   1  13
TORSDOF 6
ENDMDL
MODEL 6
REMARK VINA RESULT:      -3.6      1.181      2.145
REMARK  Name = *****
REMARK                            x       y       z     vdW  Elec       q    Type
REMARK                         _______ _______ _______ _____ _____    ______ ____
ROOT
ATOM      1  C   LIG    1       25.801 -17.993   3.370  0.00  0.00    +0.317 C 
ATOM      2  O   LIG    1       26.174 -18.421   2.281  0.00  0.00    -0.250 OA
ENDROOT
BRANCH   1   3
ATOM      3  O   LIG    1       26.006 -16.716   3.817  0.00  0.00    -0.461 OA
BRANCH   3   8
ATOM      4  C   LIG    1       24.863 -12.290   2.544  0.00  0.00    +0.105 C 
ATOM      5  N   LIG    1       25.821 -12.805   3.507  0.00  0.00    -0.299 NA
ATOM      6  C   LIG    1       26.862 -13.678   2.958  0.00  0.00    +0.060 C 
ATOM      7  C   LIG    1       26.262 -14.893   2.233  0.00  0.00    +0.063 C 
ATOM      8  C   LIG    1       25.277 -15.695   3.103  0.00  0.00    +0.179 C 
ATOM      9  C   LIG    1       24.501 -14.841   4.122  0.00  0.00    +0.063 C 
ATOM     10  C   LIG    1       27.605 -14.075   4.242  0.00  0.00    +0.020 C 
ATOM     11  C   LIG    1       26.549 -13.977   5.346  0.00  0.00    +0.020 C 
ATOM     12  C   LIG    1       25.262 -13.596   4.610  0.00  0.00    +0.060 C 
ENDBRANCH   3   8
ENDBRANCH   1   3
BRANCH   1  13
ATOM     13  C   LIG    1       25.071 -18.808   4.423  0.00  0.00    +0.153 C 
BRANCH  13  14
ATOM     14  C   LIG    1       26.029 -19.664   5.242  0.00  0.00    -0.032 A 
ATOM     15  C   LIG    1       27.417 -19.444   5.217  0.00  0.00    +0.004 A 
ATOM     16  C   LIG    1       28.279 -20.214   6.000  0.00  0.00    +0.000 A 
ATOM     17  C   LIG    1       27.770 -21.223   6.814  0.00  0.00    +0.000 A 
ATOM     18  C   LIG    1       26.398 -21.463   6.841  0.00  0.00    +0.000 A 
ATOM     19  C   LIG    1       25.533 -20.690   6.062  0.00  0.00    +0.004 A 
ENDBRANCH  13  14
BRANCH  13  20
ATOM     20  C   LIG    1       23.984 -19.631   3.727  0.00  0.00    +0.175 C 
BRANCH  20  21
ATOM     21  O   LIG    1       22.719 -19.484   4.374  0.00  0.00    -0.394 OA
ATOM     22  H   LIG    1       22.861 -19.086   5.249  0.00  0.00    +0.209 HD
ENDBRANCH  20  21
ENDBRANCH  13  20
ENDBRANCH   1  13
TORSDOF 6
ENDMDL
MODEL 7
REMARK VINA RESULT:      -3.4      2.742      6.934
REMARK  Name = *****
REMARK                            x       y       z     vdW  Elec       q    Type
REMARK                         _______ _______ _______ _____ _____    ______ ____
ROOT
ATOM      1  C   LIG    1       23.874 -16.351   4.018  0.00  0.00    +0.317 C 
ATOM      2  O   LIG    1       22.746 -15.941   4.280  0.00  0.00    -0.250 OA
ENDROOT
BRANCH   1   3
ATOM      3  O   LIG    1       24.173 -17.643   3.681  0.00  0.00    -0.461 OA
BRANCH   3   8
ATOM      4  C   LIG    1       21.672 -21.564   4.623  0.00  0.00    +0.105 C 
ATOM      5  N   LIG    1       23.014 -21.155   5.002  0.00  0.00    -0.299 NA
ATOM      6  C   LIG    1       23.101 -19.914   5.776  0.00  0.00    +0.060 C 
ATOM      7  C   LIG    1       22.470 -18.730   5.028  0.00  0.00    +0.063 C 
ATOM      8  C   LIG    1       23.039 -18.534   3.611  0.00  0.00    +0.179 C 
ATOM      9  C   LIG    1       23.480 -19.839   2.924  0.00  0.00    +0.063 C 
ATOM     10  C   LIG    1       24.624 -19.772   5.912  0.00  0.00    +0.020 C 
ATOM     11  C   LIG    1       25.190 -20.489   4.683  0.00  0.00    +0.020 C 
ATOM     12  C   LIG    1       23.954 -20.933   3.898  0.00  0.00    +0.060 C 
ENDBRANCH   3   8
ENDBRANCH   1   3
BRANCH   1  13
ATOM     13  C   LIG    1       25.137 -15.509   4.048  0.00  0.00    +0.153 C 
BRANCH  13  14
ATOM     14  C   LIG    1       24.877 -14.080   3.591  0.00  0.00    -0.032 A 
ATOM     15  C   LIG    1       25.258 -13.636   2.313  0.00  0.00    +0.004 A 
ATOM     16  C   LIG    1       24.982 -12.332   1.895  0.00  0.00    +0.000 A 
ATOM     17  C   LIG    1       24.329 -11.448   2.750  0.00  0.00    +0.000 A 
ATOM     18  C   LIG    1       23.956 -11.867   4.025  0.00  0.00    +0.000 A 
ATOM     19  C   LIG    1       24.227 -13.173   4.443  0.00  0.00    +0.004 A 
ENDBRANCH  13  14
BRANCH  13  20
ATOM     20  C   LIG    1       26.207 -16.216   3.212  0.00  0.00    +0.175 C 
BRANCH  20  21
ATOM     21  O   LIG    1       27.508 -16.055   3.779  0.00  0.00    -0.394 OA
ATOM     22  H   LIG    1       27.413 -15.736   4.692  0.00  0.00    +0.209 HD
ENDBRANCH  20  21
ENDBRANCH  13  20
ENDBRANCH   1  13
TORSDOF 6
ENDMDL
MODEL 8
REMARK VINA RESULT:      -3.2      2.089      3.265
REMARK  Name = *****
REMARK                            x       y       z     vdW  Elec       q    Type
REMARK                         _______ _______ _______ _____ _____    ______ ____
ROOT
ATOM      1  C   LIG    1       25.106 -17.085   3.412  0.00  0.00    +0.317 C 
ATOM      2  O   LIG    1       25.771 -17.943   2.837  0.00  0.00    -0.250 OA
ENDROOT
BRANCH   1   3
ATOM      3  O   LIG    1       25.298 -15.736   3.283  0.00  0.00    -0.461 OA
BRANCH   3   8
ATOM      4  C   LIG    1       29.051 -12.867   3.736  0.00  0.00    +0.105 C 
ATOM      5  N   LIG    1       27.659 -12.712   4.123  0.00  0.00    -0.299 NA
ATOM      6  C   LIG    1       27.149 -13.712   5.065  0.00  0.00    +0.060 C 
ATOM      7  C   LIG    1       27.302 -15.140   4.517  0.00  0.00    +0.063 C 
ATOM      8  C   LIG    1       26.674 -15.327   3.125  0.00  0.00    +0.179 C 
ATOM      9  C   LIG    1       26.714 -14.067   2.242  0.00  0.00    +0.063 C 
ATOM     10  C   LIG    1       25.679 -13.282   5.166  0.00  0.00    +0.020 C 
ATOM     11  C   LIG    1       25.382 -12.601   3.828  0.00  0.00    +0.020 C 
ATOM     12  C   LIG    1       26.680 -12.745   3.030  0.00  0.00    +0.060 C 
ENDBRANCH   3   8
ENDBRANCH   1   3
BRANCH   1  13
ATOM     13  C   LIG    1       23.976 -17.366   4.386  0.00  0.00    +0.153 C 
BRANCH  13  14
ATOM     14  C   LIG    1       23.611 -18.843   4.421  0.00  0.00    -0.032 A 
ATOM     15  C   LIG    1       24.559 -19.843   4.141  0.00  0.00    +0.004 A 
ATOM     16  C   LIG    1       24.218 -21.195   4.211  0.00  0.00    +0.000 A 
ATOM     17  C   LIG    1       22.921 -21.571   4.552  0.00  0.00    +0.000 A 
ATOM     18  C   LIG    1       21.965 -20.594   4.820  0.00  0.00    +0.000 A 
ATOM     19  C   LIG    1       22.306 -19.240   4.755  0.00  0.00    +0.004 A 
ENDBRANCH  13  14
BRANCH  13  20
ATOM     20  C   LIG    1       22.792 -16.467   4.020  0.00  0.00    +0.175 C 
BRANCH  20  21
ATOM     21  O   LIG    1       22.791 -15.260   4.784  0.00  0.00    -0.394 OA
ATOM     22  H   LIG    1       22.223 -15.385   5.563  0.00  0.00    +0.209 HD
ENDBRANCH  20  21
ENDBRANCH  13  20
ENDBRANCH   1  13
TORSDOF 6
ENDMDL
MODEL 9
REMARK VINA RESULT:      -3.0      3.012      6.706
REMARK  Name = *****
REMARK                            x       y       z     vdW  Elec       q    Type
REMARK                         _______ _______ _______ _____ _____    ______ ____
ROOT
ATOM      1  C   LIG    1       23.257 -15.923   4.471  0.00  0.00    +0.317 C 
ATOM      2  O   LIG    1       22.465 -15.532   5.324  0.00  0.00    -0.250 OA
ENDROOT
BRANCH   1   3
ATOM      3  O   LIG    1       23.630 -17.228   4.295  0.00  0.00    -0.461 OA
BRANCH   3   8
ATOM      4  C   LIG    1       21.724 -21.544   4.796  0.00  0.00    +0.105 C 
ATOM      5  N   LIG    1       23.099 -21.103   4.639  0.00  0.00    -0.299 NA
ATOM      6  C   LIG    1       23.594 -20.192   5.675  0.00  0.00    +0.060 C 
ATOM      7  C   LIG    1       22.730 -18.926   5.778  0.00  0.00    +0.063 C 
ATOM      8  C   LIG    1       22.564 -18.192   4.435  0.00  0.00    +0.179 C 
ATOM      9  C   LIG    1       22.575 -19.119   3.207  0.00  0.00    +0.063 C 
ATOM     10  C   LIG    1       25.002 -19.895   5.141  0.00  0.00    +0.020 C 
ATOM     11  C   LIG    1       24.888 -20.075   3.625  0.00  0.00    +0.020 C 
ATOM     12  C   LIG    1       23.410 -20.398   3.390  0.00  0.00    +0.060 C 
ENDBRANCH   3   8
ENDBRANCH   1   3
BRANCH   1  13
ATOM     13  C   LIG    1       23.983 -15.029   3.481  0.00  0.00    +0.153 C 
BRANCH  13  14
ATOM     14  C   LIG    1       25.374 -14.650   3.972  0.00  0.00    -0.032 A 
ATOM     15  C   LIG    1       26.530 -15.240   3.434  0.00  0.00    +0.004 A 
ATOM     16  C   LIG    1       27.800 -14.857   3.871  0.00  0.00    +0.000 A 
ATOM     17  C   LIG    1       27.935 -13.885   4.858  0.00  0.00    +0.000 A 
ATOM     18  C   LIG    1       26.800 -13.298   5.411  0.00  0.00    +0.000 A 
ATOM     19  C   LIG    1       25.528 -13.677   4.973  0.00  0.00    +0.004 A 
ENDBRANCH  13  14
BRANCH  13  20
ATOM     20  C   LIG    1       23.100 -13.812   3.195  0.00  0.00    +0.175 C 
BRANCH  20  21
ATOM     21  O   LIG    1       23.710 -12.930   2.250  0.00  0.00    -0.394 OA
ATOM     22  H   LIG    1       24.314 -13.445   1.689  0.00  0.00    +0.209 HD
ENDBRANCH  20  21
ENDBRANCH  13  20
ENDBRANCH   1  13
TORSDOF 6
ENDMDL
