MODEL 1
REMARK VINA RESULT:      -5.6      0.000      0.000
REMARK  Name = *****
REMARK                            x       y       z     vdW  Elec       q    Type
REMARK                         _______ _______ _______ _____ _____    ______ ____
ROOT
ATOM      1  C   LIG    1       26.243 -17.925   3.673  0.00  0.00    +0.010 C 
ENDROOT
BRANCH   1   2
ATOM      2  C   LIG    1       25.092 -18.755   3.077  0.00  0.00    +0.051 C 
BRANCH   2   3
ATOM      3  C   LIG    1       23.984 -19.009   4.108  0.00  0.00    +0.133 C 
BRANCH   3   5
ATOM      4  C   LIG    1       24.200 -21.509   3.741  0.00  0.00    +0.192 C 
ATOM      5  N   LIG    1       24.078 -20.389   4.775  0.00  0.00    +0.241 N 
ATOM      6  C   LIG    1       22.791 -20.638   5.627  0.00  0.00    +0.133 C 
ATOM      7  C   LIG    1       23.272 -20.770   7.061  0.00  0.00    +0.056 C 
ATOM      8  C   LIG    1       24.682 -21.300   6.931  0.00  0.00    +0.056 C 
ATOM      9  C   LIG    1       25.238 -20.477   5.789  0.00  0.00    +0.133 C 
ENDBRANCH   3   5
ENDBRANCH   2   3
ENDBRANCH   1   2
BRANCH   1  10
ATOM     10  C   LIG    1       26.152 -16.452   3.238  0.00  0.00    +0.051 C 
BRANCH  10  11
ATOM     11  C   LIG    1       27.227 -15.581   3.909  0.00  0.00    +0.133 C 
BRANCH  11  12
ATOM     12  N   LIG    1       27.009 -14.074   3.683  0.00  0.00    +0.241 N 
ATOM     13  C   LIG    1       26.156 -13.794   2.423  0.00  0.00    +0.133 C 
ATOM     14  C   LIG    1       25.085 -12.821   2.872  0.00  0.00    +0.056 C 
ATOM     15  C   LIG    1       24.790 -13.268   4.285  0.00  0.00    +0.056 C 
ATOM     16  C   LIG    1       26.172 -13.486   4.863  0.00  0.00    +0.133 C 
ATOM     17  C   LIG    1       28.333 -13.318   3.618  0.00  0.00    +0.192 C 
ENDBRANCH  11  12
ENDBRANCH  10  11
ENDBRANCH   1  10
TORSDOF 6
ENDMDL
MODEL 2
REMARK VINA RESULT:      -5.6      1.361      6.978
REMARK  Name = *****
REMARK                            x       y       z     vdW  Elec       q    Type
REMARK                         _______ _______ _______ _____ _____    ______ ____
ROOT
ATOM      1  C   LIG    1       22.327 -16.871   4.723  0.00  0.00    +0.010 C 
ENDROOT
BRANCH   1   2
ATOM      2  C   LIG    1       23.583 -16.217   4.117  0.00  0.00    +0.051 C 
BRANCH   2   3
ATOM      3  C   LIG    1       23.651 -14.718   4.436  0.00  0.00    +0.133 C 
BRANCH   3   5
ATOM      4  C   LIG    1       24.470 -13.021   2.738  0.00  0.00    +0.192 C 
ATOM      5  N   LIG    1       24.874 -14.020   3.823  0.00  0.00    +0.241 N 
ATOM      6  C   LIG    1       25.814 -15.094   3.184  0.00  0.00    +0.133 C 
ATOM      7  C   LIG    1       27.118 -15.003   3.958  0.00  0.00    +0.056 C 
ATOM      8  C   LIG    1       27.170 -13.568   4.429  0.00  0.00    +0.056 C 
ATOM      9  C   LIG    1       25.748 -13.320   4.885  0.00  0.00    +0.133 C 
ENDBRANCH   3   5
ENDBRANCH   2   3
ENDBRANCH   1   2
BRANCH   1  10
ATOM     10  C   LIG    1       22.268 -18.373   4.399  0.00  0.00    +0.051 C 
BRANCH  10  11
ATOM     11  C   LIG    1       23.632 -18.926   3.956  0.00  0.00    +0.133 C 
BRANCH  11  12
ATOM     12  N   LIG    1       23.933 -20.322   4.531  0.00  0.00    +0.241 N 
ATOM     13  C   LIG    1       25.203 -20.324   5.414  0.00  0.00    +0.133 C 
ATOM     14  C   LIG    1       24.802 -21.028   6.694  0.00  0.00    +0.056 C 
ATOM     15  C   LIG    1       23.367 -20.592   6.886  0.00  0.00    +0.056 C 
ATOM     16  C   LIG    1       22.781 -20.745   5.498  0.00  0.00    +0.133 C 
ATOM     17  C   LIG    1       24.037 -21.373   3.430  0.00  0.00    +0.192 C 
ENDBRANCH  11  12
ENDBRANCH  10  11
ENDBRANCH   1  10
TORSDOF 6
ENDMDL
MODEL 3
REMARK VINA RESULT:      -5.5      1.378      2.415
REMARK  Name = *****
REMARK                            x       y       z     vdW  Elec       q    Type
REMARK                         _______ _______ _______ _____ _____    ______ ____
ROOT
ATOM      1  C   LIG    1       22.336 -16.750   4.763  0.00  0.00    +0.010 C 
ENDROOT
BRANCH   1   2
ATOM      2  C   LIG    1       22.253 -18.239   4.378  0.00  0.00    +0.051 C 
BRANCH   2   3
ATOM      3  C   LIG    1       23.627 -18.801   3.990  0.00  0.00    +0.133 C 
BRANCH   3   5
ATOM      4  C   LIG    1       24.028 -21.259   3.510  0.00  0.00    +0.192 C 
ATOM      5  N   LIG    1       23.910 -20.185   4.592  0.00  0.00    +0.241 N 
ATOM      6  C   LIG    1       22.743 -20.577   5.556  0.00  0.00    +0.133 C 
ATOM      7  C   LIG    1       23.377 -20.705   6.930  0.00  0.00    +0.056 C 
ATOM      8  C   LIG    1       24.808 -21.098   6.643  0.00  0.00    +0.056 C 
ATOM      9  C   LIG    1       25.170 -20.194   5.484  0.00  0.00    +0.133 C 
ENDBRANCH   3   5
ENDBRANCH   2   3
ENDBRANCH   1   2
BRANCH   1  10
ATOM     10  C   LIG    1       23.539 -16.066   4.092  0.00  0.00    +0.051 C 
BRANCH  10  11
ATOM     11  C   LIG    1       23.716 -14.612   4.560  0.00  0.00    +0.133 C 
BRANCH  11  12
ATOM     12  N   LIG    1       24.875 -13.888   3.851  0.00  0.00    +0.241 N 
ATOM     13  C   LIG    1       25.863 -13.252   4.856  0.00  0.00    +0.133 C 
ATOM     14  C   LIG    1       27.239 -13.693   4.401  0.00  0.00    +0.056 C 
ATOM     15  C   LIG    1       26.994 -15.091   3.882  0.00  0.00    +0.056 C 
ATOM     16  C   LIG    1       25.732 -14.927   3.060  0.00  0.00    +0.133 C 
ATOM     17  C   LIG    1       24.363 -12.845   2.861  0.00  0.00    +0.192 C 
ENDBRANCH  11  12
ENDBRANCH  10  11
ENDBRANCH   1  10
TORSDOF 6
ENDMDL
MODEL 4
REMARK VINA RESULT:      -5.3      1.417      2.227
REMARK  Name = *****
REMARK                            x       y       z     vdW  Elec       q    Type
REMARK                         _______ _______ _______ _____ _____    ______ ____
ROOT
ATOM      1  C   LIG    1       22.295 -16.764   4.808  0.00  0.00    +0.010 C 
ENDROOT
BRANCH   1   2
ATOM      2  C   LIG    1       22.248 -18.215   4.295  0.00  0.00    +0.051 C 
BRANCH   2   3
ATOM      3  C   LIG    1       23.651 -18.750   3.981  0.00  0.00    +0.133 C 
BRANCH   3   5
ATOM      4  C   LIG    1       24.021 -21.205   3.463  0.00  0.00    +0.192 C 
ATOM      5  N   LIG    1       23.913 -20.148   4.562  0.00  0.00    +0.241 N 
ATOM      6  C   LIG    1       22.737 -20.540   5.514  0.00  0.00    +0.133 C 
ATOM      7  C   LIG    1       23.362 -20.698   6.889  0.00  0.00    +0.056 C 
ATOM      8  C   LIG    1       24.789 -21.106   6.602  0.00  0.00    +0.056 C 
ATOM      9  C   LIG    1       25.169 -20.188   5.459  0.00  0.00    +0.133 C 
ENDBRANCH   3   5
ENDBRANCH   2   3
ENDBRANCH   1   2
BRANCH   1  10
ATOM     10  C   LIG    1       23.450 -15.981   4.161  0.00  0.00    +0.051 C 
BRANCH  10  11
ATOM     11  C   LIG    1       23.561 -14.549   4.710  0.00  0.00    +0.133 C 
BRANCH  11  12
ATOM     12  N   LIG    1       24.854 -13.835   4.277  0.00  0.00    +0.241 N 
ATOM     13  C   LIG    1       25.749 -14.739   3.396  0.00  0.00    +0.133 C 
ATOM     14  C   LIG    1       26.114 -13.894   2.193  0.00  0.00    +0.056 C 
ATOM     15  C   LIG    1       24.865 -13.075   1.961  0.00  0.00    +0.056 C 
ATOM     16  C   LIG    1       24.496 -12.623   3.359  0.00  0.00    +0.133 C 
ATOM     17  C   LIG    1       25.634 -13.306   5.477  0.00  0.00    +0.192 C 
ENDBRANCH  11  12
ENDBRANCH  10  11
ENDBRANCH   1  10
TORSDOF 6
ENDMDL
MODEL 5
REMARK VINA RESULT:      -5.0      1.127      1.691
REMARK  Name = *****
REMARK                            x       y       z     vdW  Elec       q    Type
REMARK                         _______ _______ _______ _____ _____    ______ ____
ROOT
ATOM      1  C   LIG    1       27.205 -17.358   3.687  0.00  0.00    +0.010 C 
ENDROOT
BRANCH   1   2
ATOM      2  C   LIG    1       25.789 -17.941   3.525  0.00  0.00    +0.051 C 
BRANCH   2   3
ATOM      3  C   LIG    1       25.739 -19.424   3.914  0.00  0.00    +0.133 C 
BRANCH   3   5
ATOM      4  C   LIG    1       24.101 -21.209   3.161  0.00  0.00    +0.192 C 
ATOM      5  N   LIG    1       24.310 -19.973   4.037  0.00  0.00    +0.241 N 
ATOM      6  C   LIG    1       23.294 -18.872   3.592  0.00  0.00    +0.133 C 
ATOM      7  C   LIG    1       22.456 -18.571   4.822  0.00  0.00    +0.056 C 
ATOM      8  C   LIG    1       22.476 -19.861   5.609  0.00  0.00    +0.056 C 
ATOM      9  C   LIG    1       23.924 -20.291   5.498  0.00  0.00    +0.133 C 
ENDBRANCH   3   5
ENDBRANCH   2   3
ENDBRANCH   1   2
BRANCH   1  10
ATOM     10  C   LIG    1       27.166 -15.827   3.829  0.00  0.00    +0.051 C 
BRANCH  10  11
ATOM     11  C   LIG    1       25.848 -15.229   3.309  0.00  0.00    +0.133 C 
BRANCH  11  12
ATOM     12  N   LIG    1       25.866 -13.691   3.251  0.00  0.00    +0.241 N 
ATOM     13  C   LIG    1       24.918 -13.140   2.160  0.00  0.00    +0.133 C 
ATOM     14  C   LIG    1       24.098 -12.066   2.846  0.00  0.00    +0.056 C 
ATOM     15  C   LIG    1       23.916 -12.616   4.242  0.00  0.00    +0.056 C 
ATOM     16  C   LIG    1       25.304 -13.113   4.589  0.00  0.00    +0.133 C 
ATOM     17  C   LIG    1       27.281 -13.152   3.060  0.00  0.00    +0.192 C 
ENDBRANCH  11  12
ENDBRANCH  10  11
ENDBRANCH   1  10
TORSDOF 6
ENDMDL
MODEL 6
REMARK VINA RESULT:      -5.0      0.735      1.837
REMARK  Name = *****
REMARK                            x       y       z     vdW  Elec       q    Type
REMARK                         _______ _______ _______ _____ _____    ______ ____
ROOT
ATOM      1  C   LIG    1       26.245 -17.481   3.713  0.00  0.00    +0.010 C 
ENDROOT
BRANCH   1   2
ATOM      2  C   LIG    1       25.287 -18.545   3.146  0.00  0.00    +0.051 C 
BRANCH   2   3
ATOM      3  C   LIG    1       24.105 -18.803   4.090  0.00  0.00    +0.133 C 
BRANCH   3   5
ATOM      4  C   LIG    1       24.053 -21.290   3.593  0.00  0.00    +0.192 C 
ATOM      5  N   LIG    1       24.099 -20.219   4.684  0.00  0.00    +0.241 N 
ATOM      6  C   LIG    1       22.842 -20.389   5.599  0.00  0.00    +0.133 C 
ATOM      7  C   LIG    1       23.387 -20.643   6.993  0.00  0.00    +0.056 C 
ATOM      8  C   LIG    1       24.727 -21.298   6.754  0.00  0.00    +0.056 C 
ATOM      9  C   LIG    1       25.299 -20.472   5.621  0.00  0.00    +0.133 C 
ENDBRANCH   3   5
ENDBRANCH   2   3
ENDBRANCH   1   2
BRANCH   1  10
ATOM     10  C   LIG    1       26.043 -16.123   3.019  0.00  0.00    +0.051 C 
BRANCH  10  11
ATOM     11  C   LIG    1       25.091 -15.205   3.804  0.00  0.00    +0.133 C 
BRANCH  11  12
ATOM     12  N   LIG    1       25.641 -13.779   3.985  0.00  0.00    +0.241 N 
ATOM     13  C   LIG    1       26.497 -13.645   5.266  0.00  0.00    +0.133 C 
ATOM     14  C   LIG    1       27.776 -12.962   4.825  0.00  0.00    +0.056 C 
ATOM     15  C   LIG    1       28.003 -13.526   3.442  0.00  0.00    +0.056 C 
ATOM     16  C   LIG    1       26.625 -13.449   2.818  0.00  0.00    +0.133 C 
ATOM     17  C   LIG    1       24.524 -12.740   3.970  0.00  0.00    +0.192 C 
ENDBRANCH  11  12
ENDBRANCH  10  11
ENDBRANCH   1  10
TORSDOF 6
ENDMDL
MODEL 7
REMARK VINA RESULT:      -5.0      1.178      6.923
REMARK  Name = *****
REMARK                            x       y       z     vdW  Elec       q    Type
REMARK                         _______ _______ _______ _____ _____    ______ ____
ROOT
ATOM      1  C   LIG    1       26.998 -17.185   3.734  0.00  0.00    +0.010 C 
ENDROOT
BRANCH   1   2
ATOM      2  C   LIG    1       26.897 -15.739   3.217  0.00  0.00    +0.051 C 
BRANCH   2   3
ATOM      3  C   LIG    1       25.531 -15.117   3.537  0.00  0.00    +0.133 C 
BRANCH   3   5
ATOM      4  C   LIG    1       26.816 -13.060   2.795  0.00  0.00    +0.192 C 
ATOM      5  N   LIG    1       25.505 -13.590   3.377  0.00  0.00    +0.241 N 
ATOM      6  C   LIG    1       25.279 -12.929   4.776  0.00  0.00    +0.133 C 
ATOM      7  C   LIG    1       23.958 -12.188   4.667  0.00  0.00    +0.056 C 
ATOM      8  C   LIG    1       23.852 -11.834   3.201  0.00  0.00    +0.056 C 
ATOM      9  C   LIG    1       24.314 -13.106   2.522  0.00  0.00    +0.133 C 
ENDBRANCH   3   5
ENDBRANCH   2   3
ENDBRANCH   1   2
BRANCH   1  10
ATOM     10  C   LIG    1       25.736 -17.992   3.386  0.00  0.00    +0.051 C 
BRANCH  10  11
ATOM     11  C   LIG    1       25.712 -19.363   4.082  0.00  0.00    +0.133 C 
BRANCH  11  12
ATOM     12  N   LIG    1       24.320 -20.022   4.069  0.00  0.00    +0.241 N 
ATOM     13  C   LIG    1       23.846 -20.402   5.491  0.00  0.00    +0.133 C 
ATOM     14  C   LIG    1       22.438 -19.855   5.605  0.00  0.00    +0.056 C 
ATOM     15  C   LIG    1       22.506 -18.573   4.809  0.00  0.00    +0.056 C 
ATOM     16  C   LIG    1       23.261 -18.990   3.564  0.00  0.00    +0.133 C 
ATOM     17  C   LIG    1       24.281 -21.233   3.143  0.00  0.00    +0.192 C 
ENDBRANCH  11  12
ENDBRANCH  10  11
ENDBRANCH   1  10
TORSDOF 6
ENDMDL
MODEL 8
REMARK VINA RESULT:      -5.0      0.694      7.143
REMARK  Name = *****
REMARK                            x       y       z     vdW  Elec       q    Type
REMARK                         _______ _______ _______ _____ _____    ______ ____
ROOT
ATOM      1  C   LIG    1       26.192 -17.627   3.736  0.00  0.00    +0.010 C 
ENDROOT
BRANCH   1   2
ATOM      2  C   LIG    1       26.091 -16.260   3.034  0.00  0.00    +0.051 C 
BRANCH   2   3
ATOM      3  C   LIG    1       25.158 -15.304   3.788  0.00  0.00    +0.133 C 
BRANCH   3   5
ATOM      4  C   LIG    1       24.664 -12.820   3.934  0.00  0.00    +0.192 C 
ATOM      5  N   LIG    1       25.748 -13.898   3.975  0.00  0.00    +0.241 N 
ATOM      6  C   LIG    1       26.775 -13.614   2.831  0.00  0.00    +0.133 C 
ATOM      7  C   LIG    1       28.113 -13.425   3.524  0.00  0.00    +0.056 C 
ATOM      8  C   LIG    1       27.750 -12.903   4.894  0.00  0.00    +0.056 C 
ATOM      9  C   LIG    1       26.570 -13.771   5.275  0.00  0.00    +0.133 C 
ENDBRANCH   3   5
ENDBRANCH   2   3
ENDBRANCH   1   2
BRANCH   1  10
ATOM     10  C   LIG    1       25.152 -18.616   3.182  0.00  0.00    +0.051 C 
BRANCH  10  11
ATOM     11  C   LIG    1       24.040 -18.919   4.200  0.00  0.00    +0.133 C 
BRANCH  11  12
ATOM     12  N   LIG    1       24.103 -20.355   4.752  0.00  0.00    +0.241 N 
ATOM     13  C   LIG    1       25.303 -20.557   5.706  0.00  0.00    +0.133 C 
ATOM     14  C   LIG    1       24.728 -21.220   6.941  0.00  0.00    +0.056 C 
ATOM     15  C   LIG    1       23.361 -20.587   7.062  0.00  0.00    +0.056 C 
ATOM     16  C   LIG    1       22.846 -20.627   5.638  0.00  0.00    +0.133 C 
ATOM     17  C   LIG    1       24.123 -21.388   3.630  0.00  0.00    +0.192 C 
ENDBRANCH  11  12
ENDBRANCH  10  11
ENDBRANCH   1  10
TORSDOF 6
ENDMDL
MODEL 9
REMARK VINA RESULT:      -4.6      1.420      2.447
REMARK  Name = *****
REMARK                            x       y       z     vdW  Elec       q    Type
REMARK                         _______ _______ _______ _____ _____    ______ ____
ROOT
ATOM      1  C   LIG    1       27.054 -16.905   3.722  0.00  0.00    +0.010 C 
ENDROOT
BRANCH   1   2
ATOM      2  C   LIG    1       25.835 -17.764   3.338  0.00  0.00    +0.051 C 
BRANCH   2   3
ATOM      3  C   LIG    1       25.852 -19.122   4.052  0.00  0.00    +0.133 C 
BRANCH   3   5
ATOM      4  C   LIG    1       24.466 -20.976   3.015  0.00  0.00    +0.192 C 
ATOM      5  N   LIG    1       24.492 -19.835   4.034  0.00  0.00    +0.241 N 
ATOM      6  C   LIG    1       23.375 -18.808   3.657  0.00  0.00    +0.133 C 
ATOM      7  C   LIG    1       22.456 -18.747   4.864  0.00  0.00    +0.056 C 
ATOM      8  C   LIG    1       22.592 -20.109   5.502  0.00  0.00    +0.056 C 
ATOM      9  C   LIG    1       24.083 -20.361   5.426  0.00  0.00    +0.133 C 
ENDBRANCH   3   5
ENDBRANCH   2   3
ENDBRANCH   1   2
BRANCH   1  10
ATOM     10  C   LIG    1       26.714 -15.405   3.685  0.00  0.00    +0.051 C 
BRANCH  10  11
ATOM     11  C   LIG    1       25.383 -15.129   2.968  0.00  0.00    +0.133 C 
BRANCH  11  12
ATOM     12  N   LIG    1       24.401 -14.300   3.817  0.00  0.00    +0.241 N 
ATOM     13  C   LIG    1       25.135 -13.377   4.817  0.00  0.00    +0.133 C 
ATOM     14  C   LIG    1       24.507 -12.011   4.639  0.00  0.00    +0.056 C 
ATOM     15  C   LIG    1       24.213 -11.962   3.158  0.00  0.00    +0.056 C 
ATOM     16  C   LIG    1       23.608 -13.324   2.891  0.00  0.00    +0.133 C 
ATOM     17  C   LIG    1       23.394 -15.190   4.539  0.00  0.00    +0.192 C 
ENDBRANCH  11  12
ENDBRANCH  10  11
ENDBRANCH   1  10
TORSDOF 6
ENDMDL
