MODEL 1
REMARK VINA RESULT:      -6.2      0.000      0.000
REMARK  Name = *****
REMARK                            x       y       z     vdW  Elec       q    Type
REMARK                         _______ _______ _______ _____ _____    ______ ____
ROOT
ATOM      1  C   LIG    1       26.627 -28.584  14.696  0.00  0.00    +0.132 C 
ATOM      2  C   LIG    1       26.050 -28.199  13.293  0.00  0.00    +0.014 C 
ATOM      3  C   LIG    1       25.228 -29.466  12.882  0.00  0.00    +0.002 C 
ATOM      4  C   LIG    1       25.912 -30.457  11.901  0.00  0.00    -0.003 C 
ATOM      5  C   LIG    1       26.645 -29.749  10.753  0.00  0.00    -0.000 C 
ATOM      6  C   LIG    1       27.724 -28.858  11.371  0.00  0.00    +0.005 C 
ATOM      7  C   LIG    1       25.666 -29.022   9.785  0.00  0.00    +0.019 C 
ATOM      8  C   LIG    1       24.546 -29.944   9.317  0.00  0.00    -0.064 C 
ATOM      9  C   LIG    1       24.064 -29.940   8.061  0.00  0.00    +0.026 C 
ATOM     10  C   LIG    1       24.532 -28.947   7.051  0.00  0.00    +0.080 C 
ATOM     11  N   LIG    1       24.134 -28.869   5.817  0.00  0.00    -0.092 NA
ATOM     12  C   LIG    1       25.500 -27.884   7.526  0.00  0.00    +0.059 C 
ATOM     13  C   LIG    1       23.915 -30.848  10.351  0.00  0.00    +0.031 C 
ATOM     14  C   LIG    1       26.436 -28.434   8.588  0.00  0.00    +0.014 C 
ATOM     15  C   LIG    1       24.927 -31.479  11.304  0.00  0.00    +0.008 C 
ATOM     16  C   LIG    1       24.868 -30.192  14.201  0.00  0.00    +0.008 C 
ATOM     17  C   LIG    1       27.150 -27.768  12.267  0.00  0.00    +0.011 C 
ATOM     18  C   LIG    1       25.532 -29.434  15.344  0.00  0.00    +0.049 C 
ENDROOT
BRANCH   1  20
ATOM     19  C   LIG    1       28.886 -30.026  14.661  0.00  0.00    +0.007 C 
ATOM     20  C   LIG    1       27.883 -29.364  14.656  0.00  0.00    -0.070 C 
ENDBRANCH   1  20
BRANCH   1  21
ATOM     21  O   LIG    1       26.863 -27.433  15.499  0.00  0.00    -0.376 OA
ATOM     22  H   LIG    1       25.996 -27.039  15.691  0.00  0.00    +0.211 HD
ENDBRANCH   1  21
BRANCH   2  23
ATOM     23  C   LIG    1       25.099 -26.934  13.357  0.00  0.00    +0.007 C 
ATOM     24  C   LIG    1       23.591 -27.108  13.252  0.00  0.00    +0.004 C 
ENDBRANCH   2  23
BRANCH  11  25
ATOM     25  O   LIG    1       23.208 -29.869   5.495  0.00  0.00    -0.409 OA
ATOM     26  H   LIG    1       23.517 -30.161   4.617  0.00  0.00    +0.328 HD
ENDBRANCH  11  25
TORSDOF 4
ENDMDL
MODEL 2
REMARK VINA RESULT:      -5.8      3.598      5.901
REMARK  Name = *****
REMARK                            x       y       z     vdW  Elec       q    Type
REMARK                         _______ _______ _______ _____ _____    ______ ____
ROOT
ATOM      1  C   LIG    1       26.817 -29.732  11.972  0.00  0.00    +0.132 C 
ATOM      2  C   LIG    1       25.263 -29.542  11.983  0.00  0.00    +0.014 C 
ATOM      3  C   LIG    1       25.087 -28.042  12.396  0.00  0.00    +0.002 C 
ATOM      4  C   LIG    1       24.745 -27.762  13.885  0.00  0.00    -0.003 C 
ATOM      5  C   LIG    1       23.690 -28.727  14.447  0.00  0.00    -0.000 C 
ATOM      6  C   LIG    1       24.255 -30.145  14.338  0.00  0.00    +0.005 C 
ATOM      7  C   LIG    1       22.293 -28.522  13.791  0.00  0.00    +0.019 C 
ATOM      8  C   LIG    1       21.863 -27.061  13.825  0.00  0.00    -0.064 C 
ATOM      9  C   LIG    1       20.597 -26.670  14.065  0.00  0.00    +0.026 C 
ATOM     10  C   LIG    1       19.493 -27.661  14.217  0.00  0.00    +0.080 C 
ATOM     11  N   LIG    1       18.247 -27.383  14.457  0.00  0.00    -0.092 NA
ATOM     12  C   LIG    1       19.838 -29.118  13.994  0.00  0.00    +0.059 C 
ATOM     13  C   LIG    1       22.910 -26.022  13.501  0.00  0.00    +0.031 C 
ATOM     14  C   LIG    1       21.246 -29.424  14.472  0.00  0.00    +0.014 C 
ATOM     15  C   LIG    1       24.272 -26.317  14.126  0.00  0.00    +0.008 C 
ATOM     16  C   LIG    1       26.409 -27.332  12.015  0.00  0.00    +0.008 C 
ATOM     17  C   LIG    1       24.518 -30.568  12.899  0.00  0.00    +0.011 C 
ATOM     18  C   LIG    1       27.366 -28.390  11.482  0.00  0.00    +0.049 C 
ENDROOT
BRANCH   1  20
ATOM     19  C   LIG    1       27.939 -30.292  14.341  0.00  0.00    +0.007 C 
ATOM     20  C   LIG    1       27.411 -30.044  13.291  0.00  0.00    -0.070 C 
ENDBRANCH   1  20
BRANCH   1  21
ATOM     21  O   LIG    1       27.213 -30.758  11.070  0.00  0.00    -0.376 OA
ATOM     22  H   LIG    1       26.904 -31.600  11.445  0.00  0.00    +0.211 HD
ENDBRANCH   1  21
BRANCH   2  23
ATOM     23  C   LIG    1       24.615 -29.790  10.560  0.00  0.00    +0.007 C 
ATOM     24  C   LIG    1       23.151 -30.191  10.449  0.00  0.00    +0.004 C 
ENDBRANCH   2  23
BRANCH  11  25
ATOM     25  O   LIG    1       18.029 -26.007  14.601  0.00  0.00    -0.409 OA
ATOM     26  H   LIG    1       18.844 -25.716  15.052  0.00  0.00    +0.328 HD
ENDBRANCH  11  25
TORSDOF 4
ENDMDL
MODEL 3
REMARK VINA RESULT:      -5.8      3.921      6.191
REMARK  Name = *****
REMARK                            x       y       z     vdW  Elec       q    Type
REMARK                         _______ _______ _______ _____ _____    ______ ____
ROOT
ATOM      1  C   LIG    1       25.858 -30.661  12.184  0.00  0.00    +0.132 C 
ATOM      2  C   LIG    1       24.338 -30.291  12.178  0.00  0.00    +0.014 C 
ATOM      3  C   LIG    1       24.343 -28.740  12.389  0.00  0.00    +0.002 C 
ATOM      4  C   LIG    1       24.069 -28.229  13.830  0.00  0.00    -0.003 C 
ATOM      5  C   LIG    1       22.922 -28.981  14.522  0.00  0.00    -0.000 C 
ATOM      6  C   LIG    1       23.318 -30.458  14.599  0.00  0.00    +0.005 C 
ATOM      7  C   LIG    1       21.544 -28.703  13.853  0.00  0.00    +0.019 C 
ATOM      8  C   LIG    1       21.285 -27.210  13.695  0.00  0.00    -0.064 C 
ATOM      9  C   LIG    1       20.078 -26.646  13.888  0.00  0.00    +0.026 C 
ATOM     10  C   LIG    1       18.871 -27.472  14.178  0.00  0.00    +0.080 C 
ATOM     11  N   LIG    1       17.671 -27.022  14.387  0.00  0.00    -0.092 NA
ATOM     12  C   LIG    1       19.042 -28.977  14.149  0.00  0.00    +0.059 C 
ATOM     13  C   LIG    1       22.438 -26.352  13.229  0.00  0.00    +0.031 C 
ATOM     14  C   LIG    1       20.415 -29.380  14.655  0.00  0.00    +0.014 C 
ATOM     15  C   LIG    1       23.770 -26.719  13.879  0.00  0.00    +0.008 C 
ATOM     16  C   LIG    1       25.729 -28.245  11.909  0.00  0.00    +0.008 C 
ATOM     17  C   LIG    1       23.500 -31.094  13.228  0.00  0.00    +0.011 C 
ATOM     18  C   LIG    1       26.548 -29.469  11.516  0.00  0.00    +0.049 C 
ENDROOT
BRANCH   1  20
ATOM     19  C   LIG    1       26.960 -31.024  14.600  0.00  0.00    +0.007 C 
ATOM     20  C   LIG    1       26.441 -30.865  13.528  0.00  0.00    -0.070 C 
ENDBRANCH   1  20
BRANCH   1  21
ATOM     21  O   LIG    1       26.114 -31.836  11.423  0.00  0.00    -0.376 OA
ATOM     22  H   LIG    1       25.420 -32.477  11.650  0.00  0.00    +0.211 HD
ENDBRANCH   1  21
BRANCH   2  23
ATOM     23  C   LIG    1       23.634 -30.647  10.805  0.00  0.00    +0.007 C 
ATOM     24  C   LIG    1       22.125 -30.512  10.664  0.00  0.00    +0.004 C 
ENDBRANCH   2  23
BRANCH  11  25
ATOM     25  O   LIG    1       17.616 -25.623  14.347  0.00  0.00    -0.409 OA
ATOM     26  H   LIG    1       16.675 -25.449  14.539  0.00  0.00    +0.328 HD
ENDBRANCH  11  25
TORSDOF 4
ENDMDL
MODEL 4
REMARK VINA RESULT:      -5.5      2.931      4.382
REMARK  Name = *****
REMARK                            x       y       z     vdW  Elec       q    Type
REMARK                         _______ _______ _______ _____ _____    ______ ____
ROOT
ATOM      1  C   LIG    1       27.475 -28.890  12.204  0.00  0.00    +0.132 C 
ATOM      2  C   LIG    1       26.193 -29.315  11.413  0.00  0.00    +0.014 C 
ATOM      3  C   LIG    1       25.042 -28.563  12.161  0.00  0.00    +0.002 C 
ATOM      4  C   LIG    1       24.216 -29.389  13.185  0.00  0.00    -0.003 C 
ATOM      5  C   LIG    1       23.859 -30.791  12.670  0.00  0.00    -0.000 C 
ATOM      6  C   LIG    1       25.169 -31.532  12.396  0.00  0.00    +0.005 C 
ATOM      7  C   LIG    1       22.865 -30.746  11.473  0.00  0.00    +0.019 C 
ATOM      8  C   LIG    1       21.648 -29.881  11.782  0.00  0.00    -0.064 C 
ATOM      9  C   LIG    1       20.399 -30.200  11.395  0.00  0.00    +0.026 C 
ATOM     10  C   LIG    1       20.131 -31.390  10.537  0.00  0.00    +0.080 C 
ATOM     11  N   LIG    1       18.964 -31.782  10.121  0.00  0.00    -0.092 NA
ATOM     12  C   LIG    1       21.332 -32.167  10.041  0.00  0.00    +0.059 C 
ATOM     13  C   LIG    1       21.891 -28.573  12.497  0.00  0.00    +0.031 C 
ATOM     14  C   LIG    1       22.443 -32.173  11.075  0.00  0.00    +0.014 C 
ATOM     15  C   LIG    1       22.922 -28.676  13.620  0.00  0.00    +0.008 C 
ATOM     16  C   LIG    1       25.705 -27.356  12.869  0.00  0.00    +0.008 C 
ATOM     17  C   LIG    1       26.010 -30.866  11.315  0.00  0.00    +0.011 C 
ATOM     18  C   LIG    1       27.206 -27.443  12.626  0.00  0.00    +0.049 C 
ENDROOT
BRANCH   1  20
ATOM     19  C   LIG    1       27.989 -30.315  14.416  0.00  0.00    +0.007 C 
ATOM     20  C   LIG    1       27.755 -29.699  13.410  0.00  0.00    -0.070 C 
ENDBRANCH   1  20
BRANCH   1  21
ATOM     21  O   LIG    1       28.636 -28.930  11.382  0.00  0.00    -0.376 OA
ATOM     22  H   LIG    1       28.659 -29.809  10.968  0.00  0.00    +0.211 HD
ENDBRANCH   1  21
BRANCH   2  23
ATOM     23  C   LIG    1       26.240 -28.859   9.897  0.00  0.00    +0.007 C 
ATOM     24  C   LIG    1       25.315 -29.507   8.877  0.00  0.00    +0.004 C 
ENDBRANCH   2  23
BRANCH  11  25
ATOM     25  O   LIG    1       17.930 -30.969  10.600  0.00  0.00    -0.409 OA
ATOM     26  H   LIG    1       18.279 -30.681  11.464  0.00  0.00    +0.328 HD
ENDBRANCH  11  25
TORSDOF 4
ENDMDL
MODEL 5
REMARK VINA RESULT:      -5.3      3.813      6.448
REMARK  Name = *****
REMARK                            x       y       z     vdW  Elec       q    Type
REMARK                         _______ _______ _______ _____ _____    ______ ____
ROOT
ATOM      1  C   LIG    1       20.854 -31.659  13.365  0.00  0.00    +0.132 C 
ATOM      2  C   LIG    1       22.103 -30.811  13.778  0.00  0.00    +0.014 C 
ATOM      3  C   LIG    1       21.522 -29.366  13.934  0.00  0.00    +0.002 C 
ATOM      4  C   LIG    1       21.735 -28.393  12.742  0.00  0.00    -0.003 C 
ATOM      5  C   LIG    1       23.152 -28.471  12.154  0.00  0.00    -0.000 C 
ATOM      6  C   LIG    1       23.369 -29.902  11.656  0.00  0.00    +0.005 C 
ATOM      7  C   LIG    1       24.233 -27.948  13.145  0.00  0.00    +0.019 C 
ATOM      8  C   LIG    1       23.876 -26.572  13.694  0.00  0.00    -0.064 C 
ATOM      9  C   LIG    1       24.785 -25.600  13.897  0.00  0.00    +0.026 C 
ATOM     10  C   LIG    1       26.241 -25.841  13.686  0.00  0.00    +0.080 C 
ATOM     11  N   LIG    1       27.190 -24.968  13.846  0.00  0.00    -0.092 NA
ATOM     12  C   LIG    1       26.663 -27.251  13.331  0.00  0.00    +0.059 C 
ATOM     13  C   LIG    1       22.438 -26.336  14.091  0.00  0.00    +0.031 C 
ATOM     14  C   LIG    1       25.616 -27.932  12.467  0.00  0.00    +0.014 C 
ATOM     15  C   LIG    1       21.431 -26.928  13.106  0.00  0.00    +0.008 C 
ATOM     16  C   LIG    1       20.009 -29.538  14.211  0.00  0.00    +0.008 C 
ATOM     17  C   LIG    1       23.297 -30.934  12.773  0.00  0.00    +0.011 C 
ATOM     18  C   LIG    1       19.689 -31.025  14.129  0.00  0.00    +0.049 C 
ENDROOT
BRANCH   1  20
ATOM     19  C   LIG    1       20.249 -31.634  10.754  0.00  0.00    +0.007 C 
ATOM     20  C   LIG    1       20.547 -31.645  11.918  0.00  0.00    -0.070 C 
ENDBRANCH   1  20
BRANCH   1  21
ATOM     21  O   LIG    1       20.990 -33.018  13.762  0.00  0.00    -0.376 OA
ATOM     22  H   LIG    1       21.103 -33.021  14.727  0.00  0.00    +0.211 HD
ENDBRANCH   1  21
BRANCH   2  23
ATOM     23  C   LIG    1       22.734 -31.291  15.149  0.00  0.00    +0.007 C 
ATOM     24  C   LIG    1       24.167 -30.921  15.500  0.00  0.00    +0.004 C 
ENDBRANCH   2  23
BRANCH  11  25
ATOM     25  O   LIG    1       26.696 -23.712  14.218  0.00  0.00    -0.409 OA
ATOM     26  H   LIG    1       26.542 -23.825  15.175  0.00  0.00    +0.328 HD
ENDBRANCH  11  25
TORSDOF 4
ENDMDL
MODEL 6
REMARK VINA RESULT:      -5.3      9.653     12.206
REMARK  Name = *****
REMARK                            x       y       z     vdW  Elec       q    Type
REMARK                         _______ _______ _______ _____ _____    ______ ____
ROOT
ATOM      1  C   LIG    1       24.796 -22.686   6.632  0.00  0.00    +0.132 C 
ATOM      2  C   LIG    1       25.076 -21.164   6.397  0.00  0.00    +0.014 C 
ATOM      3  C   LIG    1       23.660 -20.583   6.068  0.00  0.00    +0.002 C 
ATOM      4  C   LIG    1       23.326 -20.360   4.568  0.00  0.00    -0.003 C 
ATOM      5  C   LIG    1       24.490 -19.735   3.784  0.00  0.00    -0.000 C 
ATOM      6  C   LIG    1       25.679 -20.694   3.878  0.00  0.00    +0.005 C 
ATOM      7  C   LIG    1       24.786 -18.273   4.230  0.00  0.00    +0.019 C 
ATOM      8  C   LIG    1       23.525 -17.418   4.234  0.00  0.00    -0.064 C 
ATOM      9  C   LIG    1       23.503 -16.134   3.832  0.00  0.00    +0.026 C 
ATOM     10  C   LIG    1       24.753 -15.420   3.442  0.00  0.00    +0.080 C 
ATOM     11  N   LIG    1       24.833 -14.189   3.034  0.00  0.00    -0.092 NA
ATOM     12  C   LIG    1       26.058 -16.170   3.612  0.00  0.00    +0.059 C 
ATOM     13  C   LIG    1       22.266 -18.043   4.787  0.00  0.00    +0.031 C 
ATOM     14  C   LIG    1       25.875 -17.651   3.335  0.00  0.00    +0.014 C 
ATOM     15  C   LIG    1       22.069 -19.496   4.359  0.00  0.00    +0.008 C 
ATOM     16  C   LIG    1       22.638 -21.561   6.696  0.00  0.00    +0.008 C 
ATOM     17  C   LIG    1       26.166 -20.894   5.307  0.00  0.00    +0.011 C 
ATOM     18  C   LIG    1       23.417 -22.726   7.294  0.00  0.00    +0.049 C 
ENDROOT
BRANCH   1  20
ATOM     19  C   LIG    1       24.730 -24.213   4.431  0.00  0.00    +0.007 C 
ATOM     20  C   LIG    1       24.765 -23.507   5.402  0.00  0.00    -0.070 C 
ENDBRANCH   1  20
BRANCH   1  21
ATOM     21  O   LIG    1       25.754 -23.265   7.510  0.00  0.00    -0.376 OA
ATOM     22  H   LIG    1       25.523 -24.204   7.601  0.00  0.00    +0.211 HD
ENDBRANCH   1  21
BRANCH   2  23
ATOM     23  C   LIG    1       25.667 -20.452   7.682  0.00  0.00    +0.007 C 
ATOM     24  C   LIG    1       27.172 -20.294   7.842  0.00  0.00    +0.004 C 
ENDBRANCH   2  23
BRANCH  11  25
ATOM     25  O   LIG    1       23.577 -13.575   2.956  0.00  0.00    -0.409 OA
ATOM     26  H   LIG    1       23.800 -12.634   3.081  0.00  0.00    +0.328 HD
ENDBRANCH  11  25
TORSDOF 4
ENDMDL
MODEL 7
REMARK VINA RESULT:      -5.3      3.618      5.923
REMARK  Name = *****
REMARK                            x       y       z     vdW  Elec       q    Type
REMARK                         _______ _______ _______ _____ _____    ______ ____
ROOT
ATOM      1  C   LIG    1       24.983 -31.908  12.812  0.00  0.00    +0.132 C 
ATOM      2  C   LIG    1       25.544 -30.622  13.506  0.00  0.00    +0.014 C 
ATOM      3  C   LIG    1       24.274 -29.726  13.683  0.00  0.00    +0.002 C 
ATOM      4  C   LIG    1       24.059 -28.600  12.635  0.00  0.00    -0.003 C 
ATOM      5  C   LIG    1       25.353 -27.845  12.296  0.00  0.00    -0.000 C 
ATOM      6  C   LIG    1       26.344 -28.860  11.721  0.00  0.00    +0.005 C 
ATOM      7  C   LIG    1       25.886 -27.015  13.501  0.00  0.00    +0.019 C 
ATOM      8  C   LIG    1       24.801 -26.127  14.097  0.00  0.00    -0.064 C 
ATOM      9  C   LIG    1       25.031 -24.876  14.537  0.00  0.00    +0.026 C 
ATOM     10  C   LIG    1       26.406 -24.300  14.562  0.00  0.00    +0.080 C 
ATOM     11  N   LIG    1       26.726 -23.105  14.958  0.00  0.00    -0.092 NA
ATOM     12  C   LIG    1       27.544 -25.216  14.163  0.00  0.00    +0.059 C 
ATOM     13  C   LIG    1       23.424 -26.728  14.258  0.00  0.00    +0.031 C 
ATOM     14  C   LIG    1       27.111 -26.183  13.076  0.00  0.00    +0.014 C 
ATOM     15  C   LIG    1       22.990 -27.580  13.067  0.00  0.00    +0.008 C 
ATOM     16  C   LIG    1       23.062 -30.689  13.679  0.00  0.00    +0.008 C 
ATOM     17  C   LIG    1       26.717 -29.952  12.715  0.00  0.00    +0.011 C 
ATOM     18  C   LIG    1       23.589 -32.094  13.414  0.00  0.00    +0.049 C 
ENDROOT
BRANCH   1  20
ATOM     19  C   LIG    1       24.771 -31.790  10.142  0.00  0.00    +0.007 C 
ATOM     20  C   LIG    1       24.865 -31.816  11.340  0.00  0.00    -0.070 C 
ENDBRANCH   1  20
BRANCH   1  21
ATOM     21  O   LIG    1       25.777 -33.052  13.107  0.00  0.00    -0.376 OA
ATOM     22  H   LIG    1       25.669 -33.234  14.055  0.00  0.00    +0.211 HD
ENDBRANCH   1  21
BRANCH   2  23
ATOM     23  C   LIG    1       26.190 -30.931  14.918  0.00  0.00    +0.007 C 
ATOM     24  C   LIG    1       27.372 -30.110  15.412  0.00  0.00    +0.004 C 
ENDBRANCH   2  23
BRANCH  11  25
ATOM     25  O   LIG    1       25.607 -22.359  15.346  0.00  0.00    -0.409 OA
ATOM     26  H   LIG    1       25.671 -22.381  16.319  0.00  0.00    +0.328 HD
ENDBRANCH  11  25
TORSDOF 4
ENDMDL
MODEL 8
REMARK VINA RESULT:      -5.3      2.707      6.065
REMARK  Name = *****
REMARK                            x       y       z     vdW  Elec       q    Type
REMARK                         _______ _______ _______ _____ _____    ______ ____
ROOT
ATOM      1  C   LIG    1       24.800 -32.082   9.511  0.00  0.00    +0.132 C 
ATOM      2  C   LIG    1       24.597 -30.597   9.963  0.00  0.00    +0.014 C 
ATOM      3  C   LIG    1       26.048 -30.122  10.305  0.00  0.00    +0.002 C 
ATOM      4  C   LIG    1       26.448 -30.120  11.806  0.00  0.00    -0.003 C 
ATOM      5  C   LIG    1       25.344 -29.565  12.717  0.00  0.00    -0.000 C 
ATOM      6  C   LIG    1       24.111 -30.455  12.546  0.00  0.00    +0.005 C 
ATOM      7  C   LIG    1       25.096 -28.046  12.487  0.00  0.00    +0.019 C 
ATOM      8  C   LIG    1       26.392 -27.247  12.545  0.00  0.00    -0.064 C 
ATOM      9  C   LIG    1       26.485 -26.032  13.117  0.00  0.00    +0.026 C 
ATOM     10  C   LIG    1       25.284 -25.331  13.654  0.00  0.00    +0.080 C 
ATOM     11  N   LIG    1       25.274 -24.166  14.228  0.00  0.00    -0.092 NA
ATOM     12  C   LIG    1       23.942 -26.000  13.440  0.00  0.00    +0.059 C 
ATOM     13  C   LIG    1       27.601 -27.837  11.857  0.00  0.00    +0.031 C 
ATOM     14  C   LIG    1       24.070 -27.511  13.505  0.00  0.00    +0.014 C 
ATOM     15  C   LIG    1       27.749 -29.342  12.075  0.00  0.00    +0.008 C 
ATOM     16  C   LIG    1       27.003 -31.043   9.506  0.00  0.00    +0.008 C 
ATOM     17  C   LIG    1       23.562 -30.438  11.125  0.00  0.00    +0.011 C 
ATOM     18  C   LIG    1       26.151 -32.083   8.790  0.00  0.00    +0.049 C 
ENDROOT
BRANCH   1  20
ATOM     19  C   LIG    1       24.880 -33.825  11.545  0.00  0.00    +0.007 C 
ATOM     20  C   LIG    1       24.842 -33.065  10.615  0.00  0.00    -0.070 C 
ENDBRANCH   1  20
BRANCH   1  21
ATOM     21  O   LIG    1       23.785 -32.497   8.604  0.00  0.00    -0.376 OA
ATOM     22  H   LIG    1       23.329 -33.249   9.016  0.00  0.00    +0.211 HD
ENDBRANCH   1  21
BRANCH   2  23
ATOM     23  C   LIG    1       23.990 -29.693   8.812  0.00  0.00    +0.007 C 
ATOM     24  C   LIG    1       24.914 -28.949   7.860  0.00  0.00    +0.004 C 
ENDBRANCH   2  23
BRANCH  11  25
ATOM     25  O   LIG    1       26.558 -23.617  14.334  0.00  0.00    -0.409 OA
ATOM     26  H   LIG    1       26.793 -23.461  13.401  0.00  0.00    +0.328 HD
ENDBRANCH  11  25
TORSDOF 4
ENDMDL
MODEL 9
REMARK VINA RESULT:      -5.1      2.518      6.709
REMARK  Name = *****
REMARK                            x       y       z     vdW  Elec       q    Type
REMARK                         _______ _______ _______ _____ _____    ______ ____
ROOT
ATOM      1  C   LIG    1       24.197 -31.456   6.769  0.00  0.00    +0.132 C 
ATOM      2  C   LIG    1       24.426 -30.290   7.788  0.00  0.00    +0.014 C 
ATOM      3  C   LIG    1       25.870 -30.561   8.327  0.00  0.00    +0.002 C 
ATOM      4  C   LIG    1       25.981 -31.271   9.704  0.00  0.00    -0.003 C 
ATOM      5  C   LIG    1       24.985 -30.726  10.738  0.00  0.00    -0.000 C 
ATOM      6  C   LIG    1       23.575 -30.954  10.189  0.00  0.00    +0.005 C 
ATOM      7  C   LIG    1       25.303 -29.259  11.149  0.00  0.00    +0.019 C 
ATOM      8  C   LIG    1       26.761 -29.090  11.559  0.00  0.00    -0.064 C 
ATOM      9  C   LIG    1       27.153 -28.309  12.583  0.00  0.00    +0.026 C 
ATOM     10  C   LIG    1       26.181 -27.465  13.334  0.00  0.00    +0.080 C 
ATOM     11  N   LIG    1       26.462 -26.688  14.338  0.00  0.00    -0.092 NA
ATOM     12  C   LIG    1       24.752 -27.448  12.835  0.00  0.00    +0.059 C 
ATOM     13  C   LIG    1       27.803 -29.787  10.716  0.00  0.00    +0.031 C 
ATOM     14  C   LIG    1       24.354 -28.802  12.274  0.00  0.00    +0.014 C 
ATOM     15  C   LIG    1       27.400 -31.200  10.298  0.00  0.00    +0.008 C 
ATOM     16  C   LIG    1       26.585 -31.400   7.241  0.00  0.00    +0.008 C 
ATOM     17  C   LIG    1       23.318 -30.202   8.890  0.00  0.00    +0.011 C 
ATOM     18  C   LIG    1       25.573 -31.695   6.141  0.00  0.00    +0.049 C 
ENDROOT
BRANCH   1  20
ATOM     19  C   LIG    1       23.352 -33.769   7.827  0.00  0.00    +0.007 C 
ATOM     20  C   LIG    1       23.716 -32.718   7.371  0.00  0.00    -0.070 C 
ENDBRANCH   1  20
BRANCH   1  21
ATOM     21  O   LIG    1       23.275 -31.088   5.750  0.00  0.00    -0.376 OA
ATOM     22  H   LIG    1       23.799 -30.812   4.980  0.00  0.00    +0.211 HD
ENDBRANCH   1  21
BRANCH   2  23
ATOM     23  C   LIG    1       24.365 -28.865   7.099  0.00  0.00    +0.007 C 
ATOM     24  C   LIG    1       25.525 -27.893   7.254  0.00  0.00    +0.004 C 
ENDBRANCH   2  23
BRANCH  11  25
ATOM     25  O   LIG    1       27.816 -26.745  14.688  0.00  0.00    -0.409 OA
ATOM     26  H   LIG    1       27.863 -27.577  15.195  0.00  0.00    +0.328 HD
ENDBRANCH  11  25
TORSDOF 4
ENDMDL
