MODEL 1
REMARK VINA RESULT:       1.9      0.000      0.000
REMARK  Name = *****
REMARK                            x       y       z     vdW  Elec       q    Type
REMARK                         _______ _______ _______ _____ _____    ______ ____
ROOT
ATOM      1  C   LIG    1       26.933 -16.442   3.976  0.00  0.00    +0.065 C 
ATOM      2  C   LIG    1       25.945 -15.391   3.431  0.00  0.00    +0.096 C 
ATOM      3  C   LIG    1       26.636 -14.007   3.296  0.00  0.00    +0.065 C 
ATOM      4  C   LIG    1       27.764 -13.729   4.001  0.00  0.00    +0.016 C 
ATOM      5  C   LIG    1       28.567 -12.448   3.945  0.00  0.00    +0.061 C 
ATOM      6  N   LIG    1       28.307 -14.703   4.827  0.00  0.00    -0.321 N 
ATOM      7  H   LIG    1       29.228 -14.488   5.208  0.00  0.00    +0.152 HD
ATOM      8  C   LIG    1       28.024 -16.053   4.683  0.00  0.00    +0.016 C 
ATOM      9  C   LIG    1       29.019 -16.976   5.343  0.00  0.00    +0.061 C 
ENDROOT
BRANCH   2  10
ATOM     10  C   LIG    1       24.626 -15.337   4.264  0.00  0.00    -0.028 A 
ATOM     11  C   LIG    1       23.670 -16.391   4.341  0.00  0.00    -0.021 A 
ATOM     12  C   LIG    1       22.501 -16.211   5.117  0.00  0.00    +0.008 A 
ATOM     13  C   LIG    1       22.279 -15.056   5.853  0.00  0.00    +0.001 A 
ATOM     14  C   LIG    1       23.217 -14.038   5.812  0.00  0.00    +0.000 A 
ATOM     15  C   LIG    1       24.365 -14.171   5.024  0.00  0.00    +0.005 A 
BRANCH  11  16
ATOM     16  C   LIG    1       23.776 -17.659   3.598  0.00  0.00    +0.015 C 
ATOM     17  C   LIG    1       23.785 -18.892   4.152  0.00  0.00    +0.092 C 
BRANCH  17  18
ATOM     18  C   LIG    1       23.892 -20.129   3.351  0.00  0.00    +0.332 C 
ATOM     19  O   LIG    1       24.414 -20.153   2.234  0.00  0.00    -0.246 OA
BRANCH  18  20
ATOM     20  O   LIG    1       23.313 -21.144   4.015  0.00  0.00    -0.456 OA
BRANCH  20  21
ATOM     21  C   LIG    1       22.469 -20.912   5.162  0.00  0.00    +0.105 C 
ATOM     22  C   LIG    1       21.103 -21.569   4.951  0.00  0.00    +0.055 C 
ATOM     23  C   LIG    1       22.274 -19.389   5.183  0.00  0.00    +0.055 C 
ATOM     24  C   LIG    1       23.139 -21.367   6.458  0.00  0.00    +0.055 C 
ENDBRANCH  20  21
ENDBRANCH  18  20
ENDBRANCH  17  18
ENDBRANCH  11  16
ENDBRANCH   2  10
BRANCH   1  25
ATOM     25  C   LIG    1       26.663 -17.847   3.562  0.00  0.00    +0.338 C 
ATOM     26  O   LIG    1       26.050 -18.155   2.555  0.00  0.00    -0.245 OA
BRANCH  25  27
ATOM     27  O   LIG    1       27.289 -18.721   4.392  0.00  0.00    -0.462 OA
BRANCH  27  29
ATOM     28  C   LIG    1       27.057 -20.165   6.318  0.00  0.00    +0.048 C 
ATOM     29  C   LIG    1       26.489 -19.760   4.970  0.00  0.00    +0.229 C 
ENDBRANCH  27  29
ENDBRANCH  25  27
ENDBRANCH   1  25
BRANCH   3  30
ATOM     30  C   LIG    1       26.155 -13.072   2.240  0.00  0.00    +0.338 C 
ATOM     31  O   LIG    1       26.769 -12.098   1.822  0.00  0.00    -0.245 OA
BRANCH  30  32
ATOM     32  O   LIG    1       24.937 -13.480   1.813  0.00  0.00    -0.462 OA
BRANCH  32  33
ATOM     33  C   LIG    1       23.842 -12.558   1.932  0.00  0.00    +0.229 C 
ATOM     34  C   LIG    1       24.128 -11.502   2.985  0.00  0.00    +0.048 C 
ENDBRANCH  32  33
ENDBRANCH  30  32
ENDBRANCH   3  30
TORSDOF 11
ENDMDL
MODEL 2
REMARK VINA RESULT:       4.9      2.211      6.745
REMARK  Name = *****
REMARK                            x       y       z     vdW  Elec       q    Type
REMARK                         _______ _______ _______ _____ _____    ______ ____
ROOT
ATOM      1  C   LIG    1       21.947 -19.229   4.042  0.00  0.00    +0.065 C 
ATOM      2  C   LIG    1       23.019 -18.126   3.924  0.00  0.00    +0.096 C 
ATOM      3  C   LIG    1       24.428 -18.695   4.239  0.00  0.00    +0.065 C 
ATOM      4  C   LIG    1       24.564 -19.844   4.953  0.00  0.00    +0.016 C 
ATOM      5  C   LIG    1       25.861 -20.538   5.303  0.00  0.00    +0.061 C 
ATOM      6  N   LIG    1       23.427 -20.518   5.379  0.00  0.00    -0.321 N 
ATOM      7  H   LIG    1       23.592 -21.443   5.774  0.00  0.00    +0.152 HD
ATOM      8  C   LIG    1       22.182 -20.333   4.797  0.00  0.00    +0.016 C 
ATOM      9  C   LIG    1       21.194 -21.440   5.067  0.00  0.00    +0.061 C 
ENDROOT
BRANCH   2  10
ATOM     10  C   LIG    1       22.663 -16.868   4.776  0.00  0.00    -0.028 A 
ATOM     11  C   LIG    1       23.289 -15.594   4.646  0.00  0.00    -0.021 A 
ATOM     12  C   LIG    1       22.891 -14.535   5.494  0.00  0.00    +0.008 A 
ATOM     13  C   LIG    1       21.866 -14.681   6.419  0.00  0.00    +0.001 A 
ATOM     14  C   LIG    1       21.228 -15.905   6.532  0.00  0.00    +0.000 A 
ATOM     15  C   LIG    1       21.625 -16.983   5.733  0.00  0.00    +0.005 A 
BRANCH  11  16
ATOM     16  C   LIG    1       24.398 -15.310   3.718  0.00  0.00    +0.015 C 
ATOM     17  C   LIG    1       25.203 -14.224   3.770  0.00  0.00    +0.092 C 
BRANCH  17  18
ATOM     18  C   LIG    1       26.302 -13.996   2.809  0.00  0.00    +0.332 C 
ATOM     19  O   LIG    1       26.506 -14.738   1.845  0.00  0.00    -0.246 OA
BRANCH  18  20
ATOM     20  O   LIG    1       27.013 -12.920   3.190  0.00  0.00    -0.456 OA
BRANCH  20  21
ATOM     21  C   LIG    1       28.141 -13.037   4.082  0.00  0.00    +0.105 C 
ATOM     22  C   LIG    1       29.272 -12.113   3.622  0.00  0.00    +0.055 C 
ATOM     23  C   LIG    1       28.606 -14.490   3.911  0.00  0.00    +0.055 C 
ATOM     24  C   LIG    1       27.741 -12.787   5.535  0.00  0.00    +0.055 C 
ENDBRANCH  20  21
ENDBRANCH  18  20
ENDBRANCH  17  18
ENDBRANCH  11  16
ENDBRANCH   2  10
BRANCH   1  25
ATOM     25  C   LIG    1       20.742 -19.043   3.188  0.00  0.00    +0.338 C 
ATOM     26  O   LIG    1       19.621 -19.400   3.503  0.00  0.00    -0.245 OA
BRANCH  25  27
ATOM     27  O   LIG    1       21.047 -18.325   2.075  0.00  0.00    -0.462 OA
BRANCH  27  29
ATOM     28  C   LIG    1       19.352 -16.867   2.996  0.00  0.00    +0.048 C 
ATOM     29  C   LIG    1       20.255 -17.160   1.812  0.00  0.00    +0.229 C 
ENDBRANCH  27  29
ENDBRANCH  25  27
ENDBRANCH   1  25
BRANCH   3  30
ATOM     30  C   LIG    1       25.610 -18.070   3.581  0.00  0.00    +0.338 C 
ATOM     31  O   LIG    1       25.753 -17.918   2.374  0.00  0.00    -0.245 OA
BRANCH  30  32
ATOM     32  O   LIG    1       26.494 -17.691   4.533  0.00  0.00    -0.462 OA
BRANCH  32  33
ATOM     33  C   LIG    1       27.890 -17.702   4.195  0.00  0.00    +0.229 C 
ATOM     34  C   LIG    1       28.733 -18.169   5.368  0.00  0.00    +0.048 C 
ENDBRANCH  32  33
ENDBRANCH  30  32
ENDBRANCH   3  30
TORSDOF 11
ENDMDL
