MODEL 1
REMARK VINA RESULT:      -6.8      0.000      0.000
REMARK  Name = *****
REMARK                            x       y       z     vdW  Elec       q    Type
REMARK                         _______ _______ _______ _____ _____    ______ ____
ROOT
ATOM      1  C   LIG    1       25.199 -21.323   6.441  0.00  0.00    +0.161 C 
ENDROOT
BRANCH   1   2
ATOM      2  C   LIG    1       24.349 -20.461   5.505  0.00  0.00    -0.018 A 
ATOM      3  C   LIG    1       24.882 -19.902   4.323  0.00  0.00    +0.006 A 
ATOM      4  C   LIG    1       24.113 -19.049   3.525  0.00  0.00    +0.000 A 
ATOM      5  C   LIG    1       22.818 -18.718   3.893  0.00  0.00    +0.000 A 
ATOM      6  C   LIG    1       22.258 -19.292   5.038  0.00  0.00    +0.000 A 
ATOM      7  C   LIG    1       23.013 -20.176   5.817  0.00  0.00    +0.006 A 
ENDBRANCH   1   2
BRANCH   1   8
ATOM      8  C   LIG    1       26.412 -20.551   7.111  0.00  0.00    +0.086 C 
ATOM      9  C   LIG    1       26.363 -20.682   8.646  0.00  0.00    +0.027 C 
BRANCH   8  10
ATOM     10  N   LIG    1       27.810 -20.831   6.643  0.00  0.00    -0.300 NA
ATOM     11  C   LIG    1       28.696 -21.223   7.738  0.00  0.00    +0.105 C 
BRANCH  10  13
ATOM     12  C   LIG    1       29.562 -19.035   6.441  0.00  0.00    +0.020 C 
ATOM     13  C   LIG    1       28.405 -19.796   5.784  0.00  0.00    +0.081 C 
ENDBRANCH  10  13
ENDBRANCH   8  10
ENDBRANCH   1   8
BRANCH   1  14
ATOM     14  O   LIG    1       25.644 -22.450   5.680  0.00  0.00    -0.386 OA
ATOM     15  H   LIG    1       26.506 -22.217   5.294  0.00  0.00    +0.210 HD
ENDBRANCH   1  14
TORSDOF 5
ENDMDL
MODEL 2
REMARK VINA RESULT:      -6.8      2.703      3.630
REMARK  Name = *****
REMARK                            x       y       z     vdW  Elec       q    Type
REMARK                         _______ _______ _______ _____ _____    ______ ____
ROOT
ATOM      1  C   LIG    1       26.073 -20.697   7.829  0.00  0.00    +0.161 C 
ENDROOT
BRANCH   1   2
ATOM      2  C   LIG    1       25.193 -21.898   7.476  0.00  0.00    -0.018 A 
ATOM      3  C   LIG    1       25.745 -23.174   7.231  0.00  0.00    +0.006 A 
ATOM      4  C   LIG    1       24.933 -24.239   6.827  0.00  0.00    +0.000 A 
ATOM      5  C   LIG    1       23.572 -24.054   6.638  0.00  0.00    +0.000 A 
ATOM      6  C   LIG    1       23.000 -22.810   6.913  0.00  0.00    +0.000 A 
ATOM      7  C   LIG    1       23.805 -21.753   7.355  0.00  0.00    +0.006 A 
ENDBRANCH   1   2
BRANCH   1   8
ATOM      8  C   LIG    1       27.544 -20.775   7.243  0.00  0.00    +0.086 C 
ATOM      9  C   LIG    1       27.648 -19.992   5.919  0.00  0.00    +0.027 C 
BRANCH   8  10
ATOM     10  N   LIG    1       28.705 -20.404   8.119  0.00  0.00    -0.300 NA
ATOM     11  C   LIG    1       29.351 -19.164   7.693  0.00  0.00    +0.105 C 
BRANCH  10  13
ATOM     12  C   LIG    1       31.063 -20.986   8.781  0.00  0.00    +0.020 C 
ATOM     13  C   LIG    1       29.672 -21.484   8.370  0.00  0.00    +0.081 C 
ENDBRANCH  10  13
ENDBRANCH   8  10
ENDBRANCH   1   8
BRANCH   1  14
ATOM     14  O   LIG    1       26.075 -20.588   9.256  0.00  0.00    -0.386 OA
ATOM     15  H   LIG    1       26.998 -20.458   9.535  0.00  0.00    +0.210 HD
ENDBRANCH   1  14
TORSDOF 5
ENDMDL
MODEL 3
REMARK VINA RESULT:      -6.8      2.933      4.037
REMARK  Name = *****
REMARK                            x       y       z     vdW  Elec       q    Type
REMARK                         _______ _______ _______ _____ _____    ______ ____
ROOT
ATOM      1  C   LIG    1       23.816 -22.453   6.449  0.00  0.00    +0.161 C 
ENDROOT
BRANCH   1   2
ATOM      2  C   LIG    1       23.721 -21.207   5.566  0.00  0.00    -0.018 A 
ATOM      3  C   LIG    1       22.663 -20.283   5.699  0.00  0.00    +0.006 A 
ATOM      4  C   LIG    1       22.549 -19.195   4.826  0.00  0.00    +0.000 A 
ATOM      5  C   LIG    1       23.462 -19.018   3.799  0.00  0.00    +0.000 A 
ATOM      6  C   LIG    1       24.539 -19.899   3.674  0.00  0.00    +0.000 A 
ATOM      7  C   LIG    1       24.677 -20.966   4.570  0.00  0.00    +0.006 A 
ENDBRANCH   1   2
BRANCH   1   8
ATOM      8  C   LIG    1       25.108 -23.335   6.190  0.00  0.00    +0.086 C 
ATOM      9  C   LIG    1       26.204 -23.018   7.227  0.00  0.00    +0.027 C 
BRANCH   8  10
ATOM     10  N   LIG    1       24.970 -24.824   6.069  0.00  0.00    -0.300 NA
ATOM     11  C   LIG    1       25.821 -25.542   7.016  0.00  0.00    +0.105 C 
BRANCH  10  13
ATOM     12  C   LIG    1       25.742 -26.737   4.625  0.00  0.00    +0.020 C 
ATOM     13  C   LIG    1       25.079 -25.356   4.702  0.00  0.00    +0.081 C 
ENDBRANCH  10  13
ENDBRANCH   8  10
ENDBRANCH   1   8
BRANCH   1  14
ATOM     14  O   LIG    1       22.614 -23.202   6.243  0.00  0.00    -0.386 OA
ATOM     15  H   LIG    1       22.506 -23.320   5.284  0.00  0.00    +0.210 HD
ENDBRANCH   1  14
TORSDOF 5
ENDMDL
MODEL 4
REMARK VINA RESULT:      -6.7      2.759      5.103
REMARK  Name = *****
REMARK                            x       y       z     vdW  Elec       q    Type
REMARK                         _______ _______ _______ _____ _____    ______ ____
ROOT
ATOM      1  C   LIG    1       24.599 -21.868   7.694  0.00  0.00    +0.161 C 
ENDROOT
BRANCH   1   2
ATOM      2  C   LIG    1       24.712 -23.283   7.123  0.00  0.00    -0.018 A 
ATOM      3  C   LIG    1       23.575 -24.001   6.692  0.00  0.00    +0.006 A 
ATOM      4  C   LIG    1       23.690 -25.325   6.252  0.00  0.00    +0.000 A 
ATOM      5  C   LIG    1       24.920 -25.963   6.252  0.00  0.00    +0.000 A 
ATOM      6  C   LIG    1       26.063 -25.257   6.637  0.00  0.00    +0.000 A 
ATOM      7  C   LIG    1       25.957 -23.921   7.041  0.00  0.00    +0.006 A 
ENDBRANCH   1   2
BRANCH   1   8
ATOM      8  C   LIG    1       24.893 -20.719   6.642  0.00  0.00    +0.086 C 
ATOM      9  C   LIG    1       26.406 -20.436   6.548  0.00  0.00    +0.027 C 
BRANCH   8  10
ATOM     10  N   LIG    1       24.333 -20.831   5.254  0.00  0.00    -0.300 NA
ATOM     11  C   LIG    1       25.098 -20.055   4.280  0.00  0.00    +0.105 C 
BRANCH  10  13
ATOM     12  C   LIG    1       22.506 -19.135   4.905  0.00  0.00    +0.020 C 
ATOM     13  C   LIG    1       22.885 -20.602   5.141  0.00  0.00    +0.081 C 
ENDBRANCH  10  13
ENDBRANCH   8  10
ENDBRANCH   1   8
BRANCH   1  14
ATOM     14  O   LIG    1       25.485 -21.800   8.815  0.00  0.00    -0.386 OA
ATOM     15  H   LIG    1       25.728 -22.712   9.049  0.00  0.00    +0.210 HD
ENDBRANCH   1  14
TORSDOF 5
ENDMDL
MODEL 5
REMARK VINA RESULT:      -6.6      2.703      3.853
REMARK  Name = *****
REMARK                            x       y       z     vdW  Elec       q    Type
REMARK                         _______ _______ _______ _____ _____    ______ ____
ROOT
ATOM      1  C   LIG    1       24.933 -21.737   7.103  0.00  0.00    +0.161 C 
ENDROOT
BRANCH   1   2
ATOM      2  C   LIG    1       24.335 -20.908   5.964  0.00  0.00    -0.018 A 
ATOM      3  C   LIG    1       25.033 -20.698   4.755  0.00  0.00    +0.006 A 
ATOM      4  C   LIG    1       24.505 -19.867   3.760  0.00  0.00    +0.000 A 
ATOM      5  C   LIG    1       23.297 -19.217   3.953  0.00  0.00    +0.000 A 
ATOM      6  C   LIG    1       22.572 -19.442   5.126  0.00  0.00    +0.000 A 
ATOM      7  C   LIG    1       23.079 -20.303   6.107  0.00  0.00    +0.006 A 
ENDBRANCH   1   2
BRANCH   1   8
ATOM      8  C   LIG    1       24.615 -23.288   7.011  0.00  0.00    +0.086 C 
ATOM      9  C   LIG    1       23.130 -23.524   6.671  0.00  0.00    +0.027 C 
BRANCH   8  10
ATOM     10  N   LIG    1       25.460 -24.161   6.131  0.00  0.00    -0.300 NA
ATOM     11  C   LIG    1       24.824 -24.437   4.844  0.00  0.00    +0.105 C 
BRANCH  10  13
ATOM     12  C   LIG    1       25.780 -26.651   5.940  0.00  0.00    +0.020 C 
ATOM     13  C   LIG    1       25.985 -25.378   6.770  0.00  0.00    +0.081 C 
ENDBRANCH  10  13
ENDBRANCH   8  10
ENDBRANCH   1   8
BRANCH   1  14
ATOM     14  O   LIG    1       24.455 -21.170   8.326  0.00  0.00    -0.386 OA
ATOM     15  H   LIG    1       24.639 -21.810   9.034  0.00  0.00    +0.210 HD
ENDBRANCH   1  14
TORSDOF 5
ENDMDL
MODEL 6
REMARK VINA RESULT:      -6.6      2.096      5.109
REMARK  Name = *****
REMARK                            x       y       z     vdW  Elec       q    Type
REMARK                         _______ _______ _______ _____ _____    ______ ____
ROOT
ATOM      1  C   LIG    1       26.417 -22.049   8.119  0.00  0.00    +0.161 C 
ENDROOT
BRANCH   1   2
ATOM      2  C   LIG    1       27.513 -21.205   7.465  0.00  0.00    -0.018 A 
ATOM      3  C   LIG    1       28.823 -21.156   7.988  0.00  0.00    +0.006 A 
ATOM      4  C   LIG    1       29.788 -20.314   7.425  0.00  0.00    +0.000 A 
ATOM      5  C   LIG    1       29.467 -19.493   6.354  0.00  0.00    +0.000 A 
ATOM      6  C   LIG    1       28.188 -19.556   5.796  0.00  0.00    +0.000 A 
ATOM      7  C   LIG    1       27.232 -20.427   6.334  0.00  0.00    +0.006 A 
ENDBRANCH   1   2
BRANCH   1   8
ATOM      8  C   LIG    1       25.286 -22.532   7.119  0.00  0.00    +0.086 C 
ATOM      9  C   LIG    1       25.412 -24.042   6.836  0.00  0.00    +0.027 C 
BRANCH   8  10
ATOM     10  N   LIG    1       23.851 -22.213   7.422  0.00  0.00    -0.300 NA
ATOM     11  C   LIG    1       22.931 -23.208   6.873  0.00  0.00    +0.105 C 
BRANCH  10  13
ATOM     12  C   LIG    1       23.182 -20.582   5.624  0.00  0.00    +0.020 C 
ATOM     13  C   LIG    1       23.435 -20.835   7.116  0.00  0.00    +0.081 C 
ENDBRANCH  10  13
ENDBRANCH   8  10
ENDBRANCH   1   8
BRANCH   1  14
ATOM     14  O   LIG    1       25.879 -21.272   9.193  0.00  0.00    -0.386 OA
ATOM     15  H   LIG    1       26.258 -20.379   9.124  0.00  0.00    +0.210 HD
ENDBRANCH   1  14
TORSDOF 5
ENDMDL
MODEL 7
REMARK VINA RESULT:      -6.4      1.870      5.046
REMARK  Name = *****
REMARK                            x       y       z     vdW  Elec       q    Type
REMARK                         _______ _______ _______ _____ _____    ______ ____
ROOT
ATOM      1  C   LIG    1       26.750 -21.319   8.099  0.00  0.00    +0.161 C 
ENDROOT
BRANCH   1   2
ATOM      2  C   LIG    1       27.775 -20.351   7.503  0.00  0.00    -0.018 A 
ATOM      3  C   LIG    1       27.799 -20.054   6.124  0.00  0.00    +0.006 A 
ATOM      4  C   LIG    1       28.796 -19.232   5.587  0.00  0.00    +0.000 A 
ATOM      5  C   LIG    1       29.793 -18.712   6.398  0.00  0.00    +0.000 A 
ATOM      6  C   LIG    1       29.764 -18.962   7.772  0.00  0.00    +0.000 A 
ATOM      7  C   LIG    1       28.745 -19.753   8.318  0.00  0.00    +0.006 A 
ENDBRANCH   1   2
BRANCH   1   8
ATOM      8  C   LIG    1       25.711 -21.891   7.047  0.00  0.00    +0.086 C 
ATOM      9  C   LIG    1       25.526 -23.411   7.229  0.00  0.00    +0.027 C 
BRANCH   8  10
ATOM     10  N   LIG    1       24.360 -21.249   6.924  0.00  0.00    -0.300 NA
ATOM     11  C   LIG    1       23.271 -22.180   7.216  0.00  0.00    +0.105 C 
BRANCH  10  13
ATOM     12  C   LIG    1       22.664 -20.128   5.438  0.00  0.00    +0.020 C 
ATOM     13  C   LIG    1       24.134 -20.494   5.682  0.00  0.00    +0.081 C 
ENDBRANCH  10  13
ENDBRANCH   8  10
ENDBRANCH   1   8
BRANCH   1  14
ATOM     14  O   LIG    1       26.097 -20.628   9.168  0.00  0.00    -0.386 OA
ATOM     15  H   LIG    1       26.471 -19.731   9.205  0.00  0.00    +0.210 HD
ENDBRANCH   1  14
TORSDOF 5
ENDMDL
MODEL 8
REMARK VINA RESULT:      -6.4      2.216      5.500
REMARK  Name = *****
REMARK                            x       y       z     vdW  Elec       q    Type
REMARK                         _______ _______ _______ _____ _____    ______ ____
ROOT
ATOM      1  C   LIG    1       26.701 -20.275   6.015  0.00  0.00    +0.161 C 
ENDROOT
BRANCH   1   2
ATOM      2  C   LIG    1       28.153 -20.165   6.482  0.00  0.00    -0.018 A 
ATOM      3  C   LIG    1       28.677 -21.015   7.481  0.00  0.00    +0.006 A 
ATOM      4  C   LIG    1       29.982 -20.844   7.954  0.00  0.00    +0.000 A 
ATOM      5  C   LIG    1       30.780 -19.820   7.466  0.00  0.00    +0.000 A 
ATOM      6  C   LIG    1       30.295 -18.993   6.449  0.00  0.00    +0.000 A 
ATOM      7  C   LIG    1       29.002 -19.187   5.947  0.00  0.00    +0.006 A 
ENDBRANCH   1   2
BRANCH   1   8
ATOM      8  C   LIG    1       25.903 -21.486   6.654  0.00  0.00    +0.086 C 
ATOM      9  C   LIG    1       25.151 -21.039   7.923  0.00  0.00    +0.027 C 
BRANCH   8  10
ATOM     10  N   LIG    1       24.970 -22.288   5.793  0.00  0.00    -0.300 NA
ATOM     11  C   LIG    1       23.615 -21.741   5.781  0.00  0.00    +0.105 C 
BRANCH  10  13
ATOM     12  C   LIG    1       23.678 -24.287   6.614  0.00  0.00    +0.020 C 
ATOM     13  C   LIG    1       24.987 -23.740   6.032  0.00  0.00    +0.081 C 
ENDBRANCH  10  13
ENDBRANCH   8  10
ENDBRANCH   1   8
BRANCH   1  14
ATOM     14  O   LIG    1       26.728 -20.352   4.586  0.00  0.00    -0.386 OA
ATOM     15  H   LIG    1       25.834 -20.597   4.292  0.00  0.00    +0.210 HD
ENDBRANCH   1  14
TORSDOF 5
ENDMDL
MODEL 9
REMARK VINA RESULT:      -6.4      2.039      3.322
REMARK  Name = *****
REMARK                            x       y       z     vdW  Elec       q    Type
REMARK                         _______ _______ _______ _____ _____    ______ ____
ROOT
ATOM      1  C   LIG    1       28.066 -20.250   6.128  0.00  0.00    +0.161 C 
ENDROOT
BRANCH   1   2
ATOM      2  C   LIG    1       26.551 -20.380   6.297  0.00  0.00    -0.018 A 
ATOM      3  C   LIG    1       25.962 -20.597   7.561  0.00  0.00    +0.006 A 
ATOM      4  C   LIG    1       24.582 -20.796   7.683  0.00  0.00    +0.000 A 
ATOM      5  C   LIG    1       23.770 -20.808   6.560  0.00  0.00    +0.000 A 
ATOM      6  C   LIG    1       24.328 -20.556   5.303  0.00  0.00    +0.000 A 
ATOM      7  C   LIG    1       25.702 -20.317   5.184  0.00  0.00    +0.006 A 
ENDBRANCH   1   2
BRANCH   1   8
ATOM      8  C   LIG    1       28.848 -19.980   7.480  0.00  0.00    +0.086 C 
ATOM      9  C   LIG    1       29.481 -21.279   8.017  0.00  0.00    +0.027 C 
BRANCH   8  10
ATOM     10  N   LIG    1       29.873 -18.884   7.530  0.00  0.00    -0.300 NA
ATOM     11  C   LIG    1       31.174 -19.315   7.021  0.00  0.00    +0.105 C 
BRANCH  10  13
ATOM     12  C   LIG    1       31.414 -18.075   9.349  0.00  0.00    +0.020 C 
ATOM     13  C   LIG    1       29.979 -18.181   8.818  0.00  0.00    +0.081 C 
ENDBRANCH  10  13
ENDBRANCH   8  10
ENDBRANCH   1   8
BRANCH   1  14
ATOM     14  O   LIG    1       28.291 -19.213   5.169  0.00  0.00    -0.386 OA
ATOM     15  H   LIG    1       29.225 -18.953   5.237  0.00  0.00    +0.210 HD
ENDBRANCH   1  14
TORSDOF 5
ENDMDL
