MODEL 1
REMARK VINA RESULT:      14.5      0.000      0.000
REMARK  Name = *****
REMARK                            x       y       z     vdW  Elec       q    Type
REMARK                         _______ _______ _______ _____ _____    ______ ____
ROOT
ATOM      1  C   LIG    1       27.951 -17.701   3.411  0.00  0.00    +0.086 C 
ENDROOT
BRANCH   1   5
ATOM      2  C   LIG    1       25.915 -13.893   3.852  0.00  0.00    +0.101 C 
ATOM      3  C   LIG    1       25.107 -15.192   3.624  0.00  0.00    +0.047 C 
ATOM      4  C   LIG    1       25.981 -16.359   3.160  0.00  0.00    +0.086 C 
ATOM      5  N   LIG    1       27.129 -16.631   4.037  0.00  0.00    -0.302 NA
ATOM      6  C   LIG    1       27.917 -15.420   4.317  0.00  0.00    +0.086 C 
ATOM      7  C   LIG    1       27.065 -14.249   4.824  0.00  0.00    +0.047 C 
BRANCH   2   8
ATOM      8  N   LIG    1       25.072 -12.736   4.374  0.00  0.00    -0.289 NA
ATOM      9  C   LIG    1       25.022 -12.661   5.851  0.00  0.00    +0.085 C 
ATOM     10  C   LIG    1       24.219 -11.458   6.356  0.00  0.00    +0.015 C 
ATOM     11  C   LIG    1       22.807 -11.448   5.791  0.00  0.00    +0.002 C 
ATOM     12  C   LIG    1       22.857 -11.568   4.276  0.00  0.00    +0.015 C 
ATOM     13  C   LIG    1       23.688 -12.777   3.842  0.00  0.00    +0.085 C 
ENDBRANCH   2   8
BRANCH   2  17
ATOM     14  N   LIG    1       27.500 -14.260   1.935  0.00  0.00    -0.328 N 
ATOM     15  H   LIG    1       27.996 -14.915   2.523  0.00  0.00    +0.145 HD
ATOM     16  H   LIG    1       27.977 -13.891   1.121  0.00  0.00    +0.145 HD
ATOM     17  C   LIG    1       26.553 -13.436   2.481  0.00  0.00    +0.231 C 
ATOM     18  O   LIG    1       26.274 -12.399   1.899  0.00  0.00    -0.274 OA
ENDBRANCH   2  17
ENDBRANCH   1   5
BRANCH   1  19
ATOM     19  C   LIG    1       27.191 -18.512   2.359  0.00  0.00    +0.035 C 
BRANCH  19  20
ATOM     20  C   LIG    1       26.217 -19.540   2.964  0.00  0.00    +0.112 C 
BRANCH  20  21
ATOM     21  N   LIG    1       25.927 -19.264   4.401  0.00  0.00    -0.299 N 
ATOM     22  C   LIG    1       24.584 -19.299   4.821  0.00  0.00    +0.038 A 
ATOM     23  C   LIG    1       24.105 -20.135   5.850  0.00  0.00    -0.026 A 
ATOM     24  C   LIG    1       22.736 -20.076   6.200  0.00  0.00    +0.007 A 
ATOM     25  C   LIG    1       21.854 -19.205   5.562  0.00  0.00    +0.020 A 
ATOM     26  C   LIG    1       22.332 -18.370   4.567  0.00  0.00    +0.043 A 
ATOM     27 CL   LIG    1       21.271 -17.251   3.804  0.00  0.00    -0.084 Cl
ATOM     28  C   LIG    1       24.951 -21.076   6.684  0.00  0.00    +0.041 C 
ATOM     29  C   LIG    1       26.299 -21.562   6.149  0.00  0.00    +0.041 C 
ATOM     30  C   LIG    1       27.313 -20.457   6.041  0.00  0.00    -0.026 A 
ATOM     31  C   LIG    1       28.527 -20.539   6.742  0.00  0.00    +0.005 A 
ATOM     32  C   LIG    1       29.451 -19.494   6.695  0.00  0.00    +0.000 A 
ATOM     33  C   LIG    1       29.161 -18.348   5.963  0.00  0.00    +0.002 A 
ATOM     34  C   LIG    1       27.977 -18.279   5.231  0.00  0.00    +0.024 A 
ATOM     35  C   LIG    1       23.676 -18.416   4.199  0.00  0.00    +0.043 A 
ATOM     36  C   LIG    1       27.059 -19.344   5.231  0.00  0.00    +0.037 A 
ENDBRANCH  20  21
ENDBRANCH  19  20
ENDBRANCH   1  19
TORSDOF 6
ENDMDL
