MODEL 1
REMARK VINA RESULT:      -9.6      0.000      0.000
REMARK  Name = *****
REMARK                            x       y       z     vdW  Elec       q    Type
REMARK                         _______ _______ _______ _____ _____    ______ ____
ROOT
ATOM      1  C   LIG    1       25.520 -22.864   6.666  0.00  0.00    +0.005 C 
ATOM      2  C   LIG    1       26.518 -22.520   7.515  0.00  0.00    -0.001 C 
ENDROOT
BRANCH   1   7
ATOM      3  C   LIG    1       22.178 -18.716   4.376  0.00  0.00    +0.044 C 
ATOM      4  C   LIG    1       23.000 -19.834   4.946  0.00  0.00    -0.050 A 
ATOM      5  C   LIG    1       23.939 -20.509   4.159  0.00  0.00    +0.004 A 
ATOM      6  C   LIG    1       24.756 -21.499   4.718  0.00  0.00    +0.009 A 
ATOM      7  C   LIG    1       24.652 -21.820   6.078  0.00  0.00    -0.016 A 
ATOM      8  C   LIG    1       23.698 -21.160   6.860  0.00  0.00    +0.009 A 
ATOM      9  C   LIG    1       22.874 -20.178   6.298  0.00  0.00    +0.004 A 
ENDBRANCH   1   7
BRANCH   1  10
ATOM     10  C   LIG    1       25.360 -24.316   6.367  0.00  0.00    +0.071 A 
ATOM     11  N   LIG    1       26.498 -25.026   6.156  0.00  0.00    -0.255 NA
ATOM     12  C   LIG    1       26.377 -26.333   5.848  0.00  0.00    +0.111 A 
ATOM     13  C   LIG    1       25.161 -26.981   5.734  0.00  0.00    +0.020 A 
ATOM     14  C   LIG    1       24.004 -26.252   5.962  0.00  0.00    +0.004 A 
ATOM     15  C   LIG    1       24.098 -24.900   6.283  0.00  0.00    +0.028 A 
ENDBRANCH   1  10
BRANCH   2  16
ATOM     16  C   LIG    1       26.951 -21.154   7.963  0.00  0.00    +0.112 C 
BRANCH  16  17
ATOM     17  N   LIG    1       28.093 -20.667   7.180  0.00  0.00    -0.299 NA
ATOM     18  C   LIG    1       27.714 -19.866   6.015  0.00  0.00    +0.085 C 
ATOM     19  C   LIG    1       29.044 -19.255   5.606  0.00  0.00    +0.017 C 
ATOM     20  C   LIG    1       29.775 -19.027   6.923  0.00  0.00    +0.017 C 
ATOM     21  C   LIG    1       28.976 -19.802   7.966  0.00  0.00    +0.085 C 
ENDBRANCH  16  17
ENDBRANCH   2  16
TORSDOF 4
ENDMDL
MODEL 2
REMARK VINA RESULT:      -9.6      0.991      5.398
REMARK  Name = *****
REMARK                            x       y       z     vdW  Elec       q    Type
REMARK                         _______ _______ _______ _____ _____    ______ ____
ROOT
ATOM      1  C   LIG    1       26.737 -21.096   6.802  0.00  0.00    +0.005 C 
ATOM      2  C   LIG    1       26.838 -22.345   7.318  0.00  0.00    -0.001 C 
ENDROOT
BRANCH   1   7
ATOM      3  C   LIG    1       21.826 -19.296   4.302  0.00  0.00    +0.044 C 
ATOM      4  C   LIG    1       23.087 -19.821   4.922  0.00  0.00    -0.050 A 
ATOM      5  C   LIG    1       24.289 -19.832   4.207  0.00  0.00    +0.004 A 
ATOM      6  C   LIG    1       25.477 -20.252   4.818  0.00  0.00    +0.009 A 
ATOM      7  C   LIG    1       25.479 -20.657   6.159  0.00  0.00    -0.016 A 
ATOM      8  C   LIG    1       24.274 -20.666   6.868  0.00  0.00    +0.009 A 
ATOM      9  C   LIG    1       23.084 -20.257   6.254  0.00  0.00    +0.004 A 
ENDBRANCH   1   7
BRANCH   1  10
ATOM     10  C   LIG    1       27.936 -20.218   6.924  0.00  0.00    +0.071 A 
ATOM     11  N   LIG    1       28.439 -20.040   8.173  0.00  0.00    -0.255 NA
ATOM     12  C   LIG    1       29.501 -19.221   8.313  0.00  0.00    +0.111 A 
ATOM     13  C   LIG    1       30.098 -18.556   7.258  0.00  0.00    +0.020 A 
ATOM     14  C   LIG    1       29.585 -18.752   5.984  0.00  0.00    +0.004 A 
ATOM     15  C   LIG    1       28.489 -19.593   5.809  0.00  0.00    +0.028 A 
ENDBRANCH   1  10
BRANCH   2  16
ATOM     16  C   LIG    1       25.799 -23.426   7.389  0.00  0.00    +0.112 C 
BRANCH  16  17
ATOM     17  N   LIG    1       26.010 -24.445   6.353  0.00  0.00    -0.299 NA
ATOM     18  C   LIG    1       25.916 -25.820   6.846  0.00  0.00    +0.085 C 
ATOM     19  C   LIG    1       25.854 -26.614   5.553  0.00  0.00    +0.017 C 
ATOM     20  C   LIG    1       25.077 -25.720   4.596  0.00  0.00    +0.017 C 
ATOM     21  C   LIG    1       25.020 -24.356   5.278  0.00  0.00    +0.085 C 
ENDBRANCH  16  17
ENDBRANCH   2  16
TORSDOF 4
ENDMDL
MODEL 3
REMARK VINA RESULT:      -9.2      0.969      5.295
REMARK  Name = *****
REMARK                            x       y       z     vdW  Elec       q    Type
REMARK                         _______ _______ _______ _____ _____    ______ ____
ROOT
ATOM      1  C   LIG    1       26.233 -21.556   6.525  0.00  0.00    +0.005 C 
ATOM      2  C   LIG    1       26.096 -22.847   6.911  0.00  0.00    -0.001 C 
ENDROOT
BRANCH   1   7
ATOM      3  C   LIG    1       21.807 -18.682   4.123  0.00  0.00    +0.044 C 
ATOM      4  C   LIG    1       22.930 -19.481   4.716  0.00  0.00    -0.050 A 
ATOM      5  C   LIG    1       24.100 -19.726   3.990  0.00  0.00    +0.004 A 
ATOM      6  C   LIG    1       25.174 -20.406   4.577  0.00  0.00    +0.009 A 
ATOM      7  C   LIG    1       25.095 -20.841   5.906  0.00  0.00    -0.016 A 
ATOM      8  C   LIG    1       23.917 -20.615   6.626  0.00  0.00    +0.009 A 
ATOM      9  C   LIG    1       22.840 -19.945   6.035  0.00  0.00    +0.004 A 
ENDBRANCH   1   7
BRANCH   1  10
ATOM     10  C   LIG    1       27.560 -20.919   6.760  0.00  0.00    +0.071 A 
ATOM     11  N   LIG    1       27.887 -19.872   5.959  0.00  0.00    -0.255 NA
ATOM     12  C   LIG    1       29.097 -19.303   6.128  0.00  0.00    +0.111 A 
ATOM     13  C   LIG    1       30.017 -19.729   7.067  0.00  0.00    +0.020 A 
ATOM     14  C   LIG    1       29.672 -20.791   7.890  0.00  0.00    +0.004 A 
ATOM     15  C   LIG    1       28.428 -21.398   7.739  0.00  0.00    +0.028 A 
ENDBRANCH   1  10
BRANCH   2  16
ATOM     16  C   LIG    1       24.885 -23.731   6.850  0.00  0.00    +0.112 C 
BRANCH  16  17
ATOM     17  N   LIG    1       25.095 -24.871   5.950  0.00  0.00    -0.299 NA
ATOM     18  C   LIG    1       26.289 -25.658   6.261  0.00  0.00    +0.085 C 
ATOM     19  C   LIG    1       26.077 -26.901   5.411  0.00  0.00    +0.017 C 
ATOM     20  C   LIG    1       24.569 -27.115   5.424  0.00  0.00    +0.017 C 
ATOM     21  C   LIG    1       23.985 -25.826   5.997  0.00  0.00    +0.085 C 
ENDBRANCH  16  17
ENDBRANCH   2  16
TORSDOF 4
ENDMDL
MODEL 4
REMARK VINA RESULT:      -9.0      1.542      4.774
REMARK  Name = *****
REMARK                            x       y       z     vdW  Elec       q    Type
REMARK                         _______ _______ _______ _____ _____    ______ ____
ROOT
ATOM      1  C   LIG    1       25.206 -21.374   6.370  0.00  0.00    +0.005 C 
ATOM      2  C   LIG    1       26.169 -20.785   7.118  0.00  0.00    -0.001 C 
ENDROOT
BRANCH   1   7
ATOM      3  C   LIG    1       24.519 -27.132   6.438  0.00  0.00    +0.044 C 
ATOM      4  C   LIG    1       24.706 -25.644   6.486  0.00  0.00    -0.050 A 
ATOM      5  C   LIG    1       25.985 -25.078   6.451  0.00  0.00    +0.004 A 
ATOM      6  C   LIG    1       26.147 -23.687   6.418  0.00  0.00    +0.009 A 
ATOM      7  C   LIG    1       25.029 -22.843   6.409  0.00  0.00    -0.016 A 
ATOM      8  C   LIG    1       23.752 -23.408   6.466  0.00  0.00    +0.009 A 
ATOM      9  C   LIG    1       23.589 -24.798   6.509  0.00  0.00    +0.004 A 
ENDBRANCH   1   7
BRANCH   1  10
ATOM     10  C   LIG    1       24.357 -20.477   5.534  0.00  0.00    +0.071 A 
ATOM     11  N   LIG    1       24.919 -19.987   4.400  0.00  0.00    -0.255 NA
ATOM     12  C   LIG    1       24.184 -19.144   3.646  0.00  0.00    +0.111 A 
ATOM     13  C   LIG    1       22.898 -18.754   3.970  0.00  0.00    +0.020 A 
ATOM     14  C   LIG    1       22.326 -19.268   5.125  0.00  0.00    +0.004 A 
ATOM     15  C   LIG    1       23.062 -20.141   5.922  0.00  0.00    +0.028 A 
ENDBRANCH   1  10
BRANCH   2  16
ATOM     16  C   LIG    1       27.134 -21.411   8.082  0.00  0.00    +0.112 C 
BRANCH  16  17
ATOM     17  N   LIG    1       28.377 -20.635   8.179  0.00  0.00    -0.299 NA
ATOM     18  C   LIG    1       29.579 -21.458   8.327  0.00  0.00    +0.085 C 
ATOM     19  C   LIG    1       30.685 -20.446   8.083  0.00  0.00    +0.017 C 
ATOM     20  C   LIG    1       30.108 -19.497   7.040  0.00  0.00    +0.017 C 
ATOM     21  C   LIG    1       28.617 -19.820   6.986  0.00  0.00    +0.085 C 
ENDBRANCH  16  17
ENDBRANCH   2  16
TORSDOF 4
ENDMDL
MODEL 5
REMARK VINA RESULT:      -9.0      1.297      6.095
REMARK  Name = *****
REMARK                            x       y       z     vdW  Elec       q    Type
REMARK                         _______ _______ _______ _____ _____    ______ ____
ROOT
ATOM      1  C   LIG    1       25.506 -21.183   6.162  0.00  0.00    +0.005 C 
ATOM      2  C   LIG    1       25.233 -22.486   6.415  0.00  0.00    -0.001 C 
ENDROOT
BRANCH   1   7
ATOM      3  C   LIG    1       30.498 -18.798   7.895  0.00  0.00    +0.044 C 
ATOM      4  C   LIG    1       29.233 -19.474   7.456  0.00  0.00    -0.050 A 
ATOM      5  C   LIG    1       28.275 -19.883   8.390  0.00  0.00    +0.004 A 
ATOM      6  C   LIG    1       27.063 -20.443   7.969  0.00  0.00    +0.009 A 
ATOM      7  C   LIG    1       26.789 -20.594   6.603  0.00  0.00    -0.016 A 
ATOM      8  C   LIG    1       27.755 -20.206   5.670  0.00  0.00    +0.009 A 
ATOM      9  C   LIG    1       28.971 -19.655   6.092  0.00  0.00    +0.004 A 
ENDBRANCH   1   7
BRANCH   1  10
ATOM     10  C   LIG    1       24.465 -20.407   5.428  0.00  0.00    +0.071 A 
ATOM     11  N   LIG    1       24.848 -19.819   4.265  0.00  0.00    -0.255 NA
ATOM     12  C   LIG    1       23.934 -19.081   3.603  0.00  0.00    +0.111 A 
ATOM     13  C   LIG    1       22.638 -18.891   4.046  0.00  0.00    +0.020 A 
ATOM     14  C   LIG    1       22.252 -19.504   5.229  0.00  0.00    +0.004 A 
ATOM     15  C   LIG    1       23.174 -20.273   5.934  0.00  0.00    +0.028 A 
ENDBRANCH   1  10
BRANCH   2  16
ATOM     16  C   LIG    1       26.091 -23.521   7.082  0.00  0.00    +0.112 C 
BRANCH  16  17
ATOM     17  N   LIG    1       25.543 -24.871   6.904  0.00  0.00    -0.299 NA
ATOM     18  C   LIG    1       24.248 -24.900   6.223  0.00  0.00    +0.085 C 
ATOM     19  C   LIG    1       24.093 -26.377   5.902  0.00  0.00    +0.017 C 
ATOM     20  C   LIG    1       25.512 -26.852   5.615  0.00  0.00    +0.017 C 
ATOM     21  C   LIG    1       26.419 -25.722   6.095  0.00  0.00    +0.085 C 
ENDBRANCH  16  17
ENDBRANCH   2  16
TORSDOF 4
ENDMDL
MODEL 6
REMARK VINA RESULT:      -8.0      1.513      4.284
REMARK  Name = *****
REMARK                            x       y       z     vdW  Elec       q    Type
REMARK                         _______ _______ _______ _____ _____    ______ ____
ROOT
ATOM      1  C   LIG    1       25.040 -22.964   6.435  0.00  0.00    +0.005 C 
ATOM      2  C   LIG    1       23.748 -22.565   6.357  0.00  0.00    -0.001 C 
ENDROOT
BRANCH   1   7
ATOM      3  C   LIG    1       29.223 -19.244   7.946  0.00  0.00    +0.044 C 
ATOM      4  C   LIG    1       28.097 -20.157   7.561  0.00  0.00    -0.050 A 
ATOM      5  C   LIG    1       27.657 -20.236   6.235  0.00  0.00    +0.004 A 
ATOM      6  C   LIG    1       26.658 -21.147   5.870  0.00  0.00    +0.009 A 
ATOM      7  C   LIG    1       26.093 -22.000   6.826  0.00  0.00    -0.016 A 
ATOM      8  C   LIG    1       26.517 -21.906   8.155  0.00  0.00    +0.009 A 
ATOM      9  C   LIG    1       27.508 -20.989   8.523  0.00  0.00    +0.004 A 
ENDBRANCH   1   7
BRANCH   1  10
ATOM     10  C   LIG    1       25.326 -24.393   6.117  0.00  0.00    +0.071 A 
ATOM     11  N   LIG    1       25.085 -24.795   4.843  0.00  0.00    -0.255 NA
ATOM     12  C   LIG    1       25.301 -26.091   4.540  0.00  0.00    +0.111 A 
ATOM     13  C   LIG    1       25.748 -27.025   5.456  0.00  0.00    +0.020 A 
ATOM     14  C   LIG    1       26.002 -26.604   6.753  0.00  0.00    +0.004 A 
ATOM     15  C   LIG    1       25.789 -25.271   7.094  0.00  0.00    +0.028 A 
ENDBRANCH   1  10
BRANCH   2  16
ATOM     16  C   LIG    1       23.152 -21.222   6.660  0.00  0.00    +0.112 C 
BRANCH  16  17
ATOM     17  N   LIG    1       23.485 -20.238   5.623  0.00  0.00    -0.299 NA
ATOM     18  C   LIG    1       23.657 -20.819   4.290  0.00  0.00    +0.085 C 
ATOM     19  C   LIG    1       23.669 -19.582   3.407  0.00  0.00    +0.017 C 
ATOM     20  C   LIG    1       22.701 -18.622   4.087  0.00  0.00    +0.017 C 
ATOM     21  C   LIG    1       22.442 -19.222   5.466  0.00  0.00    +0.085 C 
ENDBRANCH  16  17
ENDBRANCH   2  16
TORSDOF 4
ENDMDL
