MODEL 1
REMARK VINA RESULT:      -8.6      0.000      0.000
REMARK  Name = *****
REMARK                            x       y       z     vdW  Elec       q    Type
REMARK                         _______ _______ _______ _____ _____    ______ ____
ROOT
ATOM      1  C   LIG    1       23.613 -21.364   3.101  0.00  0.00    +0.105 C 
ATOM      2  N   LIG    1       23.927 -20.408   4.174  0.00  0.00    -0.302 NA
ATOM      3  C   LIG    1       25.336 -20.605   4.630  0.00  0.00    +0.111 C 
ATOM      4  C   LIG    1       25.654 -20.322   6.142  0.00  0.00    +0.119 C 
ATOM      5  N   LIG    1       24.641 -20.996   7.000  0.00  0.00    -0.305 N 
ATOM      6  C   LIG    1       24.691 -22.400   6.858  0.00  0.00    +0.125 A 
ATOM      7  C   LIG    1       25.761 -23.083   7.449  0.00  0.00    -0.003 A 
ATOM      8  C   LIG    1       26.695 -22.317   8.330  0.00  0.00    +0.074 C 
ATOM      9  C   LIG    1       27.594 -21.367   7.575  0.00  0.00    -0.038 A 
ATOM     10  C   LIG    1       28.948 -21.329   7.967  0.00  0.00    +0.004 A 
ATOM     11  C   LIG    1       29.849 -20.450   7.374  0.00  0.00    +0.000 A 
ATOM     12  C   LIG    1       29.410 -19.599   6.371  0.00  0.00    +0.000 A 
ATOM     13  C   LIG    1       28.070 -19.618   5.973  0.00  0.00    +0.006 A 
ATOM     14  C   LIG    1       25.929 -24.447   7.193  0.00  0.00    +0.009 A 
ATOM     15  C   LIG    1       25.039 -25.110   6.367  0.00  0.00    +0.020 A 
ATOM     16  C   LIG    1       23.978 -24.378   5.860  0.00  0.00    +0.113 A 
ATOM     17  N   LIG    1       23.785 -23.071   6.116  0.00  0.00    -0.240 NA
ATOM     18  C   LIG    1       23.317 -20.406   6.713  0.00  0.00    +0.122 C 
ATOM     19  C   LIG    1       27.125 -20.487   6.569  0.00  0.00    -0.022 A 
ATOM     20  C   LIG    1       22.889 -20.530   5.233  0.00  0.00    +0.103 C 
ENDROOT
TORSDOF 0
ENDMDL
MODEL 2
REMARK VINA RESULT:      -8.3      1.659      4.872
REMARK  Name = *****
REMARK                            x       y       z     vdW  Elec       q    Type
REMARK                         _______ _______ _______ _____ _____    ______ ____
ROOT
ATOM      1  C   LIG    1       27.484 -19.910   6.090  0.00  0.00    +0.105 C 
ATOM      2  N   LIG    1       27.343 -20.970   7.099  0.00  0.00    -0.302 NA
ATOM      3  C   LIG    1       26.824 -22.215   6.455  0.00  0.00    +0.111 C 
ATOM      4  C   LIG    1       25.903 -23.147   7.320  0.00  0.00    +0.119 C 
ATOM      5  N   LIG    1       24.855 -22.331   7.992  0.00  0.00    -0.305 N 
ATOM      6  C   LIG    1       23.997 -21.714   7.055  0.00  0.00    +0.125 A 
ATOM      7  C   LIG    1       23.059 -22.517   6.394  0.00  0.00    -0.003 A 
ATOM      8  C   LIG    1       22.905 -23.939   6.832  0.00  0.00    +0.074 C 
ATOM      9  C   LIG    1       24.072 -24.818   6.446  0.00  0.00    -0.038 A 
ATOM     10  C   LIG    1       23.761 -26.095   5.934  0.00  0.00    +0.004 A 
ATOM     11  C   LIG    1       24.760 -27.003   5.601  0.00  0.00    +0.000 A 
ATOM     12  C   LIG    1       26.089 -26.645   5.766  0.00  0.00    +0.000 A 
ATOM     13  C   LIG    1       26.417 -25.385   6.277  0.00  0.00    +0.006 A 
ATOM     14  C   LIG    1       22.307 -21.974   5.349  0.00  0.00    +0.009 A 
ATOM     15  C   LIG    1       22.489 -20.653   4.979  0.00  0.00    +0.020 A 
ATOM     16  C   LIG    1       23.399 -19.909   5.712  0.00  0.00    +0.113 A 
ATOM     17  N   LIG    1       24.113 -20.407   6.740  0.00  0.00    -0.240 NA
ATOM     18  C   LIG    1       25.517 -21.388   8.917  0.00  0.00    +0.122 C 
ATOM     19  C   LIG    1       25.424 -24.446   6.644  0.00  0.00    -0.022 A 
ATOM     20  C   LIG    1       26.527 -20.444   8.226  0.00  0.00    +0.103 C 
ENDROOT
TORSDOF 0
ENDMDL
MODEL 3
REMARK VINA RESULT:      -6.3      1.533      3.811
REMARK  Name = *****
REMARK                            x       y       z     vdW  Elec       q    Type
REMARK                         _______ _______ _______ _____ _____    ______ ____
ROOT
ATOM      1  C   LIG    1       22.708 -21.758   8.231  0.00  0.00    +0.105 C 
ATOM      2  N   LIG    1       23.978 -22.375   7.819  0.00  0.00    -0.302 NA
ATOM      3  C   LIG    1       25.032 -21.324   7.694  0.00  0.00    +0.111 C 
ATOM      4  C   LIG    1       26.143 -21.539   6.605  0.00  0.00    +0.119 C 
ATOM      5  N   LIG    1       25.508 -21.915   5.312  0.00  0.00    -0.305 N 
ATOM      6  C   LIG    1       24.685 -20.880   4.816  0.00  0.00    +0.125 A 
ATOM      7  C   LIG    1       25.307 -19.750   4.272  0.00  0.00    -0.003 A 
ATOM      8  C   LIG    1       26.792 -19.770   4.095  0.00  0.00    +0.074 C 
ATOM      9  C   LIG    1       27.556 -19.682   5.395  0.00  0.00    -0.038 A 
ATOM     10  C   LIG    1       28.674 -18.823   5.417  0.00  0.00    +0.004 A 
ATOM     11  C   LIG    1       29.478 -18.710   6.545  0.00  0.00    +0.000 A 
ATOM     12  C   LIG    1       29.172 -19.450   7.677  0.00  0.00    +0.000 A 
ATOM     13  C   LIG    1       28.069 -20.311   7.673  0.00  0.00    +0.006 A 
ATOM     14  C   LIG    1       24.531 -18.642   3.921  0.00  0.00    +0.009 A 
ATOM     15  C   LIG    1       23.160 -18.671   4.108  0.00  0.00    +0.020 A 
ATOM     16  C   LIG    1       22.613 -19.842   4.605  0.00  0.00    +0.113 A 
ATOM     17  N   LIG    1       23.341 -20.929   4.923  0.00  0.00    -0.240 NA
ATOM     18  C   LIG    1       24.813 -23.207   5.489  0.00  0.00    +0.122 C 
ATOM     19  C   LIG    1       27.243 -20.462   6.535  0.00  0.00    -0.022 A 
ATOM     20  C   LIG    1       23.733 -23.185   6.595  0.00  0.00    +0.103 C 
ENDROOT
TORSDOF 0
ENDMDL
MODEL 4
REMARK VINA RESULT:      -6.1      8.799     10.707
REMARK  Name = *****
REMARK                            x       y       z     vdW  Elec       q    Type
REMARK                         _______ _______ _______ _____ _____    ______ ____
ROOT
ATOM      1  C   LIG    1       23.270 -32.311   8.785  0.00  0.00    +0.105 C 
ATOM      2  N   LIG    1       22.946 -32.256  10.218  0.00  0.00    -0.302 NA
ATOM      3  C   LIG    1       22.666 -30.843  10.619  0.00  0.00    +0.111 C 
ATOM      4  C   LIG    1       23.053 -30.416  12.079  0.00  0.00    +0.119 C 
ATOM      5  N   LIG    1       24.439 -30.867  12.382  0.00  0.00    -0.305 N 
ATOM      6  C   LIG    1       25.384 -30.241  11.540  0.00  0.00    +0.125 A 
ATOM      7  C   LIG    1       25.687 -28.895  11.778  0.00  0.00    -0.003 A 
ATOM      8  C   LIG    1       25.123 -28.244  13.000  0.00  0.00    +0.074 C 
ATOM      9  C   LIG    1       23.636 -27.994  12.919  0.00  0.00    -0.038 A 
ATOM     10  C   LIG    1       23.176 -26.743  13.381  0.00  0.00    +0.004 A 
ATOM     11  C   LIG    1       21.821 -26.432  13.402  0.00  0.00    +0.000 A 
ATOM     12  C   LIG    1       20.901 -27.367  12.951  0.00  0.00    +0.000 A 
ATOM     13  C   LIG    1       21.337 -28.614  12.493  0.00  0.00    +0.006 A 
ATOM     14  C   LIG    1       26.493 -28.203  10.870  0.00  0.00    +0.009 A 
ATOM     15  C   LIG    1       26.987 -28.850   9.751  0.00  0.00    +0.020 A 
ATOM     16  C   LIG    1       26.685 -30.194   9.611  0.00  0.00    +0.113 A 
ATOM     17  N   LIG    1       25.934 -30.885  10.489  0.00  0.00    -0.240 NA
ATOM     18  C   LIG    1       24.472 -32.343  12.335  0.00  0.00    +0.122 C 
ATOM     19  C   LIG    1       22.707 -28.968  12.477  0.00  0.00    -0.022 A 
ATOM     20  C   LIG    1       24.034 -32.932  10.975  0.00  0.00    +0.103 C 
ENDROOT
TORSDOF 0
ENDMDL
MODEL 5
REMARK VINA RESULT:      -6.1      6.670      9.581
REMARK  Name = *****
REMARK                            x       y       z     vdW  Elec       q    Type
REMARK                         _______ _______ _______ _____ _____    ______ ____
ROOT
ATOM      1  C   LIG    1       26.398 -33.705   4.321  0.00  0.00    +0.105 C 
ATOM      2  N   LIG    1       25.275 -32.756   4.332  0.00  0.00    -0.302 NA
ATOM      3  C   LIG    1       25.764 -31.401   4.730  0.00  0.00    +0.111 C 
ATOM      4  C   LIG    1       24.775 -30.482   5.533  0.00  0.00    +0.119 C 
ATOM      5  N   LIG    1       24.167 -31.257   6.649  0.00  0.00    -0.305 N 
ATOM      6  C   LIG    1       25.141 -31.674   7.583  0.00  0.00    +0.125 A 
ATOM      7  C   LIG    1       25.682 -30.711   8.443  0.00  0.00    -0.003 A 
ATOM      8  C   LIG    1       25.087 -29.339   8.439  0.00  0.00    +0.074 C 
ATOM      9  C   LIG    1       25.408 -28.546   7.195  0.00  0.00    -0.038 A 
ATOM     10  C   LIG    1       25.767 -27.195   7.378  0.00  0.00    +0.004 A 
ATOM     11  C   LIG    1       26.028 -26.361   6.296  0.00  0.00    +0.000 A 
ATOM     12  C   LIG    1       25.941 -26.869   5.009  0.00  0.00    +0.000 A 
ATOM     13  C   LIG    1       25.581 -28.206   4.806  0.00  0.00    +0.006 A 
ATOM     14  C   LIG    1       26.759 -31.054   9.266  0.00  0.00    +0.009 A 
ATOM     15  C   LIG    1       27.276 -32.337   9.229  0.00  0.00    +0.020 A 
ATOM     16  C   LIG    1       26.656 -33.247   8.389  0.00  0.00    +0.113 A 
ATOM     17  N   LIG    1       25.601 -32.943   7.609  0.00  0.00    -0.240 NA
ATOM     18  C   LIG    1       23.370 -32.360   6.074  0.00  0.00    +0.122 C 
ATOM     19  C   LIG    1       25.291 -29.073   5.885  0.00  0.00    -0.022 A 
ATOM     20  C   LIG    1       24.189 -33.319   5.179  0.00  0.00    +0.103 C 
ENDROOT
TORSDOF 0
ENDMDL
MODEL 6
REMARK VINA RESULT:      -5.9      6.517      9.245
REMARK  Name = *****
REMARK                            x       y       z     vdW  Elec       q    Type
REMARK                         _______ _______ _______ _____ _____    ______ ____
ROOT
ATOM      1  C   LIG    1       26.727 -27.733  12.830  0.00  0.00    +0.105 C 
ATOM      2  N   LIG    1       27.388 -28.159  11.586  0.00  0.00    -0.302 NA
ATOM      3  C   LIG    1       26.545 -27.781  10.411  0.00  0.00    +0.111 C 
ATOM      4  C   LIG    1       26.591 -28.722   9.155  0.00  0.00    +0.119 C 
ATOM      5  N   LIG    1       26.429 -30.138   9.586  0.00  0.00    -0.305 N 
ATOM      6  C   LIG    1       25.167 -30.359  10.180  0.00  0.00    +0.125 A 
ATOM      7  C   LIG    1       24.045 -30.403   9.344  0.00  0.00    -0.003 A 
ATOM      8  C   LIG    1       24.259 -30.379   7.864  0.00  0.00    +0.074 C 
ATOM      9  C   LIG    1       24.715 -29.037   7.342  0.00  0.00    -0.038 A 
ATOM     10  C   LIG    1       24.108 -28.579   6.154  0.00  0.00    +0.004 A 
ATOM     11  C   LIG    1       24.493 -27.383   5.559  0.00  0.00    +0.000 A 
ATOM     12  C   LIG    1       25.489 -26.618   6.148  0.00  0.00    +0.000 A 
ATOM     13  C   LIG    1       26.106 -27.058   7.324  0.00  0.00    +0.006 A 
ATOM     14  C   LIG    1       22.769 -30.458   9.911  0.00  0.00    +0.009 A 
ATOM     15  C   LIG    1       22.623 -30.474  11.287  0.00  0.00    +0.020 A 
ATOM     16  C   LIG    1       23.781 -30.479  12.047  0.00  0.00    +0.113 A 
ATOM     17  N   LIG    1       25.020 -30.453  11.519  0.00  0.00    -0.240 NA
ATOM     18  C   LIG    1       27.574 -30.501  10.447  0.00  0.00    +0.122 C 
ATOM     19  C   LIG    1       25.750 -28.279   7.943  0.00  0.00    -0.022 A 
ATOM     20  C   LIG    1       27.719 -29.605  11.698  0.00  0.00    +0.103 C 
ENDROOT
TORSDOF 0
ENDMDL
MODEL 7
REMARK VINA RESULT:      -5.7      8.276      9.736
REMARK  Name = *****
REMARK                            x       y       z     vdW  Elec       q    Type
REMARK                         _______ _______ _______ _____ _____    ______ ____
ROOT
ATOM      1  C   LIG    1       21.332 -30.702  10.649  0.00  0.00    +0.105 C 
ATOM      2  N   LIG    1       22.069 -30.613  11.920  0.00  0.00    -0.302 NA
ATOM      3  C   LIG    1       22.674 -29.254  12.059  0.00  0.00    +0.111 C 
ATOM      4  C   LIG    1       24.038 -29.145  12.829  0.00  0.00    +0.119 C 
ATOM      5  N   LIG    1       24.982 -30.179  12.322  0.00  0.00    -0.305 N 
ATOM      6  C   LIG    1       25.297 -29.972  10.960  0.00  0.00    +0.125 A 
ATOM      7  C   LIG    1       26.157 -28.915  10.638  0.00  0.00    -0.003 A 
ATOM      8  C   LIG    1       26.822 -28.172  11.753  0.00  0.00    +0.074 C 
ATOM      9  C   LIG    1       25.879 -27.291  12.537  0.00  0.00    -0.038 A 
ATOM     10  C   LIG    1       26.344 -26.003  12.871  0.00  0.00    +0.004 A 
ATOM     11  C   LIG    1       25.578 -25.132  13.638  0.00  0.00    +0.000 A 
ATOM     12  C   LIG    1       24.325 -25.533  14.077  0.00  0.00    +0.000 A 
ATOM     13  C   LIG    1       23.848 -26.810  13.760  0.00  0.00    +0.006 A 
ATOM     14  C   LIG    1       26.361 -28.582   9.296  0.00  0.00    +0.009 A 
ATOM     15  C   LIG    1       25.720 -29.298   8.301  0.00  0.00    +0.020 A 
ATOM     16  C   LIG    1       24.924 -30.360   8.696  0.00  0.00    +0.113 A 
ATOM     17  N   LIG    1       24.736 -30.713   9.982  0.00  0.00    -0.240 NA
ATOM     18  C   LIG    1       24.419 -31.513  12.615  0.00  0.00    +0.122 C 
ATOM     19  C   LIG    1       24.611 -27.725  12.998  0.00  0.00    -0.022 A 
ATOM     20  C   LIG    1       23.025 -31.751  11.991  0.00  0.00    +0.103 C 
ENDROOT
TORSDOF 0
ENDMDL
MODEL 8
REMARK VINA RESULT:      -5.7      8.581     10.209
REMARK  Name = *****
REMARK                            x       y       z     vdW  Elec       q    Type
REMARK                         _______ _______ _______ _____ _____    ______ ____
ROOT
ATOM      1  C   LIG    1       26.953 -25.298  13.827  0.00  0.00    +0.105 C 
ATOM      2  N   LIG    1       27.241 -26.727  13.630  0.00  0.00    -0.302 NA
ATOM      3  C   LIG    1       26.566 -27.211  12.387  0.00  0.00    +0.111 C 
ATOM      4  C   LIG    1       26.073 -28.702  12.365  0.00  0.00    +0.119 C 
ATOM      5  N   LIG    1       25.322 -28.998  13.616  0.00  0.00    -0.305 N 
ATOM      6  C   LIG    1       24.152 -28.212  13.719  0.00  0.00    +0.125 A 
ATOM      7  C   LIG    1       23.067 -28.539  12.897  0.00  0.00    -0.003 A 
ATOM      8  C   LIG    1       23.142 -29.791  12.082  0.00  0.00    +0.074 C 
ATOM      9  C   LIG    1       24.112 -29.701  10.927  0.00  0.00    -0.038 A 
ATOM     10  C   LIG    1       23.682 -30.233   9.694  0.00  0.00    +0.004 A 
ATOM     11  C   LIG    1       24.517 -30.251   8.583  0.00  0.00    +0.000 A 
ATOM     12  C   LIG    1       25.797 -29.728   8.683  0.00  0.00    +0.000 A 
ATOM     13  C   LIG    1       26.244 -29.199   9.899  0.00  0.00    +0.006 A 
ATOM     14  C   LIG    1       21.958 -27.689  12.856  0.00  0.00    +0.009 A 
ATOM     15  C   LIG    1       21.938 -26.541  13.627  0.00  0.00    +0.020 A 
ATOM     16  C   LIG    1       23.027 -26.311  14.451  0.00  0.00    +0.113 A 
ATOM     17  N   LIG    1       24.092 -27.132  14.525  0.00  0.00    -0.240 NA
ATOM     18  C   LIG    1       26.245 -28.859  14.761  0.00  0.00    +0.122 C 
ATOM     19  C   LIG    1       25.425 -29.184  11.053  0.00  0.00    -0.022 A 
ATOM     20  C   LIG    1       26.886 -27.457  14.876  0.00  0.00    +0.103 C 
ENDROOT
TORSDOF 0
ENDMDL
