MODEL 1
REMARK VINA RESULT:      -9.0      0.000      0.000
REMARK  Name = *****
REMARK                            x       y       z     vdW  Elec       q    Type
REMARK                         _______ _______ _______ _____ _____    ______ ____
ROOT
ATOM      1  C   LIG    1       25.550 -30.028   8.952  0.00  0.00    +0.111 C 
ATOM      2  C   LIG    1       25.909 -29.499  10.338  0.00  0.00    -0.005 C 
ATOM      3  C   LIG    1       24.876 -29.400  11.277  0.00  0.00    +0.009 C 
ATOM      4  C   LIG    1       25.066 -28.881  12.546  0.00  0.00    +0.049 C 
ATOM      5  C   LIG    1       26.326 -28.434  12.958  0.00  0.00    +0.026 C 
ATOM      6  C   LIG    1       27.369 -28.505  12.019  0.00  0.00    +0.002 C 
ATOM      7  N   LIG    1       23.825 -28.911  13.150  0.00  0.00    -0.349 NA
ATOM      8  C   LIG    1       23.529 -28.395  14.467  0.00  0.00    +0.149 C 
ATOM      9  C   LIG    1       22.884 -29.443  12.290  0.00  0.00    +0.090 C 
ATOM     10  C   LIG    1       23.521 -29.745  11.109  0.00  0.00    -0.020 C 
ATOM     11  C   LIG    1       23.038 -30.272   9.799  0.00  0.00    +0.059 C 
ATOM     12  C   LIG    1       27.166 -29.015  10.731  0.00  0.00    +0.007 C 
ATOM     13  C   LIG    1       24.211 -30.915   8.969  0.00  0.00    +0.097 C 
ATOM     14  N   LIG    1       23.653 -31.251   7.629  0.00  0.00    -0.299 NA
ATOM     15  C   LIG    1       23.628 -32.683   7.357  0.00  0.00    +0.105 C 
ATOM     16  C   LIG    1       24.278 -30.535   6.516  0.00  0.00    +0.091 C 
ATOM     17  C   LIG    1       24.431 -29.050   6.826  0.00  0.00    +0.044 C 
ATOM     18  C   LIG    1       25.355 -28.793   8.033  0.00  0.00    +0.049 C 
ENDROOT
BRANCH   1  20
ATOM     19  C   LIG    1       26.885 -32.069   8.918  0.00  0.00    +0.195 C 
ATOM     20  O   LIG    1       26.672 -30.761   8.397  0.00  0.00    -0.370 OA
ENDBRANCH   1  20
BRANCH  17  21
ATOM     21  C   LIG    1       24.907 -28.299   5.578  0.00  0.00    +0.237 C 
BRANCH  21  22
ATOM     22  O   LIG    1       24.576 -26.910   5.696  0.00  0.00    -0.461 OA
BRANCH  22  23
ATOM     23  C   LIG    1       25.603 -26.061   5.945  0.00  0.00    +0.341 C 
ATOM     24  O   LIG    1       26.791 -26.278   5.802  0.00  0.00    -0.245 OA
BRANCH  23  25
ATOM     25  C   LIG    1       25.039 -24.791   6.440  0.00  0.00    +0.078 A 
ATOM     26  C   LIG    1       25.848 -23.776   6.964  0.00  0.00    +0.033 A 
ATOM     27  C   LIG    1       25.254 -22.600   7.403  0.00  0.00    +0.037 A 
ATOM     28 BR   LIG    1       26.315 -21.206   8.099  0.00  0.00    -0.049 Br
ATOM     29  C   LIG    1       23.876 -22.479   7.315  0.00  0.00    +0.126 A 
ATOM     30  N   LIG    1       23.065 -23.451   6.827  0.00  0.00    -0.261 NA
ATOM     31  C   LIG    1       23.669 -24.594   6.404  0.00  0.00    +0.125 A 
ENDBRANCH  23  25
ENDBRANCH  22  23
ENDBRANCH  21  22
ENDBRANCH  17  21
TORSDOF 5
ENDMDL
MODEL 2
REMARK VINA RESULT:      -8.3      1.743      2.813
REMARK  Name = *****
REMARK                            x       y       z     vdW  Elec       q    Type
REMARK                         _______ _______ _______ _____ _____    ______ ____
ROOT
ATOM      1  C   LIG    1       24.842 -30.473   8.402  0.00  0.00    +0.111 C 
ATOM      2  C   LIG    1       24.006 -30.599   9.673  0.00  0.00    -0.005 C 
ATOM      3  C   LIG    1       23.053 -31.621   9.719  0.00  0.00    +0.009 C 
ATOM      4  C   LIG    1       22.197 -31.799  10.792  0.00  0.00    +0.049 C 
ATOM      5  C   LIG    1       22.257 -30.955  11.906  0.00  0.00    +0.026 C 
ATOM      6  C   LIG    1       23.193 -29.908  11.866  0.00  0.00    +0.002 C 
ATOM      7  N   LIG    1       21.391 -32.867  10.451  0.00  0.00    -0.349 NA
ATOM      8  C   LIG    1       20.292 -33.365  11.247  0.00  0.00    +0.149 C 
ATOM      9  C   LIG    1       21.735 -33.352   9.206  0.00  0.00    +0.090 C 
ATOM     10  C   LIG    1       22.767 -32.580   8.727  0.00  0.00    -0.020 C 
ATOM     11  C   LIG    1       23.511 -32.565   7.433  0.00  0.00    +0.059 C 
ATOM     12  C   LIG    1       24.043 -29.722  10.769  0.00  0.00    +0.007 C 
ATOM     13  C   LIG    1       24.906 -31.851   7.579  0.00  0.00    +0.097 C 
ATOM     14  N   LIG    1       25.479 -31.747   6.208  0.00  0.00    -0.299 NA
ATOM     15  C   LIG    1       26.699 -32.527   6.032  0.00  0.00    +0.105 C 
ATOM     16  C   LIG    1       25.685 -30.375   5.739  0.00  0.00    +0.091 C 
ATOM     17  C   LIG    1       24.468 -29.503   6.025  0.00  0.00    +0.044 C 
ATOM     18  C   LIG    1       24.181 -29.369   7.535  0.00  0.00    +0.049 C 
ENDROOT
BRANCH   1  20
ATOM     19  C   LIG    1       27.036 -30.903   9.376  0.00  0.00    +0.195 C 
ATOM     20  O   LIG    1       26.167 -29.980   8.728  0.00  0.00    -0.370 OA
ENDBRANCH   1  20
BRANCH  17  21
ATOM     21  C   LIG    1       24.634 -28.134   5.356  0.00  0.00    +0.237 C 
BRANCH  21  22
ATOM     22  O   LIG    1       24.716 -27.114   6.360  0.00  0.00    -0.461 OA
BRANCH  22  23
ATOM     23  C   LIG    1       25.647 -26.148   6.169  0.00  0.00    +0.341 C 
ATOM     24  O   LIG    1       26.780 -26.288   5.750  0.00  0.00    -0.245 OA
BRANCH  23  25
ATOM     25  C   LIG    1       25.057 -24.856   6.567  0.00  0.00    +0.078 A 
ATOM     26  C   LIG    1       25.835 -23.814   7.084  0.00  0.00    +0.033 A 
ATOM     27  C   LIG    1       25.219 -22.619   7.429  0.00  0.00    +0.037 A 
ATOM     28 BR   LIG    1       26.239 -21.190   8.113  0.00  0.00    -0.049 Br
ATOM     29  C   LIG    1       23.848 -22.506   7.258  0.00  0.00    +0.126 A 
ATOM     30  N   LIG    1       23.065 -23.503   6.775  0.00  0.00    -0.261 NA
ATOM     31  C   LIG    1       23.691 -24.664   6.444  0.00  0.00    +0.125 A 
ENDBRANCH  23  25
ENDBRANCH  22  23
ENDBRANCH  21  22
ENDBRANCH  17  21
TORSDOF 5
ENDMDL
MODEL 3
REMARK VINA RESULT:      -7.7      2.408      3.617
REMARK  Name = *****
REMARK                            x       y       z     vdW  Elec       q    Type
REMARK                         _______ _______ _______ _____ _____    ______ ____
ROOT
ATOM      1  C   LIG    1       24.515 -29.888  11.835  0.00  0.00    +0.111 C 
ATOM      2  C   LIG    1       24.030 -28.625  12.542  0.00  0.00    -0.005 C 
ATOM      3  C   LIG    1       22.656 -28.508  12.779  0.00  0.00    +0.009 C 
ATOM      4  C   LIG    1       22.090 -27.385  13.359  0.00  0.00    +0.049 C 
ATOM      5  C   LIG    1       22.884 -26.302  13.752  0.00  0.00    +0.026 C 
ATOM      6  C   LIG    1       24.263 -26.394  13.500  0.00  0.00    +0.002 C 
ATOM      7  N   LIG    1       20.731 -27.626  13.387  0.00  0.00    -0.349 NA
ATOM      8  C   LIG    1       19.730 -26.689  13.844  0.00  0.00    +0.149 C 
ATOM      9  C   LIG    1       20.451 -28.867  12.850  0.00  0.00    +0.090 C 
ATOM     10  C   LIG    1       21.642 -29.429  12.454  0.00  0.00    -0.020 C 
ATOM     11  C   LIG    1       21.983 -30.704  11.757  0.00  0.00    +0.059 C 
ATOM     12  C   LIG    1       24.827 -27.525  12.896  0.00  0.00    +0.007 C 
ATOM     13  C   LIG    1       23.485 -31.109  11.998  0.00  0.00    +0.097 C 
ATOM     14  N   LIG    1       23.755 -32.289  11.129  0.00  0.00    -0.299 NA
ATOM     15  C   LIG    1       24.052 -33.503  11.882  0.00  0.00    +0.105 C 
ATOM     16  C   LIG    1       24.777 -32.066  10.105  0.00  0.00    +0.091 C 
ATOM     17  C   LIG    1       24.562 -30.740   9.385  0.00  0.00    +0.044 C 
ATOM     18  C   LIG    1       24.679 -29.530  10.334  0.00  0.00    +0.049 C 
ENDROOT
BRANCH   1  20
ATOM     19  C   LIG    1       25.909 -30.864  13.583  0.00  0.00    +0.195 C 
ATOM     20  O   LIG    1       25.842 -30.238  12.305  0.00  0.00    -0.370 OA
ENDBRANCH   1  20
BRANCH  17  21
ATOM     21  C   LIG    1       25.523 -30.625   8.198  0.00  0.00    +0.237 C 
BRANCH  21  22
ATOM     22  O   LIG    1       25.443 -29.307   7.639  0.00  0.00    -0.461 OA
BRANCH  22  23
ATOM     23  C   LIG    1       24.571 -29.135   6.615  0.00  0.00    +0.341 C 
ATOM     24  O   LIG    1       23.745 -29.929   6.208  0.00  0.00    -0.245 OA
BRANCH  23  25
ATOM     25  C   LIG    1       24.791 -27.792   6.046  0.00  0.00    +0.078 A 
ATOM     26  C   LIG    1       24.135 -26.660   6.543  0.00  0.00    +0.033 A 
ATOM     27  C   LIG    1       24.395 -25.424   5.969  0.00  0.00    +0.037 A 
ATOM     28 BR   LIG    1       23.540 -23.876   6.623  0.00  0.00    -0.049 Br
ATOM     29  C   LIG    1       25.293 -25.357   4.914  0.00  0.00    +0.126 A 
ATOM     30  N   LIG    1       25.933 -26.437   4.402  0.00  0.00    -0.261 NA
ATOM     31  C   LIG    1       25.661 -27.638   4.979  0.00  0.00    +0.125 A 
ENDBRANCH  23  25
ENDBRANCH  22  23
ENDBRANCH  21  22
ENDBRANCH  17  21
TORSDOF 5
ENDMDL
MODEL 4
REMARK VINA RESULT:      -6.7      4.059      6.711
REMARK  Name = *****
REMARK                            x       y       z     vdW  Elec       q    Type
REMARK                         _______ _______ _______ _____ _____    ______ ____
ROOT
ATOM      1  C   LIG    1       25.199 -30.072   9.492  0.00  0.00    +0.111 C 
ATOM      2  C   LIG    1       25.087 -30.251   7.980  0.00  0.00    -0.005 C 
ATOM      3  C   LIG    1       25.838 -31.276   7.397  0.00  0.00    +0.009 C 
ATOM      4  C   LIG    1       25.864 -31.499   6.031  0.00  0.00    +0.049 C 
ATOM      5  C   LIG    1       25.116 -30.702   5.158  0.00  0.00    +0.026 C 
ATOM      6  C   LIG    1       24.373 -29.654   5.727  0.00  0.00    +0.002 C 
ATOM      7  N   LIG    1       26.737 -32.553   5.843  0.00  0.00    -0.349 NA
ATOM      8  C   LIG    1       27.133 -33.085   4.559  0.00  0.00    +0.149 C 
ATOM      9  C   LIG    1       27.238 -32.985   7.054  0.00  0.00    +0.090 C 
ATOM     10  C   LIG    1       26.695 -32.192   8.038  0.00  0.00    -0.020 C 
ATOM     11  C   LIG    1       26.896 -32.122   9.515  0.00  0.00    +0.059 C 
ATOM     12  C   LIG    1       24.366 -29.422   7.107  0.00  0.00    +0.007 C 
ATOM     13  C   LIG    1       25.685 -31.414  10.228  0.00  0.00    +0.097 C 
ATOM     14  N   LIG    1       26.067 -31.251  11.660  0.00  0.00    -0.299 NA
ATOM     15  C   LIG    1       25.229 -32.023  12.571  0.00  0.00    +0.105 C 
ATOM     16  C   LIG    1       26.156 -29.861  12.109  0.00  0.00    +0.091 C 
ATOM     17  C   LIG    1       26.923 -29.003  11.110  0.00  0.00    +0.044 C 
ATOM     18  C   LIG    1       26.224 -28.933   9.736  0.00  0.00    +0.049 C 
ENDROOT
BRANCH   1  20
ATOM     19  C   LIG    1       22.885 -30.546  10.101  0.00  0.00    +0.195 C 
ATOM     20  O   LIG    1       23.939 -29.592  10.028  0.00  0.00    -0.370 OA
ENDBRANCH   1  20
BRANCH  17  21
ATOM     21  C   LIG    1       27.166 -27.607  11.694  0.00  0.00    +0.237 C 
BRANCH  21  22
ATOM     22  O   LIG    1       26.435 -27.464  12.919  0.00  0.00    -0.461 OA
BRANCH  22  23
ATOM     23  C   LIG    1       25.954 -26.228  13.197  0.00  0.00    +0.341 C 
ATOM     24  O   LIG    1       26.520 -25.163  13.040  0.00  0.00    -0.245 OA
BRANCH  23  25
ATOM     25  C   LIG    1       24.594 -26.378  13.748  0.00  0.00    +0.078 A 
ATOM     26  C   LIG    1       23.621 -27.161  13.116  0.00  0.00    +0.033 A 
ATOM     27  C   LIG    1       22.363 -27.269  13.692  0.00  0.00    +0.037 A 
ATOM     28 BR   LIG    1       21.035 -28.328  12.876  0.00  0.00    -0.049 Br
ATOM     29  C   LIG    1       22.113 -26.586  14.873  0.00  0.00    +0.126 A 
ATOM     30  N   LIG    1       23.030 -25.808  15.500  0.00  0.00    -0.261 NA
ATOM     31  C   LIG    1       24.255 -25.716  14.916  0.00  0.00    +0.125 A 
ENDBRANCH  23  25
ENDBRANCH  22  23
ENDBRANCH  21  22
ENDBRANCH  17  21
TORSDOF 5
ENDMDL
MODEL 5
REMARK VINA RESULT:      -6.4      3.065      4.904
REMARK  Name = *****
REMARK                            x       y       z     vdW  Elec       q    Type
REMARK                         _______ _______ _______ _____ _____    ______ ____
ROOT
ATOM      1  C   LIG    1       23.119 -30.182  12.500  0.00  0.00    +0.111 C 
ATOM      2  C   LIG    1       22.486 -28.885  12.999  0.00  0.00    -0.005 C 
ATOM      3  C   LIG    1       21.166 -28.948  13.458  0.00  0.00    +0.009 C 
ATOM      4  C   LIG    1       20.467 -27.830  13.880  0.00  0.00    +0.049 C 
ATOM      5  C   LIG    1       21.065 -26.566  13.878  0.00  0.00    +0.026 C 
ATOM      6  C   LIG    1       22.384 -26.482  13.399  0.00  0.00    +0.002 C 
ATOM      7  N   LIG    1       19.206 -28.284  14.211  0.00  0.00    -0.349 NA
ATOM      8  C   LIG    1       18.107 -27.447  14.636  0.00  0.00    +0.149 C 
ATOM      9  C   LIG    1       19.117 -29.647  14.013  0.00  0.00    +0.090 C 
ATOM     10  C   LIG    1       20.330 -30.079  13.532  0.00  0.00    -0.020 C 
ATOM     11  C   LIG    1       20.827 -31.409  13.071  0.00  0.00    +0.059 C 
ATOM     12  C   LIG    1       23.079 -27.614  12.956  0.00  0.00    +0.007 C 
ATOM     13  C   LIG    1       22.399 -31.482  13.109  0.00  0.00    +0.097 C 
ATOM     14  N   LIG    1       22.783 -32.776  12.477  0.00  0.00    -0.299 NA
ATOM     15  C   LIG    1       23.430 -33.700  13.402  0.00  0.00    +0.105 C 
ATOM     16  C   LIG    1       23.580 -32.641  11.256  0.00  0.00    +0.091 C 
ATOM     17  C   LIG    1       22.993 -31.588  10.323  0.00  0.00    +0.044 C 
ATOM     18  C   LIG    1       22.990 -30.180  10.953  0.00  0.00    +0.049 C 
ENDROOT
BRANCH   1  20
ATOM     19  C   LIG    1       24.917 -30.403  14.133  0.00  0.00    +0.195 C 
ATOM     20  O   LIG    1       24.542 -30.176  12.778  0.00  0.00    -0.370 OA
ENDBRANCH   1  20
BRANCH  17  21
ATOM     21  C   LIG    1       23.731 -31.606   8.981  0.00  0.00    +0.237 C 
BRANCH  21  22
ATOM     22  O   LIG    1       23.295 -30.503   8.177  0.00  0.00    -0.461 OA
BRANCH  22  23
ATOM     23  C   LIG    1       23.917 -30.339   6.984  0.00  0.00    +0.341 C 
ATOM     24  O   LIG    1       23.878 -31.083   6.023  0.00  0.00    -0.245 OA
BRANCH  23  25
ATOM     25  C   LIG    1       24.682 -29.078   7.034  0.00  0.00    +0.078 A 
ATOM     26  C   LIG    1       24.489 -28.057   6.096  0.00  0.00    +0.033 A 
ATOM     27  C   LIG    1       25.233 -26.891   6.207  0.00  0.00    +0.037 A 
ATOM     28 BR   LIG    1       24.988 -25.489   4.970  0.00  0.00    -0.049 Br
ATOM     29  C   LIG    1       26.151 -26.785   7.241  0.00  0.00    +0.126 A 
ATOM     30  N   LIG    1       26.371 -27.762   8.155  0.00  0.00    -0.261 NA
ATOM     31  C   LIG    1       25.631 -28.896   8.026  0.00  0.00    +0.125 A 
ENDBRANCH  23  25
ENDBRANCH  22  23
ENDBRANCH  21  22
ENDBRANCH  17  21
TORSDOF 5
ENDMDL
MODEL 6
REMARK VINA RESULT:      -6.4      2.697      5.344
REMARK  Name = *****
REMARK                            x       y       z     vdW  Elec       q    Type
REMARK                         _______ _______ _______ _____ _____    ______ ____
ROOT
ATOM      1  C   LIG    1       24.682 -28.548  13.551  0.00  0.00    +0.111 C 
ATOM      2  C   LIG    1       23.228 -28.082  13.524  0.00  0.00    -0.005 C 
ATOM      3  C   LIG    1       22.240 -29.047  13.743  0.00  0.00    +0.009 C 
ATOM      4  C   LIG    1       20.887 -28.757  13.685  0.00  0.00    +0.049 C 
ATOM      5  C   LIG    1       20.441 -27.460  13.412  0.00  0.00    +0.026 C 
ATOM      6  C   LIG    1       21.422 -26.484  13.166  0.00  0.00    +0.002 C 
ATOM      7  N   LIG    1       20.240 -29.956  13.912  0.00  0.00    -0.349 NA
ATOM      8  C   LIG    1       18.809 -30.149  13.870  0.00  0.00    +0.149 C 
ATOM      9  C   LIG    1       21.158 -30.967  14.115  0.00  0.00    +0.090 C 
ATOM     10  C   LIG    1       22.414 -30.420  14.003  0.00  0.00    -0.020 C 
ATOM     11  C   LIG    1       23.787 -31.004  14.053  0.00  0.00    +0.059 C 
ATOM     12  C   LIG    1       22.788 -26.788  13.208  0.00  0.00    +0.007 C 
ATOM     13  C   LIG    1       24.868 -29.909  14.383  0.00  0.00    +0.097 C 
ATOM     14  N   LIG    1       26.199 -30.564  14.242  0.00  0.00    -0.299 NA
ATOM     15  C   LIG    1       26.936 -30.650  15.497  0.00  0.00    +0.105 C 
ATOM     16  C   LIG    1       27.047 -29.993  13.195  0.00  0.00    +0.091 C 
ATOM     17  C   LIG    1       26.267 -29.776  11.904  0.00  0.00    +0.044 C 
ATOM     18  C   LIG    1       25.113 -28.767  12.076  0.00  0.00    +0.049 C 
ENDROOT
BRANCH   1  20
ATOM     19  C   LIG    1       25.483 -27.264  15.464  0.00  0.00    +0.195 C 
ATOM     20  O   LIG    1       25.531 -27.488  14.059  0.00  0.00    -0.370 OA
ENDBRANCH   1  20
BRANCH  17  21
ATOM     21  C   LIG    1       27.219 -29.361  10.777  0.00  0.00    +0.237 C 
BRANCH  21  22
ATOM     22  O   LIG    1       26.472 -28.761   9.712  0.00  0.00    -0.461 OA
BRANCH  22  23
ATOM     23  C   LIG    1       26.059 -29.587   8.720  0.00  0.00    +0.341 C 
ATOM     24  O   LIG    1       26.125 -30.801   8.696  0.00  0.00    -0.245 OA
BRANCH  23  25
ATOM     25  C   LIG    1       25.502 -28.759   7.634  0.00  0.00    +0.078 A 
ATOM     26  C   LIG    1       25.820 -27.402   7.500  0.00  0.00    +0.033 A 
ATOM     27  C   LIG    1       25.270 -26.682   6.449  0.00  0.00    +0.037 A 
ATOM     28 BR   LIG    1       25.688 -24.857   6.230  0.00  0.00    -0.049 Br
ATOM     29  C   LIG    1       24.417 -27.334   5.572  0.00  0.00    +0.126 A 
ATOM     30  N   LIG    1       24.079 -28.642   5.684  0.00  0.00    -0.261 NA
ATOM     31  C   LIG    1       24.628 -29.327   6.722  0.00  0.00    +0.125 A 
ENDBRANCH  23  25
ENDBRANCH  22  23
ENDBRANCH  21  22
ENDBRANCH  17  21
TORSDOF 5
ENDMDL
MODEL 7
REMARK VINA RESULT:      -6.1      2.954      4.552
REMARK  Name = *****
REMARK                            x       y       z     vdW  Elec       q    Type
REMARK                         _______ _______ _______ _____ _____    ______ ____
ROOT
ATOM      1  C   LIG    1       24.104 -30.105  12.676  0.00  0.00    +0.111 C 
ATOM      2  C   LIG    1       25.142 -29.090  13.149  0.00  0.00    -0.005 C 
ATOM      3  C   LIG    1       24.699 -27.787  13.402  0.00  0.00    +0.009 C 
ATOM      4  C   LIG    1       25.556 -26.767  13.778  0.00  0.00    +0.049 C 
ATOM      5  C   LIG    1       26.926 -27.000  13.937  0.00  0.00    +0.026 C 
ATOM      6  C   LIG    1       27.390 -28.298  13.665  0.00  0.00    +0.002 C 
ATOM      7  N   LIG    1       24.765 -25.641  13.892  0.00  0.00    -0.349 NA
ATOM      8  C   LIG    1       25.248 -24.313  14.196  0.00  0.00    +0.149 C 
ATOM      9  C   LIG    1       23.449 -25.946  13.606  0.00  0.00    +0.090 C 
ATOM     10  C   LIG    1       23.390 -27.282  13.287  0.00  0.00    -0.020 C 
ATOM     11  C   LIG    1       22.281 -28.171  12.830  0.00  0.00    +0.059 C 
ATOM     12  C   LIG    1       26.521 -29.322  13.266  0.00  0.00    +0.007 C 
ATOM     13  C   LIG    1       22.611 -29.687  13.096  0.00  0.00    +0.097 C 
ATOM     14  N   LIG    1       21.524 -30.480  12.456  0.00  0.00    -0.299 NA
ATOM     15  C   LIG    1       20.714 -31.226  13.413  0.00  0.00    +0.105 C 
ATOM     16  C   LIG    1       21.973 -31.362  11.377  0.00  0.00    +0.091 C 
ATOM     17  C   LIG    1       22.923 -30.640  10.429  0.00  0.00    +0.044 C 
ATOM     18  C   LIG    1       24.217 -30.180  11.130  0.00  0.00    +0.049 C 
ENDROOT
BRANCH   1  20
ATOM     19  C   LIG    1       24.250 -31.654  14.555  0.00  0.00    +0.195 C 
ATOM     20  O   LIG    1       24.448 -31.427  13.163  0.00  0.00    -0.370 OA
ENDBRANCH   1  20
BRANCH  17  21
ATOM     21  C   LIG    1       23.221 -31.522   9.212  0.00  0.00    +0.237 C 
BRANCH  21  22
ATOM     22  O   LIG    1       23.264 -30.713   8.030  0.00  0.00    -0.461 OA
BRANCH  22  23
ATOM     23  C   LIG    1       24.408 -30.758   7.305  0.00  0.00    +0.341 C 
ATOM     24  O   LIG    1       24.895 -31.728   6.756  0.00  0.00    -0.245 OA
BRANCH  23  25
ATOM     25  C   LIG    1       24.996 -29.406   7.289  0.00  0.00    +0.078 A 
ATOM     26  C   LIG    1       24.724 -28.492   6.264  0.00  0.00    +0.033 A 
ATOM     27  C   LIG    1       25.301 -27.231   6.315  0.00  0.00    +0.037 A 
ATOM     28 BR   LIG    1       24.945 -25.970   4.960  0.00  0.00    -0.049 Br
ATOM     29  C   LIG    1       26.136 -26.925   7.379  0.00  0.00    +0.126 A 
ATOM     30  N   LIG    1       26.430 -27.794   8.378  0.00  0.00    -0.261 NA
ATOM     31  C   LIG    1       25.854 -29.024   8.307  0.00  0.00    +0.125 A 
ENDBRANCH  23  25
ENDBRANCH  22  23
ENDBRANCH  21  22
ENDBRANCH  17  21
TORSDOF 5
ENDMDL
MODEL 8
REMARK VINA RESULT:      -6.1      3.181      8.892
REMARK  Name = *****
REMARK                            x       y       z     vdW  Elec       q    Type
REMARK                         _______ _______ _______ _____ _____    ______ ____
ROOT
ATOM      1  C   LIG    1       25.525 -22.518   6.679  0.00  0.00    +0.111 C 
ATOM      2  C   LIG    1       26.445 -21.347   6.345  0.00  0.00    -0.005 C 
ATOM      3  C   LIG    1       26.005 -20.438   5.378  0.00  0.00    +0.009 C 
ATOM      4  C   LIG    1       26.775 -19.371   4.948  0.00  0.00    +0.049 C 
ATOM      5  C   LIG    1       28.047 -19.142   5.482  0.00  0.00    +0.026 C 
ATOM      6  C   LIG    1       28.515 -20.060   6.439  0.00  0.00    +0.002 C 
ATOM      7  N   LIG    1       26.026 -18.740   3.975  0.00  0.00    -0.349 NA
ATOM      8  C   LIG    1       26.466 -17.608   3.191  0.00  0.00    +0.149 C 
ATOM      9  C   LIG    1       24.817 -19.384   3.804  0.00  0.00    +0.090 C 
ATOM     10  C   LIG    1       24.790 -20.456   4.665  0.00  0.00    -0.020 C 
ATOM     11  C   LIG    1       23.802 -21.551   4.897  0.00  0.00    +0.059 C 
ATOM     12  C   LIG    1       27.738 -21.148   6.855  0.00  0.00    +0.007 C 
ATOM     13  C   LIG    1       23.992 -22.209   6.313  0.00  0.00    +0.097 C 
ATOM     14  N   LIG    1       23.077 -23.384   6.366  0.00  0.00    -0.299 NA
ATOM     15  C   LIG    1       22.019 -23.246   7.361  0.00  0.00    +0.105 C 
ATOM     16  C   LIG    1       23.753 -24.673   6.521  0.00  0.00    +0.091 C 
ATOM     17  C   LIG    1       24.943 -24.793   5.576  0.00  0.00    +0.044 C 
ATOM     18  C   LIG    1       26.030 -23.737   5.862  0.00  0.00    +0.049 C 
ENDROOT
BRANCH   1  20
ATOM     19  C   LIG    1       25.537 -21.831   9.020  0.00  0.00    +0.195 C 
ATOM     20  O   LIG    1       25.680 -22.886   8.074  0.00  0.00    -0.370 OA
ENDBRANCH   1  20
BRANCH  17  21
ATOM     21  C   LIG    1       25.509 -26.216   5.623  0.00  0.00    +0.237 C 
BRANCH  21  22
ATOM     22  O   LIG    1       24.763 -27.000   6.562  0.00  0.00    -0.461 OA
BRANCH  22  23
ATOM     23  C   LIG    1       24.611 -28.315   6.270  0.00  0.00    +0.341 C 
ATOM     24  O   LIG    1       24.057 -28.796   5.300  0.00  0.00    -0.245 OA
BRANCH  23  25
ATOM     25  C   LIG    1       25.236 -29.101   7.350  0.00  0.00    +0.078 A 
ATOM     26  C   LIG    1       25.813 -28.492   8.471  0.00  0.00    +0.033 A 
ATOM     27  C   LIG    1       26.376 -29.290   9.457  0.00  0.00    +0.037 A 
ATOM     28 BR   LIG    1       27.148 -28.504  10.986  0.00  0.00    -0.049 Br
ATOM     29  C   LIG    1       26.353 -30.667   9.290  0.00  0.00    +0.126 A 
ATOM     30  N   LIG    1       25.815 -31.285   8.209  0.00  0.00    -0.261 NA
ATOM     31  C   LIG    1       25.271 -30.482   7.256  0.00  0.00    +0.125 A 
ENDBRANCH  23  25
ENDBRANCH  22  23
ENDBRANCH  21  22
ENDBRANCH  17  21
TORSDOF 5
ENDMDL
