MODEL 1
REMARK VINA RESULT:      -7.7      0.000      0.000
REMARK  Name = *****
REMARK                            x       y       z     vdW  Elec       q    Type
REMARK                         _______ _______ _______ _____ _____    ______ ____
ROOT
ATOM      1  C   LIG    1       31.202 -18.277   9.828  0.00  0.00    +0.164 A 
ATOM      2  C   LIG    1       31.744 -17.695   8.672  0.00  0.00    +0.162 A 
ATOM      3  C   LIG    1       31.127 -17.924   7.443  0.00  0.00    +0.062 A 
ATOM      4  C   LIG    1       29.949 -18.699   7.368  0.00  0.00    +0.044 A 
ATOM      5  C   LIG    1       29.396 -19.250   8.520  0.00  0.00    +0.082 A 
ATOM      6  N   LIG    1       28.266 -19.958   8.513  0.00  0.00    -0.214 NA
ATOM      7  C   LIG    1       27.629 -20.131   7.350  0.00  0.00    +0.220 A 
ATOM      8  N   LIG    1       28.108 -19.664   6.186  0.00  0.00    -0.199 NA
ATOM      9  C   LIG    1       29.245 -18.970   6.200  0.00  0.00    +0.129 A 
ATOM     10  C   LIG    1       30.041 -19.051   9.728  0.00  0.00    +0.078 A 
ENDROOT
BRANCH   7  11
ATOM     11  N   LIG    1       26.418 -20.834   7.341  0.00  0.00    -0.297 N 
ATOM     12  C   LIG    1       26.607 -22.250   7.707  0.00  0.00    +0.127 C 
ATOM     13  C   LIG    1       25.261 -22.989   7.734  0.00  0.00    +0.127 C 
ATOM     14  N   LIG    1       24.563 -22.817   6.454  0.00  0.00    -0.292 N 
ATOM     15  C   LIG    1       24.762 -23.686   5.366  0.00  0.00    +0.282 C 
ATOM     16  O   LIG    1       24.719 -23.264   4.215  0.00  0.00    -0.267 OA
ATOM     17  C   LIG    1       24.306 -21.405   6.158  0.00  0.00    +0.127 C 
ATOM     18  C   LIG    1       25.619 -20.593   6.118  0.00  0.00    +0.127 C 
BRANCH  15  19
ATOM     19  C   LIG    1       25.019 -25.092   5.644  0.00  0.00    +0.189 A 
ATOM     20  O   LIG    1       26.304 -25.567   5.678  0.00  0.00    -0.458 OA
ATOM     21  C   LIG    1       26.246 -26.882   6.002  0.00  0.00    +0.196 A 
ATOM     22  C   LIG    1       24.944 -27.271   6.204  0.00  0.00    +0.042 A 
ATOM     23  C   LIG    1       24.152 -26.118   5.982  0.00  0.00    +0.054 A 
ENDBRANCH  15  19
ENDBRANCH   7  11
BRANCH   9  24
ATOM     24  N   LIG    1       29.675 -18.518   4.946  0.00  0.00    -0.343 N 
ATOM     25  H   LIG    1       30.167 -17.635   5.037  0.00  0.00    +0.144 HD
ATOM     26  H   LIG    1       30.293 -19.239   4.579  0.00  0.00    +0.144 HD
ENDBRANCH   9  24
BRANCH   1  28
ATOM     27  C   LIG    1       31.184 -17.230  11.951  0.00  0.00    +0.277 C 
ATOM     28  O   LIG    1       31.859 -18.067  11.016  0.00  0.00    -0.491 OA
ENDBRANCH   1  28
BRANCH   2  29
ATOM     29  O   LIG    1       32.877 -16.933   8.809  0.00  0.00    -0.491 OA
ATOM     30  C   LIG    1       32.671 -15.634   9.359  0.00  0.00    +0.277 C 
ENDBRANCH   2  29
TORSDOF 5
ENDMDL
MODEL 2
REMARK VINA RESULT:      -7.4      5.007     10.083
REMARK  Name = *****
REMARK                            x       y       z     vdW  Elec       q    Type
REMARK                         _______ _______ _______ _____ _____    ______ ____
ROOT
ATOM      1  C   LIG    1       24.127 -30.540   6.125  0.00  0.00    +0.164 A 
ATOM      2  C   LIG    1       25.262 -30.767   5.333  0.00  0.00    +0.162 A 
ATOM      3  C   LIG    1       26.068 -29.686   4.974  0.00  0.00    +0.062 A 
ATOM      4  C   LIG    1       25.766 -28.386   5.434  0.00  0.00    +0.044 A 
ATOM      5  C   LIG    1       24.656 -28.168   6.245  0.00  0.00    +0.082 A 
ATOM      6  N   LIG    1       24.345 -26.969   6.738  0.00  0.00    -0.214 NA
ATOM      7  C   LIG    1       25.145 -25.936   6.455  0.00  0.00    +0.220 A 
ATOM      8  N   LIG    1       26.216 -26.048   5.654  0.00  0.00    -0.199 NA
ATOM      9  C   LIG    1       26.511 -27.247   5.153  0.00  0.00    +0.129 A 
ATOM     10  C   LIG    1       23.841 -29.241   6.560  0.00  0.00    +0.078 A 
ENDROOT
BRANCH   7  11
ATOM     11  N   LIG    1       24.851 -24.683   7.007  0.00  0.00    -0.297 N 
ATOM     12  C   LIG    1       23.806 -23.980   6.239  0.00  0.00    +0.127 C 
ATOM     13  C   LIG    1       23.469 -22.629   6.889  0.00  0.00    +0.127 C 
ATOM     14  N   LIG    1       24.689 -21.831   7.056  0.00  0.00    -0.292 N 
ATOM     15  C   LIG    1       25.171 -20.972   6.052  0.00  0.00    +0.282 C 
ATOM     16  O   LIG    1       26.377 -20.809   5.897  0.00  0.00    -0.267 OA
ATOM     17  C   LIG    1       25.676 -22.513   7.899  0.00  0.00    +0.127 C 
ATOM     18  C   LIG    1       26.062 -23.886   7.309  0.00  0.00    +0.127 C 
BRANCH  15  19
ATOM     19  C   LIG    1       24.204 -20.289   5.207  0.00  0.00    +0.189 A 
ATOM     20  O   LIG    1       23.009 -19.863   5.727  0.00  0.00    -0.458 OA
ATOM     21  C   LIG    1       22.336 -19.224   4.738  0.00  0.00    +0.196 A 
ATOM     22  C   LIG    1       23.081 -19.204   3.583  0.00  0.00    +0.042 A 
ATOM     23  C   LIG    1       24.288 -19.882   3.885  0.00  0.00    +0.054 A 
ENDBRANCH  15  19
ENDBRANCH   7  11
BRANCH   9  24
ATOM     24  N   LIG    1       27.643 -27.279   4.330  0.00  0.00    -0.343 N 
ATOM     25  H   LIG    1       28.251 -26.491   4.532  0.00  0.00    +0.144 HD
ATOM     26  H   LIG    1       28.116 -28.159   4.529  0.00  0.00    +0.144 HD
ENDBRANCH   9  24
BRANCH   1  28
ATOM     27  C   LIG    1       23.543 -32.199   7.709  0.00  0.00    +0.277 C 
ATOM     28  O   LIG    1       23.332 -31.619   6.424  0.00  0.00    -0.491 OA
ENDBRANCH   1  28
BRANCH   2  29
ATOM     29  O   LIG    1       25.519 -32.054   4.934  0.00  0.00    -0.491 OA
ATOM     30  C   LIG    1       26.640 -32.672   5.561  0.00  0.00    +0.277 C 
ENDBRANCH   2  29
TORSDOF 5
ENDMDL
MODEL 3
REMARK VINA RESULT:      -7.3      2.114      8.744
REMARK  Name = *****
REMARK                            x       y       z     vdW  Elec       q    Type
REMARK                         _______ _______ _______ _____ _____    ______ ____
ROOT
ATOM      1  C   LIG    1       24.040 -21.885   6.670  0.00  0.00    +0.164 A 
ATOM      2  C   LIG    1       23.730 -21.176   5.500  0.00  0.00    +0.162 A 
ATOM      3  C   LIG    1       24.683 -20.315   4.956  0.00  0.00    +0.062 A 
ATOM      4  C   LIG    1       25.957 -20.190   5.551  0.00  0.00    +0.044 A 
ATOM      5  C   LIG    1       26.273 -20.918   6.694  0.00  0.00    +0.082 A 
ATOM      6  N   LIG    1       27.471 -20.867   7.277  0.00  0.00    -0.214 NA
ATOM      7  C   LIG    1       28.414 -20.095   6.728  0.00  0.00    +0.220 A 
ATOM      8  N   LIG    1       28.188 -19.333   5.646  0.00  0.00    -0.199 NA
ATOM      9  C   LIG    1       26.983 -19.379   5.079  0.00  0.00    +0.129 A 
ATOM     10  C   LIG    1       25.305 -21.737   7.250  0.00  0.00    +0.078 A 
ENDROOT
BRANCH   7  11
ATOM     11  N   LIG    1       29.690 -20.072   7.306  0.00  0.00    -0.297 N 
ATOM     12  C   LIG    1       29.626 -19.802   8.755  0.00  0.00    +0.127 C 
ATOM     13  C   LIG    1       31.031 -19.826   9.376  0.00  0.00    +0.127 C 
ATOM     14  N   LIG    1       31.915 -18.899   8.660  0.00  0.00    -0.292 N 
ATOM     15  C   LIG    1       32.028 -17.542   9.013  0.00  0.00    +0.282 C 
ATOM     16  O   LIG    1       32.219 -16.688   8.153  0.00  0.00    -0.267 OA
ATOM     17  C   LIG    1       32.034 -19.244   7.240  0.00  0.00    +0.127 C 
ATOM     18  C   LIG    1       30.654 -19.244   6.547  0.00  0.00    +0.127 C 
BRANCH  15  19
ATOM     19  C   LIG    1       31.912 -17.184  10.419  0.00  0.00    +0.189 A 
ATOM     20  O   LIG    1       32.978 -17.351  11.266  0.00  0.00    -0.458 OA
ATOM     21  C   LIG    1       32.605 -16.895  12.487  0.00  0.00    +0.196 A 
ATOM     22  C   LIG    1       31.320 -16.409  12.449  0.00  0.00    +0.042 A 
ATOM     23  C   LIG    1       30.874 -16.587  11.116  0.00  0.00    +0.054 A 
ENDBRANCH  15  19
ENDBRANCH   7  11
BRANCH   9  24
ATOM     24  N   LIG    1       26.829 -18.557   3.956  0.00  0.00    -0.343 N 
ATOM     25  H   LIG    1       26.917 -17.580   4.217  0.00  0.00    +0.144 HD
ATOM     26  H   LIG    1       27.565 -18.823   3.305  0.00  0.00    +0.144 HD
ENDBRANCH   9  24
BRANCH   1  28
ATOM     27  C   LIG    1       23.094 -24.052   6.782  0.00  0.00    +0.277 C 
ATOM     28  O   LIG    1       23.064 -22.691   7.204  0.00  0.00    -0.491 OA
ENDBRANCH   1  28
BRANCH   2  29
ATOM     29  O   LIG    1       22.486 -21.354   4.952  0.00  0.00    -0.491 OA
ATOM     30  C   LIG    1       21.797 -20.155   4.607  0.00  0.00    +0.277 C 
ENDBRANCH   2  29
TORSDOF 5
ENDMDL
MODEL 4
REMARK VINA RESULT:      -7.3      4.069      9.550
REMARK  Name = *****
REMARK                            x       y       z     vdW  Elec       q    Type
REMARK                         _______ _______ _______ _____ _____    ______ ____
ROOT
ATOM      1  C   LIG    1       27.022 -29.626   9.531  0.00  0.00    +0.164 A 
ATOM      2  C   LIG    1       26.554 -30.802   8.927  0.00  0.00    +0.162 A 
ATOM      3  C   LIG    1       25.659 -30.709   7.861  0.00  0.00    +0.062 A 
ATOM      4  C   LIG    1       25.260 -29.446   7.371  0.00  0.00    +0.044 A 
ATOM      5  C   LIG    1       25.750 -28.280   7.953  0.00  0.00    +0.082 A 
ATOM      6  N   LIG    1       25.436 -27.063   7.508  0.00  0.00    -0.214 NA
ATOM      7  C   LIG    1       24.630 -26.961   6.446  0.00  0.00    +0.220 A 
ATOM      8  N   LIG    1       24.085 -28.030   5.844  0.00  0.00    -0.199 NA
ATOM      9  C   LIG    1       24.392 -29.242   6.305  0.00  0.00    +0.129 A 
ATOM     10  C   LIG    1       26.604 -28.385   9.036  0.00  0.00    +0.078 A 
ENDROOT
BRANCH   7  11
ATOM     11  N   LIG    1       24.333 -25.688   5.944  0.00  0.00    -0.297 N 
ATOM     12  C   LIG    1       25.554 -24.952   5.567  0.00  0.00    +0.127 C 
ATOM     13  C   LIG    1       25.203 -23.578   4.977  0.00  0.00    +0.127 C 
ATOM     14  N   LIG    1       24.351 -22.831   5.911  0.00  0.00    -0.292 N 
ATOM     15  C   LIG    1       24.882 -22.010   6.922  0.00  0.00    +0.282 C 
ATOM     16  O   LIG    1       24.309 -21.902   8.002  0.00  0.00    -0.267 OA
ATOM     17  C   LIG    1       23.101 -23.542   6.198  0.00  0.00    +0.127 C 
ATOM     18  C   LIG    1       23.376 -24.940   6.792  0.00  0.00    +0.127 C 
BRANCH  15  19
ATOM     19  C   LIG    1       26.122 -21.298   6.652  0.00  0.00    +0.189 A 
ATOM     20  O   LIG    1       27.271 -21.631   7.323  0.00  0.00    -0.458 OA
ATOM     21  C   LIG    1       28.267 -20.847   6.841  0.00  0.00    +0.196 A 
ATOM     22  C   LIG    1       27.795 -20.021   5.849  0.00  0.00    +0.042 A 
ATOM     23  C   LIG    1       26.415 -20.316   5.720  0.00  0.00    +0.054 A 
ENDBRANCH  15  19
ENDBRANCH   7  11
BRANCH   9  24
ATOM     24  N   LIG    1       23.784 -30.303   5.622  0.00  0.00    -0.343 N 
ATOM     25  H   LIG    1       24.479 -30.985   5.335  0.00  0.00    +0.144 HD
ATOM     26  H   LIG    1       23.120 -30.718   6.273  0.00  0.00    +0.144 HD
ENDBRANCH   9  24
BRANCH   1  28
ATOM     27  C   LIG    1       27.550 -28.949  11.737  0.00  0.00    +0.277 C 
ATOM     28  O   LIG    1       27.868 -29.754  10.605  0.00  0.00    -0.491 OA
ENDBRANCH   1  28
BRANCH   2  29
ATOM     29  O   LIG    1       26.994 -32.000   9.430  0.00  0.00    -0.491 OA
ATOM     30  C   LIG    1       27.222 -33.019   8.459  0.00  0.00    +0.277 C 
ENDBRANCH   2  29
TORSDOF 5
ENDMDL
MODEL 5
REMARK VINA RESULT:      -7.2      1.666      2.179
REMARK  Name = *****
REMARK                            x       y       z     vdW  Elec       q    Type
REMARK                         _______ _______ _______ _____ _____    ______ ____
ROOT
ATOM      1  C   LIG    1       30.948 -20.167   8.386  0.00  0.00    +0.164 A 
ATOM      2  C   LIG    1       31.089 -19.014   7.598  0.00  0.00    +0.162 A 
ATOM      3  C   LIG    1       30.114 -18.719   6.645  0.00  0.00    +0.062 A 
ATOM      4  C   LIG    1       28.980 -19.548   6.503  0.00  0.00    +0.044 A 
ATOM      5  C   LIG    1       28.827 -20.674   7.307  0.00  0.00    +0.082 A 
ATOM      6  N   LIG    1       27.760 -21.471   7.241  0.00  0.00    -0.214 NA
ATOM      7  C   LIG    1       26.787 -21.163   6.376  0.00  0.00    +0.220 A 
ATOM      8  N   LIG    1       26.867 -20.116   5.540  0.00  0.00    -0.199 NA
ATOM      9  C   LIG    1       27.944 -19.334   5.601  0.00  0.00    +0.129 A 
ATOM     10  C   LIG    1       29.822 -20.980   8.220  0.00  0.00    +0.078 A 
ENDROOT
BRANCH   7  11
ATOM     11  N   LIG    1       25.642 -21.967   6.334  0.00  0.00    -0.297 N 
ATOM     12  C   LIG    1       25.753 -23.121   7.246  0.00  0.00    +0.127 C 
ATOM     13  C   LIG    1       24.469 -23.963   7.217  0.00  0.00    +0.127 C 
ATOM     14  N   LIG    1       24.152 -24.354   5.837  0.00  0.00    -0.292 N 
ATOM     15  C   LIG    1       24.664 -25.524   5.250  0.00  0.00    +0.282 C 
ATOM     16  O   LIG    1       24.934 -25.554   4.053  0.00  0.00    -0.267 OA
ATOM     17  C   LIG    1       23.956 -23.187   4.972  0.00  0.00    +0.127 C 
ATOM     18  C   LIG    1       25.210 -22.287   4.954  0.00  0.00    +0.127 C 
BRANCH  15  19
ATOM     19  C   LIG    1       24.864 -26.691   6.096  0.00  0.00    +0.189 A 
ATOM     20  O   LIG    1       24.042 -27.782   5.977  0.00  0.00    -0.458 OA
ATOM     21  C   LIG    1       24.485 -28.725   6.845  0.00  0.00    +0.196 A 
ATOM     22  C   LIG    1       25.599 -28.278   7.514  0.00  0.00    +0.042 A 
ATOM     23  C   LIG    1       25.850 -26.971   7.029  0.00  0.00    +0.054 A 
ENDBRANCH  15  19
ENDBRANCH   7  11
BRANCH   9  24
ATOM     24  N   LIG    1       27.948 -18.265   4.697  0.00  0.00    -0.343 N 
ATOM     25  H   LIG    1       27.320 -18.453   3.922  0.00  0.00    +0.144 HD
ATOM     26  H   LIG    1       27.639 -17.448   5.220  0.00  0.00    +0.144 HD
ENDBRANCH   9  24
BRANCH   1  28
ATOM     27  C   LIG    1       31.855 -21.721   9.924  0.00  0.00    +0.277 C 
ATOM     28  O   LIG    1       31.947 -20.450   9.285  0.00  0.00    -0.491 OA
ENDBRANCH   1  28
BRANCH   2  29
ATOM     29  O   LIG    1       32.200 -18.234   7.796  0.00  0.00    -0.491 OA
ATOM     30  C   LIG    1       32.067 -17.233   8.802  0.00  0.00    +0.277 C 
ENDBRANCH   2  29
TORSDOF 5
ENDMDL
MODEL 6
REMARK VINA RESULT:      -7.1      2.803      8.969
REMARK  Name = *****
REMARK                            x       y       z     vdW  Elec       q    Type
REMARK                         _______ _______ _______ _____ _____    ______ ____
ROOT
ATOM      1  C   LIG    1       24.560 -20.135   4.660  0.00  0.00    +0.164 A 
ATOM      2  C   LIG    1       23.702 -20.692   5.620  0.00  0.00    +0.162 A 
ATOM      3  C   LIG    1       24.229 -21.104   6.844  0.00  0.00    +0.062 A 
ATOM      4  C   LIG    1       25.601 -20.926   7.127  0.00  0.00    +0.044 A 
ATOM      5  C   LIG    1       26.444 -20.345   6.185  0.00  0.00    +0.082 A 
ATOM      6  N   LIG    1       27.738 -20.120   6.413  0.00  0.00    -0.214 NA
ATOM      7  C   LIG    1       28.242 -20.452   7.606  0.00  0.00    +0.220 A 
ATOM      8  N   LIG    1       27.511 -21.047   8.561  0.00  0.00    -0.199 NA
ATOM      9  C   LIG    1       26.222 -21.283   8.319  0.00  0.00    +0.129 A 
ATOM     10  C   LIG    1       25.918 -19.979   4.958  0.00  0.00    +0.078 A 
ENDROOT
BRANCH   7  11
ATOM     11  N   LIG    1       29.590 -20.176   7.870  0.00  0.00    -0.297 N 
ATOM     12  C   LIG    1       29.834 -19.984   9.312  0.00  0.00    +0.127 C 
ATOM     13  C   LIG    1       31.324 -19.727   9.582  0.00  0.00    +0.127 C 
ATOM     14  N   LIG    1       31.798 -18.602   8.768  0.00  0.00    -0.292 N 
ATOM     15  C   LIG    1       31.720 -17.269   9.208  0.00  0.00    +0.282 C 
ATOM     16  O   LIG    1       31.516 -16.360   8.409  0.00  0.00    -0.267 OA
ATOM     17  C   LIG    1       31.628 -18.856   7.334  0.00  0.00    +0.127 C 
ATOM     18  C   LIG    1       30.149 -19.128   6.985  0.00  0.00    +0.127 C 
BRANCH  15  19
ATOM     19  C   LIG    1       31.887 -17.000  10.628  0.00  0.00    +0.189 A 
ATOM     20  O   LIG    1       33.024 -17.403  11.280  0.00  0.00    -0.458 OA
ATOM     21  C   LIG    1       32.929 -16.982  12.566  0.00  0.00    +0.196 A 
ATOM     22  C   LIG    1       31.758 -16.290  12.762  0.00  0.00    +0.042 A 
ATOM     23  C   LIG    1       31.089 -16.294  11.513  0.00  0.00    +0.054 A 
ENDBRANCH  15  19
ENDBRANCH   7  11
BRANCH   9  24
ATOM     24  N   LIG    1       25.530 -21.904   9.366  0.00  0.00    -0.343 N 
ATOM     25  H   LIG    1       26.089 -21.897  10.213  0.00  0.00    +0.144 HD
ATOM     26  H   LIG    1       24.672 -21.373   9.496  0.00  0.00    +0.144 HD
ENDBRANCH   9  24
BRANCH   1  28
ATOM     27  C   LIG    1       23.452 -18.471   3.391  0.00  0.00    +0.277 C 
ATOM     28  O   LIG    1       24.016 -19.779   3.450  0.00  0.00    -0.491 OA
ENDBRANCH   1  28
BRANCH   2  29
ATOM     29  O   LIG    1       22.375 -20.819   5.298  0.00  0.00    -0.491 OA
ATOM     30  C   LIG    1       21.858 -22.145   5.368  0.00  0.00    +0.277 C 
ENDBRANCH   2  29
TORSDOF 5
ENDMDL
MODEL 7
REMARK VINA RESULT:      -6.7      4.070     10.677
REMARK  Name = *****
REMARK                            x       y       z     vdW  Elec       q    Type
REMARK                         _______ _______ _______ _____ _____    ______ ____
ROOT
ATOM      1  C   LIG    1       23.988 -31.556   6.207  0.00  0.00    +0.164 A 
ATOM      2  C   LIG    1       24.852 -31.754   7.295  0.00  0.00    +0.162 A 
ATOM      3  C   LIG    1       25.501 -30.654   7.855  0.00  0.00    +0.062 A 
ATOM      4  C   LIG    1       25.262 -29.354   7.360  0.00  0.00    +0.044 A 
ATOM      5  C   LIG    1       24.381 -29.157   6.300  0.00  0.00    +0.082 A 
ATOM      6  N   LIG    1       24.091 -27.949   5.816  0.00  0.00    -0.214 NA
ATOM      7  C   LIG    1       24.657 -26.881   6.386  0.00  0.00    +0.220 A 
ATOM      8  N   LIG    1       25.543 -26.980   7.389  0.00  0.00    -0.199 NA
ATOM      9  C   LIG    1       25.840 -28.192   7.857  0.00  0.00    +0.129 A 
ATOM     10  C   LIG    1       23.775 -30.260   5.725  0.00  0.00    +0.078 A 
ENDROOT
BRANCH   7  11
ATOM     11  N   LIG    1       24.321 -25.606   5.915  0.00  0.00    -0.297 N 
ATOM     12  C   LIG    1       25.512 -24.856   5.475  0.00  0.00    +0.127 C 
ATOM     13  C   LIG    1       25.115 -23.479   4.921  0.00  0.00    +0.127 C 
ATOM     14  N   LIG    1       24.313 -22.749   5.910  0.00  0.00    -0.292 N 
ATOM     15  C   LIG    1       24.895 -21.933   6.896  0.00  0.00    +0.282 C 
ATOM     16  O   LIG    1       24.385 -21.840   8.009  0.00  0.00    -0.267 OA
ATOM     17  C   LIG    1       23.088 -23.474   6.262  0.00  0.00    +0.127 C 
ATOM     18  C   LIG    1       23.409 -24.875   6.825  0.00  0.00    +0.127 C 
BRANCH  15  19
ATOM     19  C   LIG    1       26.111 -21.207   6.562  0.00  0.00    +0.189 A 
ATOM     20  O   LIG    1       27.288 -21.497   7.203  0.00  0.00    -0.458 OA
ATOM     21  C   LIG    1       28.252 -20.710   6.663  0.00  0.00    +0.196 A 
ATOM     22  C   LIG    1       27.730 -19.926   5.663  0.00  0.00    +0.042 A 
ATOM     23  C   LIG    1       26.353 -20.250   5.591  0.00  0.00    +0.054 A 
ENDBRANCH  15  19
ENDBRANCH   7  11
BRANCH   9  24
ATOM     24  N   LIG    1       26.771 -28.208   8.903  0.00  0.00    -0.343 N 
ATOM     25  H   LIG    1       26.371 -27.795   9.740  0.00  0.00    +0.144 HD
ATOM     26  H   LIG    1       27.005 -29.187   9.061  0.00  0.00    +0.144 HD
ENDBRANCH   9  24
BRANCH   1  28
ATOM     27  C   LIG    1       24.124 -33.281   4.591  0.00  0.00    +0.277 C 
ATOM     28  O   LIG    1       23.398 -32.666   5.652  0.00  0.00    -0.491 OA
ENDBRANCH   1  28
BRANCH   2  29
ATOM     29  O   LIG    1       25.028 -33.037   7.749  0.00  0.00    -0.491 OA
ATOM     30  C   LIG    1       26.372 -33.510   7.725  0.00  0.00    +0.277 C 
ENDBRANCH   2  29
TORSDOF 5
ENDMDL
MODEL 8
REMARK VINA RESULT:      -6.6      5.160     10.467
REMARK  Name = *****
REMARK                            x       y       z     vdW  Elec       q    Type
REMARK                         _______ _______ _______ _____ _____    ______ ____
ROOT
ATOM      1  C   LIG    1       26.301 -30.601  11.628  0.00  0.00    +0.164 A 
ATOM      2  C   LIG    1       25.669 -31.803  11.276  0.00  0.00    +0.162 A 
ATOM      3  C   LIG    1       25.032 -31.898  10.039  0.00  0.00    +0.062 A 
ATOM      4  C   LIG    1       25.058 -30.813   9.136  0.00  0.00    +0.044 A 
ATOM      5  C   LIG    1       25.712 -29.632   9.475  0.00  0.00    +0.082 A 
ATOM      6  N   LIG    1       25.799 -28.590   8.648  0.00  0.00    -0.214 NA
ATOM      7  C   LIG    1       25.248 -28.692   7.434  0.00  0.00    +0.220 A 
ATOM      8  N   LIG    1       24.569 -29.779   7.036  0.00  0.00    -0.199 NA
ATOM      9  C   LIG    1       24.474 -30.810   7.875  0.00  0.00    +0.129 A 
ATOM     10  C   LIG    1       26.304 -29.534  10.722  0.00  0.00    +0.078 A 
ENDROOT
BRANCH   7  11
ATOM     11  N   LIG    1       25.376 -27.620   6.542  0.00  0.00    -0.297 N 
ATOM     12  C   LIG    1       26.274 -26.576   7.070  0.00  0.00    +0.127 C 
ATOM     13  C   LIG    1       26.435 -25.432   6.057  0.00  0.00    +0.127 C 
ATOM     14  N   LIG    1       25.118 -24.912   5.670  0.00  0.00    -0.292 N 
ATOM     15  C   LIG    1       24.474 -23.886   6.385  0.00  0.00    +0.282 C 
ATOM     16  O   LIG    1       23.251 -23.872   6.490  0.00  0.00    -0.267 OA
ATOM     17  C   LIG    1       24.278 -25.949   5.064  0.00  0.00    +0.127 C 
ATOM     18  C   LIG    1       24.074 -27.138   6.026  0.00  0.00    +0.127 C 
BRANCH  15  19
ATOM     19  C   LIG    1       25.294 -22.849   6.993  0.00  0.00    +0.189 A 
ATOM     20  O   LIG    1       25.845 -21.860   6.220  0.00  0.00    -0.458 OA
ATOM     21  C   LIG    1       26.511 -21.016   7.048  0.00  0.00    +0.196 A 
ATOM     22  C   LIG    1       26.385 -21.424   8.354  0.00  0.00    +0.042 A 
ATOM     23  C   LIG    1       25.595 -22.600   8.323  0.00  0.00    +0.054 A 
ENDBRANCH  15  19
ENDBRANCH   7  11
BRANCH   9  24
ATOM     24  N   LIG    1       23.751 -31.904   7.383  0.00  0.00    -0.343 N 
ATOM     25  H   LIG    1       24.313 -32.749   7.426  0.00  0.00    +0.144 HD
ATOM     26  H   LIG    1       22.927 -31.991   7.974  0.00  0.00    +0.144 HD
ENDBRANCH   9  24
BRANCH   1  28
ATOM     27  C   LIG    1       27.793 -29.446  13.059  0.00  0.00    +0.277 C 
ATOM     28  O   LIG    1       26.882 -30.526  12.870  0.00  0.00    -0.491 OA
ENDBRANCH   1  28
BRANCH   2  29
ATOM     29  O   LIG    1       25.695 -32.831  12.184  0.00  0.00    -0.491 OA
ATOM     30  C   LIG    1       24.428 -33.196  12.724  0.00  0.00    +0.277 C 
ENDBRANCH   2  29
TORSDOF 5
ENDMDL
MODEL 9
REMARK VINA RESULT:      -6.6      5.330     11.283
REMARK  Name = *****
REMARK                            x       y       z     vdW  Elec       q    Type
REMARK                         _______ _______ _______ _____ _____    ______ ____
ROOT
ATOM      1  C   LIG    1       23.693 -32.616   9.886  0.00  0.00    +0.164 A 
ATOM      2  C   LIG    1       24.572 -32.524  10.975  0.00  0.00    +0.162 A 
ATOM      3  C   LIG    1       25.528 -31.508  10.993  0.00  0.00    +0.062 A 
ATOM      4  C   LIG    1       25.584 -30.561   9.947  0.00  0.00    +0.044 A 
ATOM      5  C   LIG    1       24.691 -30.636   8.883  0.00  0.00    +0.082 A 
ATOM      6  N   LIG    1       24.674 -29.748   7.888  0.00  0.00    -0.214 NA
ATOM      7  C   LIG    1       25.543 -28.733   7.926  0.00  0.00    +0.220 A 
ATOM      8  N   LIG    1       26.462 -28.601   8.895  0.00  0.00    -0.199 NA
ATOM      9  C   LIG    1       26.481 -29.502   9.878  0.00  0.00    +0.129 A 
ATOM     10  C   LIG    1       23.774 -31.673   8.855  0.00  0.00    +0.078 A 
ENDROOT
BRANCH   7  11
ATOM     11  N   LIG    1       25.501 -27.770   6.909  0.00  0.00    -0.297 N 
ATOM     12  C   LIG    1       26.316 -26.588   7.245  0.00  0.00    +0.127 C 
ATOM     13  C   LIG    1       26.292 -25.566   6.098  0.00  0.00    +0.127 C 
ATOM     14  N   LIG    1       24.906 -25.226   5.755  0.00  0.00    -0.292 N 
ATOM     15  C   LIG    1       24.205 -24.187   6.394  0.00  0.00    +0.282 C 
ATOM     16  O   LIG    1       22.997 -24.279   6.589  0.00  0.00    -0.267 OA
ATOM     17  C   LIG    1       24.142 -26.405   5.337  0.00  0.00    +0.127 C 
ATOM     18  C   LIG    1       24.126 -27.482   6.442  0.00  0.00    +0.127 C 
BRANCH  15  19
ATOM     19  C   LIG    1       24.949 -23.010   6.816  0.00  0.00    +0.189 A 
ATOM     20  O   LIG    1       25.276 -22.036   5.908  0.00  0.00    -0.458 OA
ATOM     21  C   LIG    1       25.918 -21.048   6.580  0.00  0.00    +0.196 A 
ATOM     22  C   LIG    1       25.996 -21.349   7.919  0.00  0.00    +0.042 A 
ATOM     23  C   LIG    1       25.366 -22.608   8.074  0.00  0.00    +0.054 A 
ENDBRANCH  15  19
ENDBRANCH   7  11
BRANCH   9  24
ATOM     24  N   LIG    1       27.467 -29.292  10.849  0.00  0.00    -0.343 N 
ATOM     25  H   LIG    1       27.940 -30.163  11.070  0.00  0.00    +0.144 HD
ATOM     26  H   LIG    1       28.121 -28.619  10.452  0.00  0.00    +0.144 HD
ENDBRANCH   9  24
BRANCH   1  28
ATOM     27  C   LIG    1       21.430 -33.281   9.690  0.00  0.00    +0.277 C 
ATOM     28  O   LIG    1       22.793 -33.653   9.880  0.00  0.00    -0.491 OA
ENDBRANCH   1  28
BRANCH   2  29
ATOM     29  O   LIG    1       24.457 -33.458  11.973  0.00  0.00    -0.491 OA
ATOM     30  C   LIG    1       23.872 -32.983  13.184  0.00  0.00    +0.277 C 
ENDBRANCH   2  29
TORSDOF 5
ENDMDL
