MODEL 1
REMARK VINA RESULT:      -3.9      0.000      0.000
REMARK  Name = *****
REMARK                            x       y       z     vdW  Elec       q    Type
REMARK                         _______ _______ _______ _____ _____    ______ ____
ROOT
ATOM      1  C   LIG    1       24.218 -20.115   4.858  0.00  0.00    +0.125 C 
ATOM      2  C   LIG    1       25.232 -19.642   3.769  0.00  0.00    +0.101 C 
ATOM      3  N   LIG    1       26.313 -20.090   4.691  0.00  0.00    -0.260 N 
ATOM      4  C   LIG    1       27.257 -19.084   4.792  0.00  0.00    +0.131 C 
ATOM      5  C   LIG    1       26.890 -17.981   4.111  0.00  0.00    +0.016 C 
ATOM      6  C   LIG    1       25.534 -18.173   3.477  0.00  0.00    +0.068 C 
ATOM      7  C   LIG    1       25.459 -20.327   5.728  0.00  0.00    +0.228 C 
ATOM      8  O   LIG    1       25.715 -20.507   6.904  0.00  0.00    -0.275 OA
ENDROOT
BRANCH   1  10
ATOM      9  C   LIG    1       21.989 -21.287   4.949  0.00  0.00    +0.038 C 
ATOM     10  C   LIG    1       23.445 -21.377   4.515  0.00  0.00    +0.125 C 
BRANCH  10  11
ATOM     11  O   LIG    1       23.525 -21.572   3.105  0.00  0.00    -0.391 OA
ATOM     12  H   LIG    1       24.005 -20.820   2.713  0.00  0.00    +0.210 HD
ENDBRANCH  10  11
ENDBRANCH   1  10
BRANCH   4  13
ATOM     13  C   LIG    1       28.508 -19.330   5.566  0.00  0.00    +0.352 C 
ATOM     14  O   LIG    1       29.387 -18.496   5.709  0.00  0.00    -0.244 OA
BRANCH  13  15
ATOM     15  O   LIG    1       28.636 -20.594   6.035  0.00  0.00    -0.476 OA
ATOM     16  H   LIG    1       28.224 -20.775   6.911  0.00  0.00    +0.295 HD
ENDBRANCH  13  15
ENDBRANCH   4  13
BRANCH   5  17
ATOM     17  S   LIG    1       27.684 -16.455   4.003  0.00  0.00    -0.126 S 
BRANCH  17  18
ATOM     18  C   LIG    1       26.328 -15.396   3.376  0.00  0.00    +0.093 C 
BRANCH  18  19
ATOM     19  C   LIG    1       26.827 -14.170   2.596  0.00  0.00    +0.113 C 
BRANCH  19  20
ATOM     20  N   LIG    1       25.765 -13.265   2.208  0.00  0.00    -0.335 N 
ATOM     21  H   LIG    1       25.652 -13.160   1.203  0.00  0.00    +0.147 HD
BRANCH  20  22
ATOM     22  C   LIG    1       24.678 -12.943   2.960  0.00  0.00    +0.171 C 
ATOM     23  N   LIG    1       23.774 -12.064   2.731  0.00  0.00    -0.293 NA
ATOM     24  H   LIG    1       23.979 -11.554   1.874  0.00  0.00    +0.188 HD
ENDBRANCH  20  22
ENDBRANCH  19  20
ENDBRANCH  18  19
ENDBRANCH  17  18
ENDBRANCH   5  17
TORSDOF 9
ENDMDL
MODEL 2
REMARK VINA RESULT:      -3.7      1.342      1.735
REMARK  Name = *****
REMARK                            x       y       z     vdW  Elec       q    Type
REMARK                         _______ _______ _______ _____ _____    ______ ____
ROOT
ATOM      1  C   LIG    1       24.229 -20.053   4.889  0.00  0.00    +0.125 C 
ATOM      2  C   LIG    1       25.230 -19.586   3.786  0.00  0.00    +0.101 C 
ATOM      3  N   LIG    1       26.322 -20.038   4.693  0.00  0.00    -0.260 N 
ATOM      4  C   LIG    1       27.272 -19.035   4.780  0.00  0.00    +0.131 C 
ATOM      5  C   LIG    1       26.899 -17.931   4.104  0.00  0.00    +0.016 C 
ATOM      6  C   LIG    1       25.534 -18.118   3.489  0.00  0.00    +0.068 C 
ATOM      7  C   LIG    1       25.482 -20.271   5.741  0.00  0.00    +0.228 C 
ATOM      8  O   LIG    1       25.753 -20.451   6.913  0.00  0.00    -0.275 OA
ENDROOT
BRANCH   1  10
ATOM      9  C   LIG    1       21.971 -21.171   4.903  0.00  0.00    +0.038 C 
ATOM     10  C   LIG    1       23.446 -21.312   4.557  0.00  0.00    +0.125 C 
BRANCH  10  11
ATOM     11  O   LIG    1       23.601 -21.572   3.164  0.00  0.00    -0.391 OA
ATOM     12  H   LIG    1       23.521 -22.531   3.015  0.00  0.00    +0.210 HD
ENDBRANCH  10  11
ENDBRANCH   1  10
BRANCH   4  13
ATOM     13  C   LIG    1       28.533 -19.287   5.537  0.00  0.00    +0.352 C 
ATOM     14  O   LIG    1       28.779 -20.339   6.103  0.00  0.00    -0.244 OA
BRANCH  13  15
ATOM     15  O   LIG    1       29.357 -18.217   5.621  0.00  0.00    -0.476 OA
ATOM     16  H   LIG    1       29.676 -17.985   6.523  0.00  0.00    +0.295 HD
ENDBRANCH  13  15
ENDBRANCH   4  13
BRANCH   5  17
ATOM     17  S   LIG    1       27.699 -16.408   3.985  0.00  0.00    -0.126 S 
BRANCH  17  18
ATOM     18  C   LIG    1       26.363 -15.363   3.293  0.00  0.00    +0.093 C 
BRANCH  18  19
ATOM     19  C   LIG    1       26.855 -13.988   2.815  0.00  0.00    +0.113 C 
BRANCH  19  20
ATOM     20  N   LIG    1       28.215 -13.694   3.218  0.00  0.00    -0.335 N 
ATOM     21  H   LIG    1       28.919 -13.952   2.531  0.00  0.00    +0.147 HD
BRANCH  20  22
ATOM     22  C   LIG    1       28.592 -12.751   4.123  0.00  0.00    +0.171 C 
ATOM     23  N   LIG    1       28.136 -12.541   5.303  0.00  0.00    -0.293 NA
ATOM     24  H   LIG    1       27.370 -13.180   5.509  0.00  0.00    +0.188 HD
ENDBRANCH  20  22
ENDBRANCH  19  20
ENDBRANCH  18  19
ENDBRANCH  17  18
ENDBRANCH   5  17
TORSDOF 9
ENDMDL
MODEL 3
REMARK VINA RESULT:      -3.3      3.676      7.460
REMARK  Name = *****
REMARK                            x       y       z     vdW  Elec       q    Type
REMARK                         _______ _______ _______ _____ _____    ______ ____
ROOT
ATOM      1  C   LIG    1       27.876 -14.061   4.588  0.00  0.00    +0.125 C 
ATOM      2  C   LIG    1       27.266 -14.863   3.396  0.00  0.00    +0.101 C 
ATOM      3  N   LIG    1       25.980 -14.171   3.689  0.00  0.00    -0.260 N 
ATOM      4  C   LIG    1       24.967 -15.113   3.731  0.00  0.00    +0.131 C 
ATOM      5  C   LIG    1       25.440 -16.365   3.586  0.00  0.00    +0.016 C 
ATOM      6  C   LIG    1       26.944 -16.356   3.459  0.00  0.00    +0.068 C 
ATOM      7  C   LIG    1       26.436 -13.611   4.845  0.00  0.00    +0.228 C 
ATOM      8  O   LIG    1       25.805 -13.082   5.740  0.00  0.00    -0.275 OA
ENDROOT
BRANCH   1  10
ATOM      9  C   LIG    1       28.371 -12.209   2.952  0.00  0.00    +0.038 C 
ATOM     10  C   LIG    1       28.839 -12.953   4.194  0.00  0.00    +0.125 C 
BRANCH  10  11
ATOM     11  O   LIG    1       28.945 -12.053   5.294  0.00  0.00    -0.391 OA
ATOM     12  H   LIG    1       29.880 -11.800   5.400  0.00  0.00    +0.210 HD
ENDBRANCH  10  11
ENDBRANCH   1  10
BRANCH   4  13
ATOM     13  C   LIG    1       23.554 -14.660   3.891  0.00  0.00    +0.352 C 
ATOM     14  O   LIG    1       22.755 -15.200   4.638  0.00  0.00    -0.244 OA
BRANCH  13  15
ATOM     15  O   LIG    1       23.197 -13.645   3.071  0.00  0.00    -0.476 OA
ATOM     16  H   LIG    1       23.036 -13.884   2.129  0.00  0.00    +0.295 HD
ENDBRANCH  13  15
ENDBRANCH   4  13
BRANCH   5  17
ATOM     17  S   LIG    1       24.589 -17.863   3.651  0.00  0.00    -0.126 S 
BRANCH  17  18
ATOM     18  C   LIG    1       25.970 -19.059   3.502  0.00  0.00    +0.093 C 
BRANCH  18  19
ATOM     19  C   LIG    1       26.236 -19.841   4.797  0.00  0.00    +0.113 C 
BRANCH  19  20
ATOM     20  N   LIG    1       27.643 -19.943   5.127  0.00  0.00    -0.335 N 
ATOM     21  H   LIG    1       28.254 -19.406   4.517  0.00  0.00    +0.147 HD
BRANCH  20  22
ATOM     22  C   LIG    1       28.155 -20.255   6.347  0.00  0.00    +0.171 C 
ATOM     23  N   LIG    1       29.190 -20.957   6.629  0.00  0.00    -0.293 NA
ATOM     24  H   LIG    1       29.616 -21.324   5.780  0.00  0.00    +0.188 HD
ENDBRANCH  20  22
ENDBRANCH  19  20
ENDBRANCH  18  19
ENDBRANCH  17  18
ENDBRANCH   5  17
TORSDOF 9
ENDMDL
MODEL 4
REMARK VINA RESULT:      -3.2      3.590      7.392
REMARK  Name = *****
REMARK                            x       y       z     vdW  Elec       q    Type
REMARK                         _______ _______ _______ _____ _____    ______ ____
ROOT
ATOM      1  C   LIG    1       27.887 -14.062   4.616  0.00  0.00    +0.125 C 
ATOM      2  C   LIG    1       27.287 -14.862   3.417  0.00  0.00    +0.101 C 
ATOM      3  N   LIG    1       25.993 -14.186   3.714  0.00  0.00    -0.260 N 
ATOM      4  C   LIG    1       24.990 -15.140   3.747  0.00  0.00    +0.131 C 
ATOM      5  C   LIG    1       25.478 -16.386   3.593  0.00  0.00    +0.016 C 
ATOM      6  C   LIG    1       26.982 -16.358   3.469  0.00  0.00    +0.068 C 
ATOM      7  C   LIG    1       26.441 -13.630   4.875  0.00  0.00    +0.228 C 
ATOM      8  O   LIG    1       25.802 -13.115   5.773  0.00  0.00    -0.275 OA
ENDROOT
BRANCH   1  10
ATOM      9  C   LIG    1       28.374 -12.206   2.983  0.00  0.00    +0.038 C 
ATOM     10  C   LIG    1       28.837 -12.940   4.233  0.00  0.00    +0.125 C 
BRANCH  10  11
ATOM     11  O   LIG    1       28.915 -12.036   5.332  0.00  0.00    -0.391 OA
ATOM     12  H   LIG    1       28.793 -12.538   6.158  0.00  0.00    +0.210 HD
ENDBRANCH  10  11
ENDBRANCH   1  10
BRANCH   4  13
ATOM     13  C   LIG    1       23.572 -14.705   3.908  0.00  0.00    +0.352 C 
ATOM     14  O   LIG    1       22.774 -15.268   4.639  0.00  0.00    -0.244 OA
BRANCH  13  15
ATOM     15  O   LIG    1       23.209 -13.676   3.107  0.00  0.00    -0.476 OA
ATOM     16  H   LIG    1       22.400 -13.182   3.376  0.00  0.00    +0.295 HD
ENDBRANCH  13  15
ENDBRANCH   4  13
BRANCH   5  17
ATOM     17  S   LIG    1       24.644 -17.894   3.645  0.00  0.00    -0.126 S 
BRANCH  17  18
ATOM     18  C   LIG    1       26.047 -19.069   3.722  0.00  0.00    +0.093 C 
BRANCH  18  19
ATOM     19  C   LIG    1       25.978 -20.017   4.928  0.00  0.00    +0.113 C 
BRANCH  19  20
ATOM     20  N   LIG    1       25.197 -21.211   4.675  0.00  0.00    -0.335 N 
ATOM     21  H   LIG    1       25.747 -22.016   4.385  0.00  0.00    +0.147 HD
BRANCH  20  22
ATOM     22  C   LIG    1       23.975 -21.491   5.203  0.00  0.00    +0.171 C 
ATOM     23  N   LIG    1       22.814 -21.261   4.711  0.00  0.00    -0.293 NA
ATOM     24  H   LIG    1       22.894 -20.772   3.821  0.00  0.00    +0.188 HD
ENDBRANCH  20  22
ENDBRANCH  19  20
ENDBRANCH  18  19
ENDBRANCH  17  18
ENDBRANCH   5  17
TORSDOF 9
ENDMDL
MODEL 5
REMARK VINA RESULT:      -3.0      3.265      6.884
REMARK  Name = *****
REMARK                            x       y       z     vdW  Elec       q    Type
REMARK                         _______ _______ _______ _____ _____    ______ ____
ROOT
ATOM      1  C   LIG    1       24.147 -13.588   3.705  0.00  0.00    +0.125 C 
ATOM      2  C   LIG    1       23.811 -14.726   4.719  0.00  0.00    +0.101 C 
ATOM      3  N   LIG    1       24.953 -15.482   4.131  0.00  0.00    -0.260 N 
ATOM      4  C   LIG    1       24.536 -16.771   3.851  0.00  0.00    +0.131 C 
ATOM      5  C   LIG    1       23.224 -16.940   4.103  0.00  0.00    +0.016 C 
ATOM      6  C   LIG    1       22.602 -15.651   4.580  0.00  0.00    +0.068 C 
ATOM      7  C   LIG    1       25.141 -14.592   3.115  0.00  0.00    +0.228 C 
ATOM      8  O   LIG    1       25.795 -14.721   2.097  0.00  0.00    -0.275 OA
ENDROOT
BRANCH   1  10
ATOM      9  C   LIG    1       23.731 -11.459   4.986  0.00  0.00    +0.038 C 
ATOM     10  C   LIG    1       24.770 -12.344   4.315  0.00  0.00    +0.125 C 
BRANCH  10  11
ATOM     11  O   LIG    1       25.746 -12.764   5.267  0.00  0.00    -0.391 OA
ATOM     12  H   LIG    1       26.052 -11.983   5.763  0.00  0.00    +0.210 HD
ENDBRANCH  10  11
ENDBRANCH   1  10
BRANCH   4  13
ATOM     13  C   LIG    1       25.530 -17.771   3.364  0.00  0.00    +0.352 C 
ATOM     14  O   LIG    1       25.260 -18.942   3.154  0.00  0.00    -0.244 OA
BRANCH  13  15
ATOM     15  O   LIG    1       26.792 -17.295   3.251  0.00  0.00    -0.476 OA
ATOM     16  H   LIG    1       27.495 -17.965   3.083  0.00  0.00    +0.295 HD
ENDBRANCH  13  15
ENDBRANCH   4  13
BRANCH   5  17
ATOM     17  S   LIG    1       22.236 -18.329   3.838  0.00  0.00    -0.126 S 
BRANCH  17  18
ATOM     18  C   LIG    1       22.603 -19.313   5.339  0.00  0.00    +0.093 C 
BRANCH  18  19
ATOM     19  C   LIG    1       22.505 -20.828   5.109  0.00  0.00    +0.113 C 
BRANCH  19  20
ATOM     20  N   LIG    1       23.733 -21.413   4.610  0.00  0.00    -0.335 N 
ATOM     21  H   LIG    1       23.838 -21.365   3.600  0.00  0.00    +0.147 HD
BRANCH  20  22
ATOM     22  C   LIG    1       24.886 -21.569   5.315  0.00  0.00    +0.171 C 
ATOM     23  N   LIG    1       25.956 -20.864   5.271  0.00  0.00    -0.293 NA
ATOM     24  H   LIG    1       25.873 -20.130   4.570  0.00  0.00    +0.188 HD
ENDBRANCH  20  22
ENDBRANCH  19  20
ENDBRANCH  18  19
ENDBRANCH  17  18
ENDBRANCH   5  17
TORSDOF 9
ENDMDL
MODEL 6
REMARK VINA RESULT:      -2.7      2.505      3.193
REMARK  Name = *****
REMARK                            x       y       z     vdW  Elec       q    Type
REMARK                         _______ _______ _______ _____ _____    ______ ____
ROOT
ATOM      1  C   LIG    1       22.725 -19.501   5.263  0.00  0.00    +0.125 C 
ATOM      2  C   LIG    1       22.402 -18.305   4.314  0.00  0.00    +0.101 C 
ATOM      3  N   LIG    1       23.800 -18.424   3.814  0.00  0.00    -0.260 N 
ATOM      4  C   LIG    1       24.379 -17.167   3.807  0.00  0.00    +0.131 C 
ATOM      5  C   LIG    1       23.558 -16.234   4.325  0.00  0.00    +0.016 C 
ATOM      6  C   LIG    1       22.266 -16.860   4.792  0.00  0.00    +0.068 C 
ATOM      7  C   LIG    1       24.162 -19.333   4.764  0.00  0.00    +0.228 C 
ATOM      8  O   LIG    1       25.276 -19.702   5.085  0.00  0.00    -0.275 OA
ENDROOT
BRANCH   1  10
ATOM      9  C   LIG    1       20.774 -20.602   4.110  0.00  0.00    +0.038 C 
ATOM     10  C   LIG    1       22.061 -20.816   4.893  0.00  0.00    +0.125 C 
BRANCH  10  11
ATOM     11  O   LIG    1       22.988 -21.572   4.116  0.00  0.00    -0.391 OA
ATOM     12  H   LIG    1       23.232 -21.051   3.329  0.00  0.00    +0.210 HD
ENDBRANCH  10  11
ENDBRANCH   1  10
BRANCH   4  13
ATOM     13  C   LIG    1       25.746 -16.995   3.233  0.00  0.00    +0.352 C 
ATOM     14  O   LIG    1       26.194 -15.919   2.873  0.00  0.00    -0.244 OA
BRANCH  13  15
ATOM     15  O   LIG    1       26.430 -18.150   3.062  0.00  0.00    -0.476 OA
ATOM     16  H   LIG    1       26.566 -18.697   3.870  0.00  0.00    +0.295 HD
ENDBRANCH  13  15
ENDBRANCH   4  13
BRANCH   5  17
ATOM     17  S   LIG    1       23.855 -14.558   4.603  0.00  0.00    -0.126 S 
BRANCH  17  18
ATOM     18  C   LIG    1       23.699 -13.887   2.906  0.00  0.00    +0.093 C 
BRANCH  18  19
ATOM     19  C   LIG    1       24.640 -12.704   2.634  0.00  0.00    +0.113 C 
BRANCH  19  20
ATOM     20  N   LIG    1       26.011 -13.104   2.392  0.00  0.00    -0.335 N 
ATOM     21  H   LIG    1       26.265 -13.150   1.409  0.00  0.00    +0.147 HD
BRANCH  20  22
ATOM     22  C   LIG    1       27.046 -12.967   3.263  0.00  0.00    +0.171 C 
ATOM     23  N   LIG    1       28.246 -13.409   3.163  0.00  0.00    -0.293 NA
ATOM     24  H   LIG    1       28.355 -13.955   2.310  0.00  0.00    +0.188 HD
ENDBRANCH  20  22
ENDBRANCH  19  20
ENDBRANCH  18  19
ENDBRANCH  17  18
ENDBRANCH   5  17
TORSDOF 9
ENDMDL
MODEL 7
REMARK VINA RESULT:      -2.6      2.869      6.434
REMARK  Name = *****
REMARK                            x       y       z     vdW  Elec       q    Type
REMARK                         _______ _______ _______ _____ _____    ______ ____
ROOT
ATOM      1  C   LIG    1       26.547 -15.330   3.730  0.00  0.00    +0.125 C 
ATOM      2  C   LIG    1       27.290 -16.655   3.371  0.00  0.00    +0.101 C 
ATOM      3  N   LIG    1       25.947 -17.251   3.124  0.00  0.00    -0.260 N 
ATOM      4  C   LIG    1       25.874 -18.468   3.779  0.00  0.00    +0.131 C 
ATOM      5  C   LIG    1       26.981 -18.714   4.505  0.00  0.00    +0.016 C 
ATOM      6  C   LIG    1       27.949 -17.561   4.410  0.00  0.00    +0.068 C 
ATOM      7  C   LIG    1       25.274 -16.172   3.617  0.00  0.00    +0.228 C 
ATOM      8  O   LIG    1       24.102 -16.080   3.931  0.00  0.00    -0.275 OA
ENDROOT
BRANCH   1  10
ATOM      9  C   LIG    1       25.442 -13.332   2.663  0.00  0.00    +0.038 C 
ATOM     10  C   LIG    1       26.678 -14.218   2.703  0.00  0.00    +0.125 C 
BRANCH  10  11
ATOM     11  O   LIG    1       27.827 -13.442   3.040  0.00  0.00    -0.391 OA
ATOM     12  H   LIG    1       27.865 -12.669   2.447  0.00  0.00    +0.210 HD
ENDBRANCH  10  11
ENDBRANCH   1  10
BRANCH   4  13
ATOM     13  C   LIG    1       24.668 -19.327   3.592  0.00  0.00    +0.352 C 
ATOM     14  O   LIG    1       24.703 -20.433   3.078  0.00  0.00    -0.244 OA
BRANCH  13  15
ATOM     15  O   LIG    1       23.504 -18.744   3.963  0.00  0.00    -0.476 OA
ATOM     16  H   LIG    1       23.232 -18.879   4.900  0.00  0.00    +0.295 HD
ENDBRANCH  13  15
ENDBRANCH   4  13
BRANCH   5  17
ATOM     17  S   LIG    1       27.323 -20.045   5.547  0.00  0.00    -0.126 S 
BRANCH  17  18
ATOM     18  C   LIG    1       25.770 -20.144   6.513  0.00  0.00    +0.093 C 
BRANCH  18  19
ATOM     19  C   LIG    1       25.165 -21.555   6.544  0.00  0.00    +0.113 C 
BRANCH  19  20
ATOM     20  N   LIG    1       23.764 -21.571   6.915  0.00  0.00    -0.335 N 
ATOM     21  H   LIG    1       23.597 -21.497   7.916  0.00  0.00    +0.147 HD
BRANCH  20  22
ATOM     22  C   LIG    1       22.724 -21.212   6.116  0.00  0.00    +0.171 C 
ATOM     23  N   LIG    1       22.475 -21.572   4.910  0.00  0.00    -0.293 NA
ATOM     24  H   LIG    1       23.214 -22.178   4.559  0.00  0.00    +0.188 HD
ENDBRANCH  20  22
ENDBRANCH  19  20
ENDBRANCH  18  19
ENDBRANCH  17  18
ENDBRANCH   5  17
TORSDOF 9
ENDMDL
MODEL 8
REMARK VINA RESULT:      -2.5      3.177      6.327
REMARK  Name = *****
REMARK                            x       y       z     vdW  Elec       q    Type
REMARK                         _______ _______ _______ _____ _____    ______ ____
ROOT
ATOM      1  C   LIG    1       25.593 -15.665   3.680  0.00  0.00    +0.125 C 
ATOM      2  C   LIG    1       25.704 -17.086   3.042  0.00  0.00    +0.101 C 
ATOM      3  N   LIG    1       24.256 -17.253   3.350  0.00  0.00    -0.260 N 
ATOM      4  C   LIG    1       24.071 -18.476   3.969  0.00  0.00    +0.131 C 
ATOM      5  C   LIG    1       25.239 -19.109   4.189  0.00  0.00    +0.016 C 
ATOM      6  C   LIG    1       26.400 -18.264   3.722  0.00  0.00    +0.068 C 
ATOM      7  C   LIG    1       24.182 -16.103   4.081  0.00  0.00    +0.228 C 
ATOM      8  O   LIG    1       23.306 -15.734   4.839  0.00  0.00    -0.275 OA
ENDROOT
BRANCH   1  10
ATOM      9  C   LIG    1       25.335 -13.179   3.360  0.00  0.00    +0.038 C 
ATOM     10  C   LIG    1       25.655 -14.510   2.695  0.00  0.00    +0.125 C 
BRANCH  10  11
ATOM     11  O   LIG    1       26.968 -14.476   2.139  0.00  0.00    -0.391 OA
ATOM     12  H   LIG    1       27.505 -13.841   2.646  0.00  0.00    +0.210 HD
ENDBRANCH  10  11
ENDBRANCH   1  10
BRANCH   4  13
ATOM     13  C   LIG    1       22.686 -18.939   4.275  0.00  0.00    +0.352 C 
ATOM     14  O   LIG    1       22.438 -19.973   4.873  0.00  0.00    -0.244 OA
BRANCH  13  15
ATOM     15  O   LIG    1       21.709 -18.158   3.758  0.00  0.00    -0.476 OA
ATOM     16  H   LIG    1       21.406 -17.411   4.324  0.00  0.00    +0.295 HD
ENDBRANCH  13  15
ENDBRANCH   4  13
BRANCH   5  17
ATOM     17  S   LIG    1       25.531 -20.605   4.995  0.00  0.00    -0.126 S 
BRANCH  17  18
ATOM     18  C   LIG    1       26.491 -20.040   6.449  0.00  0.00    +0.093 C 
BRANCH  18  19
ATOM     19  C   LIG    1       27.726 -20.908   6.734  0.00  0.00    +0.113 C 
BRANCH  19  20
ATOM     20  N   LIG    1       28.956 -20.342   6.217  0.00  0.00    -0.335 N 
ATOM     21  H   LIG    1       29.344 -20.845   5.422  0.00  0.00    +0.147 HD
BRANCH  20  22
ATOM     22  C   LIG    1       29.356 -19.049   6.349  0.00  0.00    +0.171 C 
ATOM     23  N   LIG    1       29.475 -18.148   5.445  0.00  0.00    -0.293 NA
ATOM     24  H   LIG    1       29.257 -18.531   4.527  0.00  0.00    +0.188 HD
ENDBRANCH  20  22
ENDBRANCH  19  20
ENDBRANCH  18  19
ENDBRANCH  17  18
ENDBRANCH   5  17
TORSDOF 9
ENDMDL
MODEL 9
REMARK VINA RESULT:      -1.9      2.905      6.420
REMARK  Name = *****
REMARK                            x       y       z     vdW  Elec       q    Type
REMARK                         _______ _______ _______ _____ _____    ______ ____
ROOT
ATOM      1  C   LIG    1       25.318 -13.946   4.060  0.00  0.00    +0.125 C 
ATOM      2  C   LIG    1       26.484 -14.705   3.354  0.00  0.00    +0.101 C 
ATOM      3  N   LIG    1       25.523 -15.822   3.135  0.00  0.00    -0.260 N 
ATOM      4  C   LIG    1       26.121 -17.007   3.525  0.00  0.00    +0.131 C 
ATOM      5  C   LIG    1       27.340 -16.801   4.059  0.00  0.00    +0.016 C 
ATOM      6  C   LIG    1       27.662 -15.327   4.102  0.00  0.00    +0.068 C 
ATOM      7  C   LIG    1       24.552 -15.263   3.913  0.00  0.00    +0.228 C 
ATOM      8  O   LIG    1       23.545 -15.774   4.365  0.00  0.00    -0.275 OA
ENDROOT
BRANCH   1  10
ATOM      9  C   LIG    1       25.626 -12.392   2.100  0.00  0.00    +0.038 C 
ATOM     10  C   LIG    1       24.745 -12.774   3.280  0.00  0.00    +0.125 C 
BRANCH  10  11
ATOM     11  O   LIG    1       23.446 -13.146   2.822  0.00  0.00    -0.391 OA
ATOM     12  H   LIG    1       23.016 -12.361   2.437  0.00  0.00    +0.210 HD
ENDBRANCH  10  11
ENDBRANCH   1  10
BRANCH   4  13
ATOM     13  C   LIG    1       25.407 -18.297   3.295  0.00  0.00    +0.352 C 
ATOM     14  O   LIG    1       24.558 -18.740   4.050  0.00  0.00    -0.244 OA
BRANCH  13  15
ATOM     15  O   LIG    1       25.838 -18.989   2.214  0.00  0.00    -0.476 OA
ATOM     16  H   LIG    1       25.253 -18.965   1.423  0.00  0.00    +0.295 HD
ENDBRANCH  13  15
ENDBRANCH   4  13
BRANCH   5  17
ATOM     17  S   LIG    1       28.429 -17.943   4.756  0.00  0.00    -0.126 S 
BRANCH  17  18
ATOM     18  C   LIG    1       27.310 -19.365   5.044  0.00  0.00    +0.093 C 
BRANCH  18  19
ATOM     19  C   LIG    1       27.685 -20.188   6.285  0.00  0.00    +0.113 C 
BRANCH  19  20
ATOM     20  N   LIG    1       26.816 -21.327   6.501  0.00  0.00    -0.335 N 
ATOM     21  H   LIG    1       27.308 -22.200   6.674  0.00  0.00    +0.147 HD
BRANCH  20  22
ATOM     22  C   LIG    1       25.531 -21.276   6.945  0.00  0.00    +0.171 C 
ATOM     23  N   LIG    1       24.471 -20.953   6.302  0.00  0.00    -0.293 NA
ATOM     24  H   LIG    1       24.701 -20.677   5.349  0.00  0.00    +0.188 HD
ENDBRANCH  20  22
ENDBRANCH  19  20
ENDBRANCH  18  19
ENDBRANCH  17  18
ENDBRANCH   5  17
TORSDOF 9
ENDMDL
