MODEL 1
REMARK VINA RESULT:      -2.8      0.000      0.000
REMARK  Name = *****
REMARK                            x       y       z     vdW  Elec       q    Type
REMARK                         _______ _______ _______ _____ _____    ______ ____
ROOT
ATOM      1  C   LIG    1       26.046 -13.820   3.203  0.00  0.00    +0.285 C 
ENDROOT
BRANCH   1   3
ATOM      2  O   LIG    1       28.867 -12.389   4.376  0.00  0.00    -0.255 OA
ATOM      3  P   LIG    1       27.576 -13.044   3.839  0.00  0.00    +0.373 P 
BRANCH   3   4
ATOM      4  O   LIG    1       26.969 -13.112   5.366  0.00  0.00    -0.322 OA
ATOM      5  H   LIG    1       27.121 -14.025   5.694  0.00  0.00    +0.220 HD
ENDBRANCH   3   4
BRANCH   3   6
ATOM      6  O   LIG    1       28.297 -14.533   3.897  0.00  0.00    -0.322 OA
ATOM      7  H   LIG    1       28.215 -14.848   4.825  0.00  0.00    +0.220 HD
ENDBRANCH   3   6
ENDBRANCH   1   3
BRANCH   1   8
ATOM      8  P   LIG    1       24.798 -12.527   2.807  0.00  0.00    +0.373 P 
ATOM      9  O   LIG    1       25.174 -11.456   1.851  0.00  0.00    -0.255 OA
BRANCH   8  10
ATOM     10  O   LIG    1       24.274 -11.940   4.218  0.00  0.00    -0.322 OA
ATOM     11  H   LIG    1       23.513 -12.409   4.591  0.00  0.00    +0.220 HD
ENDBRANCH   8  10
BRANCH   8  12
ATOM     12  O   LIG    1       23.475 -13.302   2.322  0.00  0.00    -0.322 OA
ATOM     13  H   LIG    1       23.121 -13.917   2.998  0.00  0.00    +0.220 HD
ENDBRANCH   8  12
ENDBRANCH   1   8
BRANCH   1  14
ATOM     14  O   LIG    1       26.335 -14.514   1.940  0.00  0.00    -0.366 OA
ATOM     15  H   LIG    1       26.564 -13.781   1.321  0.00  0.00    +0.212 HD
ENDBRANCH   1  14
BRANCH   1  16
ATOM     16  C   LIG    1       25.383 -14.871   4.104  0.00  0.00    +0.183 C 
BRANCH  16  17
ATOM     17  N   LIG    1       25.327 -16.238   3.633  0.00  0.00    -0.333 N 
ATOM     18  C   LIG    1       24.216 -17.036   3.675  0.00  0.00    +0.199 A 
ATOM     19  N   LIG    1       24.519 -18.299   3.466  0.00  0.00    -0.244 NA
ATOM     20  C   LIG    1       25.876 -18.321   3.288  0.00  0.00    +0.130 A 
ATOM     21  C   LIG    1       26.397 -17.049   3.359  0.00  0.00    +0.107 A 
ENDBRANCH  16  17
ENDBRANCH   1  16
TORSDOF 9
ENDMDL
MODEL 2
REMARK VINA RESULT:      -2.4      1.169      3.371
REMARK  Name = *****
REMARK                            x       y       z     vdW  Elec       q    Type
REMARK                         _______ _______ _______ _____ _____    ______ ____
ROOT
ATOM      1  C   LIG    1       25.571 -14.344   3.592  0.00  0.00    +0.285 C 
ENDROOT
BRANCH   1   3
ATOM      2  O   LIG    1       24.206 -11.692   2.015  0.00  0.00    -0.255 OA
ATOM      3  P   LIG    1       24.831 -12.905   2.737  0.00  0.00    +0.373 P 
BRANCH   3   4
ATOM      4  O   LIG    1       23.374 -13.669   2.726  0.00  0.00    -0.322 OA
ATOM      5  H   LIG    1       23.556 -14.630   2.638  0.00  0.00    +0.220 HD
ENDBRANCH   3   4
BRANCH   3   6
ATOM      6  O   LIG    1       24.602 -12.165   4.200  0.00  0.00    -0.322 OA
ATOM      7  H   LIG    1       24.953 -11.251   4.110  0.00  0.00    +0.220 HD
ENDBRANCH   3   6
ENDBRANCH   1   3
BRANCH   1   8
ATOM      8  P   LIG    1       27.207 -13.886   4.300  0.00  0.00    +0.373 P 
ATOM      9  O   LIG    1       27.241 -13.270   5.650  0.00  0.00    -0.255 OA
BRANCH   8  10
ATOM     10  O   LIG    1       27.957 -12.984   3.190  0.00  0.00    -0.322 OA
ATOM     11  H   LIG    1       27.906 -13.331   2.287  0.00  0.00    +0.220 HD
ENDBRANCH   8  10
BRANCH   8  12
ATOM     12  O   LIG    1       28.117 -15.210   4.241  0.00  0.00    -0.322 OA
ATOM     13  H   LIG    1       27.930 -15.837   4.971  0.00  0.00    +0.220 HD
ENDBRANCH   8  12
ENDBRANCH   1   8
BRANCH   1  14
ATOM     14  O   LIG    1       24.723 -14.728   4.730  0.00  0.00    -0.366 OA
ATOM     15  H   LIG    1       25.369 -15.052   5.400  0.00  0.00    +0.212 HD
ENDBRANCH   1  14
BRANCH   1  16
ATOM     16  C   LIG    1       25.746 -15.622   2.761  0.00  0.00    +0.183 C 
BRANCH  16  17
ATOM     17  N   LIG    1       25.338 -16.880   3.348  0.00  0.00    -0.333 N 
ATOM     18  C   LIG    1       26.109 -18.010   3.393  0.00  0.00    +0.199 A 
ATOM     19  N   LIG    1       25.396 -19.070   3.705  0.00  0.00    -0.244 NA
ATOM     20  C   LIG    1       24.115 -18.613   3.861  0.00  0.00    +0.130 A 
ATOM     21  C   LIG    1       24.060 -17.251   3.673  0.00  0.00    +0.107 A 
ENDBRANCH  16  17
ENDBRANCH   1  16
TORSDOF 9
ENDMDL
MODEL 3
REMARK VINA RESULT:      -2.1      1.495      2.076
REMARK  Name = *****
REMARK                            x       y       z     vdW  Elec       q    Type
REMARK                         _______ _______ _______ _____ _____    ______ ____
ROOT
ATOM      1  C   LIG    1       26.173 -13.528   3.420  0.00  0.00    +0.285 C 
ENDROOT
BRANCH   1   3
ATOM      2  O   LIG    1       27.198 -13.694   6.630  0.00  0.00    -0.255 OA
ATOM      3  P   LIG    1       26.729 -13.618   5.161  0.00  0.00    +0.373 P 
BRANCH   3   4
ATOM      4  O   LIG    1       28.055 -12.723   4.778  0.00  0.00    -0.322 OA
ATOM      5  H   LIG    1       27.830 -12.209   3.972  0.00  0.00    +0.220 HD
ENDBRANCH   3   4
BRANCH   3   6
ATOM      6  O   LIG    1       25.771 -12.317   5.525  0.00  0.00    -0.322 OA
ATOM      7  H   LIG    1       25.506 -12.419   6.467  0.00  0.00    +0.220 HD
ENDBRANCH   3   6
ENDBRANCH   1   3
BRANCH   1   8
ATOM      8  P   LIG    1       24.396 -13.059   3.346  0.00  0.00    +0.373 P 
ATOM      9  O   LIG    1       24.016 -11.678   3.740  0.00  0.00    -0.255 OA
BRANCH   8  10
ATOM     10  O   LIG    1       23.584 -14.183   4.175  0.00  0.00    -0.322 OA
ATOM     11  H   LIG    1       22.663 -14.301   3.898  0.00  0.00    +0.220 HD
ENDBRANCH   8  10
BRANCH   8  12
ATOM     12  O   LIG    1       23.895 -13.398   1.857  0.00  0.00    -0.322 OA
ATOM     13  H   LIG    1       22.994 -13.782   1.833  0.00  0.00    +0.220 HD
ENDBRANCH   8  12
ENDBRANCH   1   8
BRANCH   1  14
ATOM     14  O   LIG    1       26.910 -12.462   2.724  0.00  0.00    -0.366 OA
ATOM     15  H   LIG    1       26.701 -12.620   1.774  0.00  0.00    +0.212 HD
ENDBRANCH   1  14
BRANCH   1  16
ATOM     16  C   LIG    1       26.375 -14.789   2.568  0.00  0.00    +0.183 C 
BRANCH  16  17
ATOM     17  N   LIG    1       26.353 -16.074   3.234  0.00  0.00    -0.333 N 
ATOM     18  C   LIG    1       27.443 -16.687   3.788  0.00  0.00    +0.199 A 
ATOM     19  N   LIG    1       27.202 -17.954   4.052  0.00  0.00    -0.244 NA
ATOM     20  C   LIG    1       25.912 -18.170   3.649  0.00  0.00    +0.130 A 
ATOM     21  C   LIG    1       25.354 -17.009   3.163  0.00  0.00    +0.107 A 
ENDBRANCH  16  17
ENDBRANCH   1  16
TORSDOF 9
ENDMDL
MODEL 4
REMARK VINA RESULT:      -1.6      5.392      6.575
REMARK  Name = *****
REMARK                            x       y       z     vdW  Elec       q    Type
REMARK                         _______ _______ _______ _____ _____    ______ ____
ROOT
ATOM      1  C   LIG    1       25.664 -20.203   5.417  0.00  0.00    +0.285 C 
ENDROOT
BRANCH   1   3
ATOM      2  O   LIG    1       28.672 -19.891   6.912  0.00  0.00    -0.255 OA
ATOM      3  P   LIG    1       27.295 -20.034   6.228  0.00  0.00    +0.373 P 
BRANCH   3   4
ATOM      4  O   LIG    1       27.165 -21.572   6.797  0.00  0.00    -0.322 OA
ATOM      5  H   LIG    1       26.865 -22.130   6.047  0.00  0.00    +0.220 HD
ENDBRANCH   3   4
BRANCH   3   6
ATOM      6  O   LIG    1       28.034 -20.461   4.809  0.00  0.00    -0.322 OA
ATOM      7  H   LIG    1       28.499 -21.310   4.980  0.00  0.00    +0.220 HD
ENDBRANCH   3   6
ENDBRANCH   1   3
BRANCH   1   8
ATOM      8  P   LIG    1       25.562 -19.085   3.959  0.00  0.00    +0.373 P 
ATOM      9  O   LIG    1       24.371 -18.208   3.828  0.00  0.00    -0.255 OA
BRANCH   8  10
ATOM     10  O   LIG    1       25.800 -20.003   2.652  0.00  0.00    -0.322 OA
ATOM     11  H   LIG    1       25.835 -19.514   1.817  0.00  0.00    +0.220 HD
ENDBRANCH   8  10
BRANCH   8  12
ATOM     12  O   LIG    1       26.921 -18.227   3.945  0.00  0.00    -0.322 OA
ATOM     13  H   LIG    1       27.074 -17.737   4.780  0.00  0.00    +0.220 HD
ENDBRANCH   8  12
ENDBRANCH   1   8
BRANCH   1  14
ATOM     14  O   LIG    1       25.512 -21.571   4.898  0.00  0.00    -0.366 OA
ATOM     15  H   LIG    1       24.621 -21.842   5.219  0.00  0.00    +0.212 HD
ENDBRANCH   1  14
BRANCH   1  16
ATOM     16  C   LIG    1       24.430 -19.961   6.298  0.00  0.00    +0.183 C 
BRANCH  16  17
ATOM     17  N   LIG    1       23.128 -20.287   5.756  0.00  0.00    -0.333 N 
ATOM     18  C   LIG    1       22.644 -21.556   5.593  0.00  0.00    +0.199 A 
ATOM     19  N   LIG    1       21.582 -21.572   4.816  0.00  0.00    -0.244 NA
ATOM     20  C   LIG    1       21.375 -20.267   4.458  0.00  0.00    +0.130 A 
ATOM     21  C   LIG    1       22.306 -19.446   5.053  0.00  0.00    +0.107 A 
ENDBRANCH  16  17
ENDBRANCH   1  16
TORSDOF 9
ENDMDL
MODEL 5
REMARK VINA RESULT:      -1.5      6.164      7.418
REMARK  Name = *****
REMARK                            x       y       z     vdW  Elec       q    Type
REMARK                         _______ _______ _______ _____ _____    ______ ____
ROOT
ATOM      1  C   LIG    1       24.415 -20.361   5.201  0.00  0.00    +0.285 C 
ENDROOT
BRANCH   1   3
ATOM      2  O   LIG    1       21.276 -21.539   4.826  0.00  0.00    -0.255 OA
ATOM      3  P   LIG    1       22.713 -21.000   4.997  0.00  0.00    +0.373 P 
BRANCH   3   4
ATOM      4  O   LIG    1       22.732 -21.531   6.554  0.00  0.00    -0.322 OA
ATOM      5  H   LIG    1       23.157 -20.827   7.091  0.00  0.00    +0.220 HD
ENDBRANCH   3   4
BRANCH   3   6
ATOM      6  O   LIG    1       22.116 -19.498   5.358  0.00  0.00    -0.322 OA
ATOM      7  H   LIG    1       22.400 -18.901   4.630  0.00  0.00    +0.220 HD
ENDBRANCH   3   6
ENDBRANCH   1   3
BRANCH   1   8
ATOM      8  P   LIG    1       24.937 -19.455   3.686  0.00  0.00    +0.373 P 
ATOM      9  O   LIG    1       25.814 -18.268   3.844  0.00  0.00    -0.255 OA
BRANCH   8  10
ATOM     10  O   LIG    1       23.590 -19.123   2.858  0.00  0.00    -0.322 OA
ATOM     11  H   LIG    1       23.079 -19.901   2.591  0.00  0.00    +0.220 HD
ENDBRANCH   8  10
BRANCH   8  12
ATOM     12  O   LIG    1       25.601 -20.544   2.708  0.00  0.00    -0.322 OA
ATOM     13  H   LIG    1       25.308 -21.460   2.898  0.00  0.00    +0.220 HD
ENDBRANCH   8  12
ENDBRANCH   1   8
BRANCH   1  14
ATOM     14  O   LIG    1       24.445 -19.382   6.297  0.00  0.00    -0.366 OA
ATOM     15  H   LIG    1       25.397 -19.346   6.549  0.00  0.00    +0.212 HD
ENDBRANCH   1  14
BRANCH   1  16
ATOM     16  C   LIG    1       25.500 -21.392   5.544  0.00  0.00    +0.183 C 
BRANCH  16  17
ATOM     17  N   LIG    1       26.734 -20.916   6.131  0.00  0.00    -0.333 N 
ATOM     18  C   LIG    1       27.490 -19.889   5.638  0.00  0.00    +0.199 A 
ATOM     19  N   LIG    1       28.688 -19.866   6.181  0.00  0.00    -0.244 NA
ATOM     20  C   LIG    1       28.711 -20.920   7.053  0.00  0.00    +0.130 A 
ATOM     21  C   LIG    1       27.498 -21.571   7.061  0.00  0.00    +0.107 A 
ENDBRANCH  16  17
ENDBRANCH   1  16
TORSDOF 9
ENDMDL
MODEL 6
REMARK VINA RESULT:      -1.5      1.589      3.525
REMARK  Name = *****
REMARK                            x       y       z     vdW  Elec       q    Type
REMARK                         _______ _______ _______ _____ _____    ______ ____
ROOT
ATOM      1  C   LIG    1       25.563 -14.236   3.777  0.00  0.00    +0.285 C 
ENDROOT
BRANCH   1   3
ATOM      2  O   LIG    1       23.817 -12.023   1.923  0.00  0.00    -0.255 OA
ATOM      3  P   LIG    1       24.616 -13.036   2.772  0.00  0.00    +0.373 P 
BRANCH   3   4
ATOM      4  O   LIG    1       24.205 -12.222   4.141  0.00  0.00    -0.322 OA
ATOM      5  H   LIG    1       25.040 -11.891   4.538  0.00  0.00    +0.220 HD
ENDBRANCH   3   4
BRANCH   3   6
ATOM      6  O   LIG    1       26.007 -12.180   2.499  0.00  0.00    -0.322 OA
ATOM      7  H   LIG    1       26.000 -11.426   3.130  0.00  0.00    +0.220 HD
ENDBRANCH   3   6
ENDBRANCH   1   3
BRANCH   1   8
ATOM      8  P   LIG    1       27.366 -14.038   3.467  0.00  0.00    +0.373 P 
ATOM      9  O   LIG    1       28.046 -12.839   4.016  0.00  0.00    -0.255 OA
BRANCH   8  10
ATOM     10  O   LIG    1       27.583 -14.196   1.874  0.00  0.00    -0.322 OA
ATOM     11  H   LIG    1       27.906 -13.398   1.430  0.00  0.00    +0.220 HD
ENDBRANCH   8  10
BRANCH   8  12
ATOM     12  O   LIG    1       28.069 -15.391   3.977  0.00  0.00    -0.322 OA
ATOM     13  H   LIG    1       29.046 -15.360   3.921  0.00  0.00    +0.220 HD
ENDBRANCH   8  12
ENDBRANCH   1   8
BRANCH   1  14
ATOM     14  O   LIG    1       25.357 -13.951   5.205  0.00  0.00    -0.366 OA
ATOM     15  H   LIG    1       26.273 -13.834   5.551  0.00  0.00    +0.212 HD
ENDBRANCH   1  14
BRANCH   1  16
ATOM     16  C   LIG    1       25.203 -15.717   3.599  0.00  0.00    +0.183 C 
BRANCH  16  17
ATOM     17  N   LIG    1       23.875 -16.148   3.981  0.00  0.00    -0.333 N 
ATOM     18  C   LIG    1       22.983 -15.396   4.696  0.00  0.00    +0.199 A 
ATOM     19  N   LIG    1       21.991 -16.128   5.154  0.00  0.00    -0.244 NA
ATOM     20  C   LIG    1       22.251 -17.401   4.725  0.00  0.00    +0.130 A 
ATOM     21  C   LIG    1       23.401 -17.434   3.970  0.00  0.00    +0.107 A 
ENDBRANCH  16  17
ENDBRANCH   1  16
TORSDOF 9
ENDMDL
MODEL 7
REMARK VINA RESULT:      -1.0      4.881      6.383
REMARK  Name = *****
REMARK                            x       y       z     vdW  Elec       q    Type
REMARK                         _______ _______ _______ _____ _____    ______ ____
ROOT
ATOM      1  C   LIG    1       24.679 -19.207   3.775  0.00  0.00    +0.285 C 
ENDROOT
BRANCH   1   3
ATOM      2  O   LIG    1       21.975 -17.573   4.960  0.00  0.00    -0.255 OA
ATOM      3  P   LIG    1       23.212 -18.321   4.418  0.00  0.00    +0.373 P 
BRANCH   3   4
ATOM      4  O   LIG    1       22.415 -18.634   3.013  0.00  0.00    -0.322 OA
ATOM      5  H   LIG    1       22.213 -19.595   3.007  0.00  0.00    +0.220 HD
ENDBRANCH   3   4
BRANCH   3   6
ATOM      6  O   LIG    1       22.722 -19.706   5.181  0.00  0.00    -0.322 OA
ATOM      7  H   LIG    1       21.824 -19.525   5.538  0.00  0.00    +0.220 HD
ENDBRANCH   3   6
ENDBRANCH   1   3
BRANCH   1   8
ATOM      8  P   LIG    1       25.588 -20.013   5.156  0.00  0.00    +0.373 P 
ATOM      9  O   LIG    1       25.075 -19.828   6.537  0.00  0.00    -0.255 OA
BRANCH   8  10
ATOM     10  O   LIG    1       27.137 -19.578   5.009  0.00  0.00    -0.322 OA
ATOM     11  H   LIG    1       27.771 -20.299   5.137  0.00  0.00    +0.220 HD
ENDBRANCH   8  10
BRANCH   8  12
ATOM     12  O   LIG    1       25.701 -21.572   4.781  0.00  0.00    -0.322 OA
ATOM     13  H   LIG    1       24.872 -21.938   4.410  0.00  0.00    +0.220 HD
ENDBRANCH   8  12
ENDBRANCH   1   8
BRANCH   1  14
ATOM     14  O   LIG    1       24.245 -20.289   2.880  0.00  0.00    -0.366 OA
ATOM     15  H   LIG    1       24.970 -20.343   2.214  0.00  0.00    +0.212 HD
ENDBRANCH   1  14
BRANCH   1  16
ATOM     16  C   LIG    1       25.680 -18.377   2.958  0.00  0.00    +0.183 C 
BRANCH  16  17
ATOM     17  N   LIG    1       25.985 -17.036   3.410  0.00  0.00    -0.333 N 
ATOM     18  C   LIG    1       25.132 -15.969   3.329  0.00  0.00    +0.199 A 
ATOM     19  N   LIG    1       25.761 -14.831   3.530  0.00  0.00    -0.244 NA
ATOM     20  C   LIG    1       27.069 -15.172   3.742  0.00  0.00    +0.130 A 
ATOM     21  C   LIG    1       27.228 -16.539   3.701  0.00  0.00    +0.107 A 
ENDBRANCH  16  17
ENDBRANCH   1  16
TORSDOF 9
ENDMDL
MODEL 8
REMARK VINA RESULT:      -0.9      0.876      1.630
REMARK  Name = *****
REMARK                            x       y       z     vdW  Elec       q    Type
REMARK                         _______ _______ _______ _____ _____    ______ ____
ROOT
ATOM      1  C   LIG    1       25.663 -14.117   3.361  0.00  0.00    +0.285 C 
ENDROOT
BRANCH   1   3
ATOM      2  O   LIG    1       28.205 -12.811   5.154  0.00  0.00    -0.255 OA
ATOM      3  P   LIG    1       27.042 -13.409   4.333  0.00  0.00    +0.373 P 
BRANCH   3   4
ATOM      4  O   LIG    1       27.765 -14.886   4.372  0.00  0.00    -0.322 OA
ATOM      5  H   LIG    1       28.367 -14.930   3.598  0.00  0.00    +0.220 HD
ENDBRANCH   3   4
BRANCH   3   6
ATOM      6  O   LIG    1       27.770 -12.922   2.928  0.00  0.00    -0.322 OA
ATOM      7  H   LIG    1       27.066 -12.897   2.242  0.00  0.00    +0.220 HD
ENDBRANCH   3   6
ENDBRANCH   1   3
BRANCH   1   8
ATOM      8  P   LIG    1       24.589 -12.771   2.712  0.00  0.00    +0.373 P 
ATOM      9  O   LIG    1       23.467 -13.139   1.812  0.00  0.00    -0.255 OA
BRANCH   8  10
ATOM     10  O   LIG    1       25.571 -11.669   2.057  0.00  0.00    -0.322 OA
ATOM     11  H   LIG    1       26.458 -11.638   2.445  0.00  0.00    +0.220 HD
ENDBRANCH   8  10
BRANCH   8  12
ATOM     12  O   LIG    1       24.064 -11.948   3.990  0.00  0.00    -0.322 OA
ATOM     13  H   LIG    1       24.667 -12.011   4.760  0.00  0.00    +0.220 HD
ENDBRANCH   8  12
ENDBRANCH   1   8
BRANCH   1  14
ATOM     14  O   LIG    1       26.200 -14.818   2.186  0.00  0.00    -0.366 OA
ATOM     15  H   LIG    1       25.710 -14.414   1.432  0.00  0.00    +0.212 HD
ENDBRANCH   1  14
BRANCH   1  16
ATOM     16  C   LIG    1       24.772 -15.141   4.077  0.00  0.00    +0.183 C 
BRANCH  16  17
ATOM     17  N   LIG    1       25.021 -16.547   3.840  0.00  0.00    -0.333 N 
ATOM     18  C   LIG    1       26.149 -17.055   3.257  0.00  0.00    +0.199 A 
ATOM     19  N   LIG    1       25.985 -18.309   2.896  0.00  0.00    -0.244 NA
ATOM     20  C   LIG    1       24.702 -18.624   3.252  0.00  0.00    +0.130 A 
ATOM     21  C   LIG    1       24.092 -17.554   3.867  0.00  0.00    +0.107 A 
ENDBRANCH  16  17
ENDBRANCH   1  16
TORSDOF 9
ENDMDL
MODEL 9
REMARK VINA RESULT:      -0.6      2.902      4.383
REMARK  Name = *****
REMARK                            x       y       z     vdW  Elec       q    Type
REMARK                         _______ _______ _______ _____ _____    ______ ____
ROOT
ATOM      1  C   LIG    1       25.112 -13.629   4.216  0.00  0.00    +0.285 C 
ENDROOT
BRANCH   1   3
ATOM      2  O   LIG    1       22.512 -15.677   4.874  0.00  0.00    -0.255 OA
ATOM      3  P   LIG    1       23.702 -14.740   4.573  0.00  0.00    +0.373 P 
BRANCH   3   4
ATOM      4  O   LIG    1       22.883 -14.100   3.298  0.00  0.00    -0.322 OA
ATOM      5  H   LIG    1       23.487 -13.460   2.862  0.00  0.00    +0.220 HD
ENDBRANCH   3   4
BRANCH   3   6
ATOM      6  O   LIG    1       24.435 -15.938   3.695  0.00  0.00    -0.322 OA
ATOM      7  H   LIG    1       25.369 -15.660   3.568  0.00  0.00    +0.220 HD
ENDBRANCH   3   6
ENDBRANCH   1   3
BRANCH   1   8
ATOM      8  P   LIG    1       24.693 -12.502   2.824  0.00  0.00    +0.373 P 
ATOM      9  O   LIG    1       25.805 -11.830   2.105  0.00  0.00    -0.255 OA
BRANCH   8  10
ATOM     10  O   LIG    1       23.599 -11.455   3.387  0.00  0.00    -0.322 OA
ATOM     11  H   LIG    1       23.747 -10.536   3.121  0.00  0.00    +0.220 HD
ENDBRANCH   8  10
BRANCH   8  12
ATOM     12  O   LIG    1       23.772 -13.346   1.813  0.00  0.00    -0.322 OA
ATOM     13  H   LIG    1       23.762 -14.305   2.013  0.00  0.00    +0.220 HD
ENDBRANCH   8  12
ENDBRANCH   1   8
BRANCH   1  14
ATOM     14  O   LIG    1       25.366 -12.769   5.381  0.00  0.00    -0.366 OA
ATOM     15  H   LIG    1       25.953 -13.319   5.951  0.00  0.00    +0.212 HD
ENDBRANCH   1  14
BRANCH   1  16
ATOM     16  C   LIG    1       26.455 -14.303   3.904  0.00  0.00    +0.183 C 
BRANCH  16  17
ATOM     17  N   LIG    1       27.670 -13.584   4.220  0.00  0.00    -0.333 N 
ATOM     18  C   LIG    1       27.904 -12.918   5.392  0.00  0.00    +0.199 A 
ATOM     19  N   LIG    1       28.942 -12.117   5.295  0.00  0.00    -0.244 NA
ATOM     20  C   LIG    1       29.394 -12.263   4.011  0.00  0.00    +0.130 A 
ATOM     21  C   LIG    1       28.638 -13.191   3.333  0.00  0.00    +0.107 A 
ENDBRANCH  16  17
ENDBRANCH   1  16
TORSDOF 9
ENDMDL
