MODEL 1
REMARK VINA RESULT:      -7.8      0.000      0.000
REMARK  Name = *****
REMARK                            x       y       z     vdW  Elec       q    Type
REMARK                         _______ _______ _______ _____ _____    ______ ____
ROOT
ATOM      1  C   LIG    1       23.064 -18.961   3.581  0.00  0.00    +0.105 C 
ATOM      2  N   LIG    1       23.341 -20.286   4.122  0.00  0.00    -0.301 NA
ATOM      3  C   LIG    1       24.758 -20.723   4.026  0.00  0.00    +0.069 C 
ATOM      4  C   LIG    1       25.075 -21.943   4.945  0.00  0.00    +0.043 C 
ATOM      5  C   LIG    1       24.843 -21.407   6.387  0.00  0.00    +0.048 C 
ATOM      6  C   LIG    1       24.894 -22.430   7.528  0.00  0.00    +0.217 C 
ATOM      7  O   LIG    1       26.290 -22.577   7.960  0.00  0.00    -0.481 OA
ATOM      8  C   LIG    1       26.919 -21.452   7.472  0.00  0.00    +0.166 A 
ATOM      9  C   LIG    1       28.260 -21.178   7.586  0.00  0.00    +0.159 A 
ATOM     10  C   LIG    1       28.829 -20.203   6.763  0.00  0.00    +0.049 A 
ATOM     11  C   LIG    1       28.053 -19.556   5.762  0.00  0.00    +0.008 A 
ATOM     12  C   LIG    1       26.708 -19.874   5.632  0.00  0.00    -0.038 A 
ATOM     13  C   LIG    1       24.209 -23.754   7.115  0.00  0.00    +0.178 C 
ATOM     14  C   LIG    1       24.481 -24.221   5.714  0.00  0.00    +0.004 C 
ATOM     15  C   LIG    1       26.153 -20.732   6.582  0.00  0.00    +0.012 A 
ATOM     16  C   LIG    1       23.698 -20.392   6.567  0.00  0.00    +0.031 C 
ATOM     17  C   LIG    1       24.718 -23.376   4.697  0.00  0.00    -0.023 C 
ATOM     18  C   LIG    1       25.895 -19.620   4.345  0.00  0.00    +0.055 C 
ATOM     19  C   LIG    1       22.709 -20.479   5.426  0.00  0.00    +0.085 C 
ENDROOT
BRANCH   9  20
ATOM     20  O   LIG    1       29.059 -21.902   8.419  0.00  0.00    -0.503 OA
ATOM     21  H   LIG    1       29.413 -21.263   9.066  0.00  0.00    +0.292 HD
ENDBRANCH   9  20
BRANCH  13  22
ATOM     22  O   LIG    1       22.783 -23.585   7.173  0.00  0.00    -0.384 OA
ATOM     23  H   LIG    1       22.508 -23.011   6.436  0.00  0.00    +0.210 HD
ENDBRANCH  13  22
TORSDOF 2
ENDMDL
MODEL 2
REMARK VINA RESULT:      -6.2      1.742      4.171
REMARK  Name = *****
REMARK                            x       y       z     vdW  Elec       q    Type
REMARK                         _______ _______ _______ _____ _____    ______ ____
ROOT
ATOM      1  C   LIG    1       22.165 -19.669   4.857  0.00  0.00    +0.105 C 
ATOM      2  N   LIG    1       23.290 -19.845   5.767  0.00  0.00    -0.301 NA
ATOM      3  C   LIG    1       23.165 -20.983   6.714  0.00  0.00    +0.069 C 
ATOM      4  C   LIG    1       24.523 -21.364   7.379  0.00  0.00    +0.043 C 
ATOM      5  C   LIG    1       25.414 -21.832   6.193  0.00  0.00    +0.048 C 
ATOM      6  C   LIG    1       26.892 -22.104   6.496  0.00  0.00    +0.217 C 
ATOM      7  O   LIG    1       27.027 -23.492   6.959  0.00  0.00    -0.481 OA
ATOM      8  C   LIG    1       25.866 -24.106   6.538  0.00  0.00    +0.166 A 
ATOM      9  C   LIG    1       25.520 -25.410   6.793  0.00  0.00    +0.159 A 
ATOM     10  C   LIG    1       24.192 -25.808   6.623  0.00  0.00    +0.049 A 
ATOM     11  C   LIG    1       23.190 -24.861   6.270  0.00  0.00    +0.008 A 
ATOM     12  C   LIG    1       23.550 -23.537   6.057  0.00  0.00    -0.038 A 
ATOM     13  C   LIG    1       27.461 -21.046   7.471  0.00  0.00    +0.178 C 
ATOM     14  C   LIG    1       26.555 -20.644   8.599  0.00  0.00    +0.004 C 
ATOM     15  C   LIG    1       24.910 -23.227   6.079  0.00  0.00    +0.012 A 
ATOM     16  C   LIG    1       25.220 -21.094   4.855  0.00  0.00    +0.031 C 
ATOM     17  C   LIG    1       25.216 -20.641   8.493  0.00  0.00    -0.023 C 
ATOM     18  C   LIG    1       22.552 -22.362   6.135  0.00  0.00    +0.055 C 
ATOM     19  C   LIG    1       24.570 -19.745   5.067  0.00  0.00    +0.085 C 
ENDROOT
BRANCH   9  20
ATOM     20  O   LIG    1       26.426 -26.295   7.293  0.00  0.00    -0.503 OA
ATOM     21  H   LIG    1       26.062 -26.591   8.147  0.00  0.00    +0.292 HD
ENDBRANCH   9  20
BRANCH  13  22
ATOM     22  O   LIG    1       27.710 -19.828   6.751  0.00  0.00    -0.384 OA
ATOM     23  H   LIG    1       28.661 -19.777   6.546  0.00  0.00    +0.210 HD
ENDBRANCH  13  22
TORSDOF 2
ENDMDL
MODEL 3
REMARK VINA RESULT:      -6.0      7.395     10.048
REMARK  Name = *****
REMARK                            x       y       z     vdW  Elec       q    Type
REMARK                         _______ _______ _______ _____ _____    ______ ____
ROOT
ATOM      1  C   LIG    1       28.257 -29.511  11.545  0.00  0.00    +0.105 C 
ATOM      2  N   LIG    1       26.913 -30.022  11.304  0.00  0.00    -0.301 NA
ATOM      3  C   LIG    1       25.976 -29.058  10.669  0.00  0.00    +0.069 C 
ATOM      4  C   LIG    1       24.707 -29.750  10.085  0.00  0.00    +0.043 C 
ATOM      5  C   LIG    1       25.256 -30.681   8.966  0.00  0.00    +0.048 C 
ATOM      6  C   LIG    1       24.264 -31.649   8.314  0.00  0.00    +0.217 C 
ATOM      7  O   LIG    1       23.591 -30.954   7.208  0.00  0.00    -0.481 OA
ATOM      8  C   LIG    1       24.408 -29.878   6.935  0.00  0.00    +0.166 A 
ATOM      9  C   LIG    1       24.153 -28.904   6.000  0.00  0.00    +0.159 A 
ATOM     10  C   LIG    1       24.861 -27.701   6.059  0.00  0.00    +0.049 A 
ATOM     11  C   LIG    1       25.775 -27.449   7.118  0.00  0.00    +0.008 A 
ATOM     12  C   LIG    1       25.991 -28.428   8.080  0.00  0.00    -0.038 A 
ATOM     13  C   LIG    1       23.305 -32.252   9.368  0.00  0.00    +0.178 C 
ATOM     14  C   LIG    1       22.803 -31.300  10.414  0.00  0.00    +0.004 C 
ATOM     15  C   LIG    1       25.383 -29.669   7.884  0.00  0.00    +0.012 A 
ATOM     16  C   LIG    1       26.624 -31.339   9.231  0.00  0.00    +0.031 C 
ATOM     17  C   LIG    1       23.520 -30.250  10.849  0.00  0.00    -0.023 C 
ATOM     18  C   LIG    1       26.562 -28.131   9.483  0.00  0.00    +0.055 C 
ATOM     19  C   LIG    1       26.942 -31.357  10.710  0.00  0.00    +0.085 C 
ENDROOT
BRANCH   9  20
ATOM     20  O   LIG    1       23.163 -29.056   5.077  0.00  0.00    -0.503 OA
ATOM     21  H   LIG    1       23.568 -28.838   4.217  0.00  0.00    +0.292 HD
ENDBRANCH   9  20
BRANCH  13  22
ATOM     22  O   LIG    1       23.998 -33.272  10.105  0.00  0.00    -0.384 OA
ATOM     23  H   LIG    1       23.434 -33.557  10.847  0.00  0.00    +0.210 HD
ENDBRANCH  13  22
TORSDOF 2
ENDMDL
MODEL 4
REMARK VINA RESULT:      -5.9      2.346      3.942
REMARK  Name = *****
REMARK                            x       y       z     vdW  Elec       q    Type
REMARK                         _______ _______ _______ _____ _____    ______ ____
ROOT
ATOM      1  C   LIG    1       25.545 -24.733   7.599  0.00  0.00    +0.105 C 
ATOM      2  N   LIG    1       24.793 -23.548   7.204  0.00  0.00    -0.301 NA
ATOM      3  C   LIG    1       25.397 -22.252   7.608  0.00  0.00    +0.069 C 
ATOM      4  C   LIG    1       24.783 -21.039   6.845  0.00  0.00    +0.043 C 
ATOM      5  C   LIG    1       25.160 -21.291   5.356  0.00  0.00    +0.048 C 
ATOM      6  C   LIG    1       24.538 -20.358   4.311  0.00  0.00    +0.217 C 
ATOM      7  O   LIG    1       25.392 -19.170   4.178  0.00  0.00    -0.481 OA
ATOM      8  C   LIG    1       26.601 -19.558   4.715  0.00  0.00    +0.166 A 
ATOM      9  C   LIG    1       27.703 -18.750   4.858  0.00  0.00    +0.159 A 
ATOM     10  C   LIG    1       28.729 -19.144   5.719  0.00  0.00    +0.049 A 
ATOM     11  C   LIG    1       28.606 -20.323   6.504  0.00  0.00    +0.008 A 
ATOM     12  C   LIG    1       27.466 -21.107   6.380  0.00  0.00    -0.038 A 
ATOM     13  C   LIG    1       23.061 -20.049   4.655  0.00  0.00    +0.178 C 
ATOM     14  C   LIG    1       22.766 -19.805   6.107  0.00  0.00    +0.004 C 
ATOM     15  C   LIG    1       26.547 -20.758   5.389  0.00  0.00    +0.012 A 
ATOM     16  C   LIG    1       25.174 -22.760   4.891  0.00  0.00    +0.031 C 
ATOM     17  C   LIG    1       23.459 -20.389   7.099  0.00  0.00    -0.023 C 
ATOM     18  C   LIG    1       26.999 -22.106   7.460  0.00  0.00    +0.055 C 
ATOM     19  C   LIG    1       24.350 -23.631   5.813  0.00  0.00    +0.085 C 
ENDROOT
BRANCH   9  20
ATOM     20  O   LIG    1       27.769 -17.535   4.246  0.00  0.00    -0.503 OA
ATOM     21  H   LIG    1       26.925 -17.092   4.446  0.00  0.00    +0.292 HD
ENDBRANCH   9  20
BRANCH  13  22
ATOM     22  O   LIG    1       22.249 -21.180   4.302  0.00  0.00    -0.384 OA
ATOM     23  H   LIG    1       22.822 -21.868   3.919  0.00  0.00    +0.210 HD
ENDBRANCH  13  22
TORSDOF 2
ENDMDL
MODEL 5
REMARK VINA RESULT:      -5.7      8.868     10.698
REMARK  Name = *****
REMARK                            x       y       z     vdW  Elec       q    Type
REMARK                         _______ _______ _______ _____ _____    ______ ____
ROOT
ATOM      1  C   LIG    1       23.160 -33.303  10.085  0.00  0.00    +0.105 C 
ATOM      2  N   LIG    1       24.110 -32.209   9.928  0.00  0.00    -0.301 NA
ATOM      3  C   LIG    1       23.506 -30.852   9.867  0.00  0.00    +0.069 C 
ATOM      4  C   LIG    1       24.552 -29.718  10.090  0.00  0.00    +0.043 C 
ATOM      5  C   LIG    1       25.059 -29.943  11.544  0.00  0.00    +0.048 C 
ATOM      6  C   LIG    1       26.245 -29.092  12.010  0.00  0.00    +0.217 C 
ATOM      7  O   LIG    1       25.729 -27.822  12.539  0.00  0.00    -0.481 OA
ATOM      8  C   LIG    1       24.398 -28.075  12.793  0.00  0.00    +0.166 A 
ATOM      9  C   LIG    1       23.489 -27.154  13.253  0.00  0.00    +0.159 A 
ATOM     10  C   LIG    1       22.124 -27.428  13.138  0.00  0.00    +0.049 A 
ATOM     11  C   LIG    1       21.674 -28.606  12.481  0.00  0.00    +0.008 A 
ATOM     12  C   LIG    1       22.606 -29.508  11.984  0.00  0.00    -0.038 A 
ATOM     13  C   LIG    1       27.292 -28.937  10.881  0.00  0.00    +0.178 C 
ATOM     14  C   LIG    1       26.738 -28.711   9.504  0.00  0.00    +0.004 C 
ATOM     15  C   LIG    1       23.951 -29.267  12.268  0.00  0.00    +0.012 A 
ATOM     16  C   LIG    1       25.174 -31.407  12.012  0.00  0.00    +0.031 C 
ATOM     17  C   LIG    1       25.556 -29.209   9.103  0.00  0.00    -0.023 C 
ATOM     18  C   LIG    1       22.288 -30.539  10.880  0.00  0.00    +0.055 C 
ATOM     19  C   LIG    1       25.250 -32.351  10.832  0.00  0.00    +0.085 C 
ENDROOT
BRANCH   9  20
ATOM     20  O   LIG    1       23.891 -25.945  13.734  0.00  0.00    -0.503 OA
ATOM     21  H   LIG    1       24.373 -25.517  13.002  0.00  0.00    +0.292 HD
ENDBRANCH   9  20
BRANCH  13  22
ATOM     22  O   LIG    1       28.053 -30.151  10.775  0.00  0.00    -0.384 OA
ATOM     23  H   LIG    1       27.581 -30.857  11.251  0.00  0.00    +0.210 HD
ENDBRANCH  13  22
TORSDOF 2
ENDMDL
MODEL 6
REMARK VINA RESULT:      -5.7      9.044     10.591
REMARK  Name = *****
REMARK                            x       y       z     vdW  Elec       q    Type
REMARK                         _______ _______ _______ _____ _____    ______ ____
ROOT
ATOM      1  C   LIG    1       23.008 -32.709  11.583  0.00  0.00    +0.105 C 
ATOM      2  N   LIG    1       24.066 -31.785  11.193  0.00  0.00    -0.301 NA
ATOM      3  C   LIG    1       23.617 -30.399  10.896  0.00  0.00    +0.069 C 
ATOM      4  C   LIG    1       24.794 -29.378  10.870  0.00  0.00    +0.043 C 
ATOM      5  C   LIG    1       25.349 -29.393  12.323  0.00  0.00    +0.048 C 
ATOM      6  C   LIG    1       26.646 -28.619  12.584  0.00  0.00    +0.217 C 
ATOM      7  O   LIG    1       26.306 -27.222  12.879  0.00  0.00    -0.481 OA
ATOM      8  C   LIG    1       24.970 -27.261  13.218  0.00  0.00    +0.166 A 
ATOM      9  C   LIG    1       24.196 -26.168  13.524  0.00  0.00    +0.159 A 
ATOM     10  C   LIG    1       22.805 -26.292  13.505  0.00  0.00    +0.049 A 
ATOM     11  C   LIG    1       22.190 -27.508  13.096  0.00  0.00    +0.008 A 
ATOM     12  C   LIG    1       22.987 -28.591  12.749  0.00  0.00    -0.038 A 
ATOM     13  C   LIG    1       27.642 -28.802  11.414  0.00  0.00    +0.178 C 
ATOM     14  C   LIG    1       27.046 -28.768  10.036  0.00  0.00    +0.004 C 
ATOM     15  C   LIG    1       24.364 -28.466  12.941  0.00  0.00    +0.012 A 
ATOM     16  C   LIG    1       25.323 -30.749  13.055  0.00  0.00    +0.031 C 
ATOM     17  C   LIG    1       25.796 -29.184   9.773  0.00  0.00    -0.023 C 
ATOM     18  C   LIG    1       22.497 -29.761  11.870  0.00  0.00    +0.055 C 
ATOM     19  C   LIG    1       25.229 -31.895  12.072  0.00  0.00    +0.085 C 
ENDROOT
BRANCH   9  20
ATOM     20  O   LIG    1       24.757 -24.949  13.755  0.00  0.00    -0.503 OA
ATOM     21  H   LIG    1       25.721 -25.097  13.750  0.00  0.00    +0.292 HD
ENDBRANCH   9  20
BRANCH  13  22
ATOM     22  O   LIG    1       28.255 -30.097  11.515  0.00  0.00    -0.384 OA
ATOM     23  H   LIG    1       27.562 -30.756  11.701  0.00  0.00    +0.210 HD
ENDBRANCH  13  22
TORSDOF 2
ENDMDL
MODEL 7
REMARK VINA RESULT:      -5.6      7.193      9.693
REMARK  Name = *****
REMARK                            x       y       z     vdW  Elec       q    Type
REMARK                         _______ _______ _______ _____ _____    ______ ____
ROOT
ATOM      1  C   LIG    1       22.496 -33.357   7.810  0.00  0.00    +0.105 C 
ATOM      2  N   LIG    1       23.719 -32.782   8.358  0.00  0.00    -0.301 NA
ATOM      3  C   LIG    1       24.639 -32.184   7.356  0.00  0.00    +0.069 C 
ATOM      4  C   LIG    1       25.714 -31.258   8.003  0.00  0.00    +0.043 C 
ATOM      5  C   LIG    1       24.891 -30.100   8.637  0.00  0.00    +0.048 C 
ATOM      6  C   LIG    1       25.652 -29.105   9.520  0.00  0.00    +0.217 C 
ATOM      7  O   LIG    1       26.207 -28.050   8.662  0.00  0.00    -0.481 OA
ATOM      8  C   LIG    1       25.480 -28.141   7.495  0.00  0.00    +0.166 A 
ATOM      9  C   LIG    1       25.684 -27.381   6.370  0.00  0.00    +0.159 A 
ATOM     10  C   LIG    1       25.132 -27.797   5.156  0.00  0.00    +0.049 A 
ATOM     11  C   LIG    1       24.435 -29.033   5.062  0.00  0.00    +0.008 A 
ATOM     12  C   LIG    1       24.273 -29.811   6.201  0.00  0.00    -0.038 A 
ATOM     13  C   LIG    1       26.697 -29.832  10.399  0.00  0.00    +0.178 C 
ATOM     14  C   LIG    1       27.464 -30.933   9.725  0.00  0.00    +0.004 C 
ATOM     15  C   LIG    1       24.701 -29.274   7.416  0.00  0.00    +0.012 A 
ATOM     16  C   LIG    1       23.521 -30.477   9.233  0.00  0.00    +0.031 C 
ATOM     17  C   LIG    1       26.947 -31.683   8.738  0.00  0.00    -0.023 C 
ATOM     18  C   LIG    1       23.973 -31.325   6.161  0.00  0.00    +0.055 C 
ATOM     19  C   LIG    1       23.447 -31.958   9.534  0.00  0.00    +0.085 C 
ENDROOT
BRANCH   9  20
ATOM     20  O   LIG    1       26.488 -26.281   6.399  0.00  0.00    -0.503 OA
ATOM     21  H   LIG    1       26.390 -25.906   7.293  0.00  0.00    +0.292 HD
ENDBRANCH   9  20
BRANCH  13  22
ATOM     22  O   LIG    1       26.026 -30.473  11.496  0.00  0.00    -0.384 OA
ATOM     23  H   LIG    1       26.382 -31.374  11.594  0.00  0.00    +0.210 HD
ENDBRANCH  13  22
TORSDOF 2
ENDMDL
MODEL 8
REMARK VINA RESULT:      -5.5      9.471     11.210
REMARK  Name = *****
REMARK                            x       y       z     vdW  Elec       q    Type
REMARK                         _______ _______ _______ _____ _____    ______ ____
ROOT
ATOM      1  C   LIG    1       27.197 -25.551  13.721  0.00  0.00    +0.105 C 
ATOM      2  N   LIG    1       26.772 -26.918  13.998  0.00  0.00    -0.301 NA
ATOM      3  C   LIG    1       25.425 -27.049  14.612  0.00  0.00    +0.069 C 
ATOM      4  C   LIG    1       24.864 -28.501  14.528  0.00  0.00    +0.043 C 
ATOM      5  C   LIG    1       24.715 -28.767  13.002  0.00  0.00    +0.048 C 
ATOM      6  C   LIG    1       24.353 -30.194  12.575  0.00  0.00    +0.217 C 
ATOM      7  O   LIG    1       22.891 -30.332  12.598  0.00  0.00    -0.481 OA
ATOM      8  C   LIG    1       22.426 -29.034  12.579  0.00  0.00    +0.166 A 
ATOM      9  C   LIG    1       21.105 -28.662  12.644  0.00  0.00    +0.159 A 
ATOM     10  C   LIG    1       20.784 -27.342  12.967  0.00  0.00    +0.049 A 
ATOM     11  C   LIG    1       21.803 -26.410  13.305  0.00  0.00    +0.008 A 
ATOM     12  C   LIG    1       23.132 -26.813  13.276  0.00  0.00    -0.038 A 
ATOM     13  C   LIG    1       25.108 -31.236  13.433  0.00  0.00    +0.178 C 
ATOM     14  C   LIG    1       25.209 -30.925  14.899  0.00  0.00    +0.004 C 
ATOM     15  C   LIG    1       23.407 -28.092  12.790  0.00  0.00    +0.012 A 
ATOM     16  C   LIG    1       25.784 -28.139  12.087  0.00  0.00    +0.031 C 
ATOM     17  C   LIG    1       25.257 -29.670  15.376  0.00  0.00    -0.023 C 
ATOM     18  C   LIG    1       24.258 -26.088  14.043  0.00  0.00    +0.055 C 
ATOM     19  C   LIG    1       27.037 -27.803  12.865  0.00  0.00    +0.085 C 
ENDROOT
BRANCH   9  20
ATOM     20  O   LIG    1       20.107 -29.577  12.488  0.00  0.00    -0.503 OA
ATOM     21  H   LIG    1       20.381 -30.142  11.742  0.00  0.00    +0.292 HD
ENDBRANCH   9  20
BRANCH  13  22
ATOM     22  O   LIG    1       26.470 -31.320  12.984  0.00  0.00    -0.384 OA
ATOM     23  H   LIG    1       27.045 -30.911  13.655  0.00  0.00    +0.210 HD
ENDBRANCH  13  22
TORSDOF 2
ENDMDL
MODEL 9
REMARK VINA RESULT:      -5.4      8.127     10.449
REMARK  Name = *****
REMARK                            x       y       z     vdW  Elec       q    Type
REMARK                         _______ _______ _______ _____ _____    ______ ____
ROOT
ATOM      1  C   LIG    1       27.521 -29.238  13.610  0.00  0.00    +0.105 C 
ATOM      2  N   LIG    1       26.121 -29.443  13.259  0.00  0.00    -0.301 NA
ATOM      3  C   LIG    1       25.592 -28.534  12.210  0.00  0.00    +0.069 C 
ATOM      4  C   LIG    1       24.246 -29.033  11.603  0.00  0.00    +0.043 C 
ATOM      5  C   LIG    1       24.610 -30.382  10.918  0.00  0.00    +0.048 C 
ATOM      6  C   LIG    1       23.451 -31.227  10.379  0.00  0.00    +0.217 C 
ATOM      7  O   LIG    1       23.143 -30.780   9.013  0.00  0.00    -0.481 OA
ATOM      8  C   LIG    1       24.271 -30.092   8.618  0.00  0.00    +0.166 A 
ATOM      9  C   LIG    1       24.425 -29.441   7.419  0.00  0.00    +0.159 A 
ATOM     10  C   LIG    1       25.450 -28.502   7.279  0.00  0.00    +0.049 A 
ATOM     11  C   LIG    1       26.276 -28.161   8.385  0.00  0.00    +0.008 A 
ATOM     12  C   LIG    1       26.080 -28.797   9.604  0.00  0.00    -0.038 A 
ATOM     13  C   LIG    1       22.246 -31.195  11.348  0.00  0.00    +0.178 C 
ATOM     14  C   LIG    1       21.940 -29.862  11.968  0.00  0.00    +0.004 C 
ATOM     15  C   LIG    1       25.154 -29.840   9.645  0.00  0.00    +0.012 A 
ATOM     16  C   LIG    1       25.679 -31.242  11.620  0.00  0.00    +0.031 C 
ATOM     17  C   LIG    1       22.887 -28.944  12.226  0.00  0.00    -0.023 C 
ATOM     18  C   LIG    1       26.556 -28.218  10.953  0.00  0.00    +0.055 C 
ATOM     19  C   LIG    1       25.813 -30.861  13.078  0.00  0.00    +0.085 C 
ENDROOT
BRANCH   9  20
ATOM     20  O   LIG    1       23.543 -29.628   6.397  0.00  0.00    -0.503 OA
ATOM     21  H   LIG    1       24.018 -29.365   5.587  0.00  0.00    +0.292 HD
ENDBRANCH   9  20
BRANCH  13  22
ATOM     22  O   LIG    1       22.514 -32.062  12.462  0.00  0.00    -0.384 OA
ATOM     23  H   LIG    1       21.850 -32.775  12.469  0.00  0.00    +0.210 HD
ENDBRANCH  13  22
TORSDOF 2
ENDMDL
