MODEL 1
REMARK VINA RESULT:      -1.1      0.000      0.000
REMARK  Name = *****
REMARK                            x       y       z     vdW  Elec       q    Type
REMARK                         _______ _______ _______ _____ _____    ______ ____
ROOT
ATOM      1  C   LIG    1       28.281 -18.529   5.329  0.00  0.00    +0.156 A 
ATOM      2  C   LIG    1       27.401 -17.811   4.504  0.00  0.00    +0.114 A 
ATOM      3  C   LIG    1       26.176 -18.416   4.134  0.00  0.00    +0.017 A 
ATOM      4  C   LIG    1       25.316 -17.647   3.312  0.00  0.00    +0.012 A 
ATOM      5  C   LIG    1       25.665 -16.365   2.905  0.00  0.00    +0.020 A 
ATOM      6  C   LIG    1       26.879 -15.872   3.318  0.00  0.00    +0.111 A 
ATOM      7  C   LIG    1       25.888 -19.726   4.606  0.00  0.00    +0.024 A 
ATOM      8  I   LIG    1       24.110 -20.762   4.125  0.00  0.00    -0.043 I 
ATOM      9  C   LIG    1       26.778 -20.414   5.435  0.00  0.00    +0.033 A 
ATOM     10  N   LIG    1       27.736 -16.566   4.092  0.00  0.00    -0.251 NA
ATOM     11  C   LIG    1       27.974 -19.810   5.799  0.00  0.00    +0.058 A 
ATOM     12  I   LIG    1       29.273 -20.856   7.061  0.00  0.00    -0.040 I 
ENDROOT
BRANCH   1  13
ATOM     13  O   LIG    1       29.474 -17.931   5.682  0.00  0.00    -0.504 OA
ATOM     14  H   LIG    1       30.165 -18.245   5.076  0.00  0.00    +0.292 HD
ENDBRANCH   1  13
TORSDOF 1
ENDMDL
MODEL 2
REMARK VINA RESULT:      -1.0      2.884      4.356
REMARK  Name = *****
REMARK                            x       y       z     vdW  Elec       q    Type
REMARK                         _______ _______ _______ _____ _____    ______ ____
ROOT
ATOM      1  C   LIG    1       25.807 -20.270   4.817  0.00  0.00    +0.156 A 
ATOM      2  C   LIG    1       27.044 -19.707   5.166  0.00  0.00    +0.114 A 
ATOM      3  C   LIG    1       27.338 -18.394   4.725  0.00  0.00    +0.017 A 
ATOM      4  C   LIG    1       28.593 -17.864   5.115  0.00  0.00    +0.012 A 
ATOM      5  C   LIG    1       29.475 -18.601   5.896  0.00  0.00    +0.020 A 
ATOM      6  C   LIG    1       29.093 -19.867   6.268  0.00  0.00    +0.111 A 
ATOM      7  C   LIG    1       26.374 -17.701   3.943  0.00  0.00    +0.024 A 
ATOM      8  I   LIG    1       26.678 -15.746   3.201  0.00  0.00    -0.043 I 
ATOM      9  C   LIG    1       25.145 -18.283   3.618  0.00  0.00    +0.033 A 
ATOM     10  N   LIG    1       27.916 -20.420   5.917  0.00  0.00    -0.251 NA
ATOM     11  C   LIG    1       24.862 -19.567   4.061  0.00  0.00    +0.058 A 
ATOM     12  I   LIG    1       23.005 -20.400   3.580  0.00  0.00    -0.040 I 
ENDROOT
BRANCH   1  13
ATOM     13  O   LIG    1       25.531 -21.551   5.250  0.00  0.00    -0.504 OA
ATOM     14  H   LIG    1       25.888 -21.656   6.147  0.00  0.00    +0.292 HD
ENDBRANCH   1  13
TORSDOF 1
ENDMDL
MODEL 3
REMARK VINA RESULT:      -0.6      2.358      4.001
REMARK  Name = *****
REMARK                            x       y       z     vdW  Elec       q    Type
REMARK                         _______ _______ _______ _____ _____    ______ ____
ROOT
ATOM      1  C   LIG    1       27.549 -16.160   4.081  0.00  0.00    +0.156 A 
ATOM      2  C   LIG    1       27.913 -17.406   4.614  0.00  0.00    +0.114 A 
ATOM      3  C   LIG    1       27.020 -18.495   4.465  0.00  0.00    +0.017 A 
ATOM      4  C   LIG    1       27.439 -19.734   5.009  0.00  0.00    +0.012 A 
ATOM      5  C   LIG    1       28.668 -19.862   5.645  0.00  0.00    +0.020 A 
ATOM      6  C   LIG    1       29.458 -18.743   5.739  0.00  0.00    +0.111 A 
ATOM      7  C   LIG    1       25.789 -18.283   3.786  0.00  0.00    +0.024 A 
ATOM      8  I   LIG    1       24.351 -19.805   3.500  0.00  0.00    -0.043 I 
ATOM      9  C   LIG    1       25.456 -17.034   3.255  0.00  0.00    +0.033 A 
ATOM     10  N   LIG    1       29.103 -17.540   5.248  0.00  0.00    -0.251 NA
ATOM     11  C   LIG    1       26.340 -15.974   3.400  0.00  0.00    +0.058 A 
ATOM     12  I   LIG    1       25.823 -14.125   2.572  0.00  0.00    -0.040 I 
ENDROOT
BRANCH   1  13
ATOM     13  O   LIG    1       28.424 -15.106   4.234  0.00  0.00    -0.504 OA
ATOM     14  H   LIG    1       29.328 -15.433   4.093  0.00  0.00    +0.292 HD
ENDBRANCH   1  13
TORSDOF 1
ENDMDL
MODEL 4
REMARK VINA RESULT:      -0.6      4.098      5.651
REMARK  Name = *****
REMARK                            x       y       z     vdW  Elec       q    Type
REMARK                         _______ _______ _______ _____ _____    ______ ____
ROOT
ATOM      1  C   LIG    1       25.219 -15.862   3.741  0.00  0.00    +0.156 A 
ATOM      2  C   LIG    1       26.168 -14.828   3.748  0.00  0.00    +0.114 A 
ATOM      3  C   LIG    1       25.755 -13.531   4.140  0.00  0.00    +0.017 A 
ATOM      4  C   LIG    1       26.751 -12.525   4.144  0.00  0.00    +0.012 A 
ATOM      5  C   LIG    1       28.064 -12.811   3.786  0.00  0.00    +0.020 A 
ATOM      6  C   LIG    1       28.359 -14.101   3.419  0.00  0.00    +0.111 A 
ATOM      7  C   LIG    1       24.396 -13.327   4.506  0.00  0.00    +0.024 A 
ATOM      8  I   LIG    1       23.629 -11.449   5.098  0.00  0.00    -0.043 I 
ATOM      9  C   LIG    1       23.474 -14.377   4.501  0.00  0.00    +0.033 A 
ATOM     10  N   LIG    1       27.447 -15.091   3.390  0.00  0.00    -0.251 NA
ATOM     11  C   LIG    1       23.890 -15.646   4.121  0.00  0.00    +0.058 A 
ATOM     12  I   LIG    1       22.492 -17.201   4.148  0.00  0.00    -0.040 I 
ENDROOT
BRANCH   1  13
ATOM     13  O   LIG    1       25.631 -17.120   3.354  0.00  0.00    -0.504 OA
ATOM     14  H   LIG    1       25.987 -17.579   4.132  0.00  0.00    +0.292 HD
ENDBRANCH   1  13
TORSDOF 1
ENDMDL
MODEL 5
REMARK VINA RESULT:      -0.3      2.064      3.457
REMARK  Name = *****
REMARK                            x       y       z     vdW  Elec       q    Type
REMARK                         _______ _______ _______ _____ _____    ______ ____
ROOT
ATOM      1  C   LIG    1       25.082 -18.691   3.874  0.00  0.00    +0.156 A 
ATOM      2  C   LIG    1       25.927 -17.572   3.831  0.00  0.00    +0.114 A 
ATOM      3  C   LIG    1       27.214 -17.673   4.413  0.00  0.00    +0.017 A 
ATOM      4  C   LIG    1       28.035 -16.522   4.333  0.00  0.00    +0.012 A 
ATOM      5  C   LIG    1       27.592 -15.364   3.706  0.00  0.00    +0.020 A 
ATOM      6  C   LIG    1       26.325 -15.369   3.175  0.00  0.00    +0.111 A 
ATOM      7  C   LIG    1       27.597 -18.900   5.022  0.00  0.00    +0.024 A 
ATOM      8  I   LIG    1       29.475 -19.196   5.944  0.00  0.00    -0.043 I 
ATOM      9  C   LIG    1       26.738 -20.002   5.041  0.00  0.00    +0.033 A 
ATOM     10  N   LIG    1       25.502 -16.434   3.233  0.00  0.00    -0.251 NA
ATOM     11  C   LIG    1       25.481 -19.896   4.462  0.00  0.00    +0.058 A 
ATOM     12  I   LIG    1       24.230 -21.572   4.484  0.00  0.00    -0.040 I 
ENDROOT
BRANCH   1  13
ATOM     13  O   LIG    1       23.829 -18.581   3.306  0.00  0.00    -0.504 OA
ATOM     14  H   LIG    1       23.198 -19.070   3.860  0.00  0.00    +0.292 HD
ENDBRANCH   1  13
TORSDOF 1
ENDMDL
MODEL 6
REMARK VINA RESULT:       0.2      3.019      4.415
REMARK  Name = *****
REMARK                            x       y       z     vdW  Elec       q    Type
REMARK                         _______ _______ _______ _____ _____    ______ ____
ROOT
ATOM      1  C   LIG    1       26.038 -16.667   3.392  0.00  0.00    +0.156 A 
ATOM      2  C   LIG    1       25.766 -18.014   3.677  0.00  0.00    +0.114 A 
ATOM      3  C   LIG    1       26.731 -18.764   4.393  0.00  0.00    +0.017 A 
ATOM      4  C   LIG    1       26.405 -20.114   4.668  0.00  0.00    +0.012 A 
ATOM      5  C   LIG    1       25.194 -20.660   4.258  0.00  0.00    +0.020 A 
ATOM      6  C   LIG    1       24.329 -19.848   3.566  0.00  0.00    +0.111 A 
ATOM      7  C   LIG    1       27.938 -18.125   4.790  0.00  0.00    +0.024 A 
ATOM      8  I   LIG    1       29.475 -19.116   5.848  0.00  0.00    -0.043 I 
ATOM      9  C   LIG    1       28.178 -16.778   4.502  0.00  0.00    +0.033 A 
ATOM     10  N   LIG    1       24.595 -18.561   3.272  0.00  0.00    -0.251 NA
ATOM     11  C   LIG    1       27.224 -16.050   3.806  0.00  0.00    +0.058 A 
ATOM     12  I   LIG    1       27.603 -14.032   3.414  0.00  0.00    -0.040 I 
ENDROOT
BRANCH   1  13
ATOM     13  O   LIG    1       25.092 -15.947   2.692  0.00  0.00    -0.504 OA
ATOM     14  H   LIG    1       24.212 -16.195   3.020  0.00  0.00    +0.292 HD
ENDBRANCH   1  13
TORSDOF 1
ENDMDL
MODEL 7
REMARK VINA RESULT:       0.3      4.618      6.292
REMARK  Name = *****
REMARK                            x       y       z     vdW  Elec       q    Type
REMARK                         _______ _______ _______ _____ _____    ______ ____
ROOT
ATOM      1  C   LIG    1       24.067 -14.289   4.284  0.00  0.00    +0.156 A 
ATOM      2  C   LIG    1       24.951 -15.324   3.940  0.00  0.00    +0.114 A 
ATOM      3  C   LIG    1       26.323 -15.015   3.770  0.00  0.00    +0.017 A 
ATOM      4  C   LIG    1       27.176 -16.094   3.438  0.00  0.00    +0.012 A 
ATOM      5  C   LIG    1       26.683 -17.386   3.297  0.00  0.00    +0.020 A 
ATOM      6  C   LIG    1       25.335 -17.578   3.481  0.00  0.00    +0.111 A 
ATOM      7  C   LIG    1       26.749 -13.669   3.948  0.00  0.00    +0.024 A 
ATOM      8  I   LIG    1       28.756 -13.054   3.713  0.00  0.00    -0.043 I 
ATOM      9  C   LIG    1       25.848 -12.660   4.300  0.00  0.00    +0.033 A 
ATOM     10  N   LIG    1       24.480 -16.584   3.789  0.00  0.00    -0.251 NA
ATOM     11  C   LIG    1       24.507 -12.974   4.472  0.00  0.00    +0.058 A 
ATOM     12  I   LIG    1       23.190 -11.447   5.023  0.00  0.00    -0.040 I 
ENDROOT
BRANCH   1  13
ATOM     13  O   LIG    1       22.733 -14.601   4.444  0.00  0.00    -0.504 OA
ATOM     14  H   LIG    1       22.485 -14.423   5.366  0.00  0.00    +0.292 HD
ENDBRANCH   1  13
TORSDOF 1
ENDMDL
MODEL 8
REMARK VINA RESULT:       0.3      4.735      5.719
REMARK  Name = *****
REMARK                            x       y       z     vdW  Elec       q    Type
REMARK                         _______ _______ _______ _____ _____    ______ ____
ROOT
ATOM      1  C   LIG    1       26.620 -14.872   3.780  0.00  0.00    +0.156 A 
ATOM      2  C   LIG    1       25.295 -15.292   3.976  0.00  0.00    +0.114 A 
ATOM      3  C   LIG    1       24.331 -14.333   4.372  0.00  0.00    +0.017 A 
ATOM      4  C   LIG    1       23.007 -14.803   4.543  0.00  0.00    +0.012 A 
ATOM      5  C   LIG    1       22.681 -16.136   4.323  0.00  0.00    +0.020 A 
ATOM      6  C   LIG    1       23.691 -16.986   3.944  0.00  0.00    +0.111 A 
ATOM      7  C   LIG    1       24.744 -12.985   4.561  0.00  0.00    +0.024 A 
ATOM      8  I   LIG    1       23.426 -11.448   5.164  0.00  0.00    -0.043 I 
ATOM      9  C   LIG    1       26.068 -12.592   4.348  0.00  0.00    +0.033 A 
ATOM     10  N   LIG    1       24.968 -16.591   3.776  0.00  0.00    -0.251 NA
ATOM     11  C   LIG    1       27.004 -13.538   3.954  0.00  0.00    +0.058 A 
ATOM     12  I   LIG    1       28.971 -12.913   3.620  0.00  0.00    -0.040 I 
ENDROOT
BRANCH   1  13
ATOM     13  O   LIG    1       27.551 -15.816   3.398  0.00  0.00    -0.504 OA
ATOM     14  H   LIG    1       27.297 -16.162   2.527  0.00  0.00    +0.292 HD
ENDBRANCH   1  13
TORSDOF 1
ENDMDL
MODEL 9
REMARK VINA RESULT:       0.4      2.901      4.354
REMARK  Name = *****
REMARK                            x       y       z     vdW  Elec       q    Type
REMARK                         _______ _______ _______ _____ _____    ______ ____
ROOT
ATOM      1  C   LIG    1       25.841 -17.647   3.645  0.00  0.00    +0.156 A 
ATOM      2  C   LIG    1       25.488 -18.961   3.986  0.00  0.00    +0.114 A 
ATOM      3  C   LIG    1       26.386 -19.721   4.775  0.00  0.00    +0.017 A 
ATOM      4  C   LIG    1       25.978 -21.037   5.104  0.00  0.00    +0.012 A 
ATOM      5  C   LIG    1       24.755 -21.540   4.677  0.00  0.00    +0.020 A 
ATOM      6  C   LIG    1       23.959 -20.721   3.914  0.00  0.00    +0.111 A 
ATOM      7  C   LIG    1       27.611 -19.126   5.184  0.00  0.00    +0.024 A 
ATOM      8  I   LIG    1       29.054 -20.139   6.348  0.00  0.00    -0.043 I 
ATOM      9  C   LIG    1       27.933 -17.810   4.839  0.00  0.00    +0.033 A 
ATOM     10  N   LIG    1       24.304 -19.467   3.566  0.00  0.00    -0.251 NA
ATOM     11  C   LIG    1       27.044 -17.071   4.072  0.00  0.00    +0.058 A 
ATOM     12  I   LIG    1       27.544 -15.098   3.593  0.00  0.00    -0.040 I 
ENDROOT
BRANCH   1  13
ATOM     13  O   LIG    1       24.961 -16.916   2.874  0.00  0.00    -0.504 OA
ATOM     14  H   LIG    1       25.043 -17.210   1.952  0.00  0.00    +0.292 HD
ENDBRANCH   1  13
TORSDOF 1
ENDMDL
