MODEL 1
REMARK VINA RESULT:      -4.9      0.000      0.000
REMARK  Name = *****
REMARK                            x       y       z     vdW  Elec       q    Type
REMARK                         _______ _______ _______ _____ _____    ______ ____
ROOT
ATOM      1  C   LIG    1       30.987 -17.555   9.104  0.00  0.00    +0.175 C 
ENDROOT
BRANCH   1   3
ATOM      2  O   LIG    1       33.024 -17.396  10.391  0.00  0.00    -0.250 OA
ATOM      3  C   LIG    1       32.317 -16.935   9.507  0.00  0.00    +0.319 C 
BRANCH   3   4
ATOM      4  O   LIG    1       32.686 -15.855   8.780  0.00  0.00    -0.480 OA
ATOM      5  H   LIG    1       31.989 -15.164   8.746  0.00  0.00    +0.295 HD
ENDBRANCH   3   4
ENDBRANCH   1   3
BRANCH   1   6
ATOM      6  S   LIG    1       30.011 -17.964  10.612  0.00  0.00    -0.162 S 
ATOM      7  H   LIG    1       30.896 -18.822  11.150  0.00  0.00    +0.102 HD
ENDBRANCH   1   6
BRANCH   1   8
ATOM      8  C   LIG    1       31.226 -18.710   8.114  0.00  0.00    +0.175 C 
BRANCH   8   9
ATOM      9  S   LIG    1       30.000 -18.695   6.735  0.00  0.00    -0.162 S 
ATOM     10  H   LIG    1       30.272 -19.935   6.287  0.00  0.00    +0.102 HD
ENDBRANCH   8   9
BRANCH   8  11
ATOM     11  C   LIG    1       31.240 -20.085   8.779  0.00  0.00    +0.319 C 
ATOM     12  O   LIG    1       32.206 -20.565   9.356  0.00  0.00    -0.250 OA
BRANCH  11  13
ATOM     13  O   LIG    1       30.090 -20.786   8.646  0.00  0.00    -0.480 OA
ATOM     14  H   LIG    1       29.685 -20.801   7.745  0.00  0.00    +0.295 HD
ENDBRANCH  11  13
ENDBRANCH   8  11
ENDBRANCH   1   8
TORSDOF 7
ENDMDL
MODEL 2
REMARK VINA RESULT:      -4.6      2.256      2.961
REMARK  Name = *****
REMARK                            x       y       z     vdW  Elec       q    Type
REMARK                         _______ _______ _______ _____ _____    ______ ____
ROOT
ATOM      1  C   LIG    1       30.817 -19.720   7.679  0.00  0.00    +0.175 C 
ENDROOT
BRANCH   1   3
ATOM      2  O   LIG    1       29.856 -18.479   9.514  0.00  0.00    -0.250 OA
ATOM      3  C   LIG    1       30.846 -18.997   9.018  0.00  0.00    +0.319 C 
BRANCH   3   4
ATOM      4  O   LIG    1       32.044 -19.008   9.645  0.00  0.00    -0.480 OA
ATOM      5  H   LIG    1       31.963 -19.103  10.619  0.00  0.00    +0.295 HD
ENDBRANCH   3   4
ENDBRANCH   1   3
BRANCH   1   6
ATOM      6  S   LIG    1       29.874 -18.719   6.453  0.00  0.00    -0.162 S 
ATOM      7  H   LIG    1       30.892 -17.929   6.071  0.00  0.00    +0.102 HD
ENDBRANCH   1   6
BRANCH   1   8
ATOM      8  C   LIG    1       30.347 -21.173   7.878  0.00  0.00    +0.175 C 
BRANCH   8   9
ATOM      9  S   LIG    1       28.522 -21.274   8.130  0.00  0.00    -0.162 S 
ATOM     10  H   LIG    1       28.183 -20.672   6.974  0.00  0.00    +0.102 HD
ENDBRANCH   8   9
BRANCH   8  11
ATOM     11  C   LIG    1       31.066 -21.891   9.018  0.00  0.00    +0.319 C 
ATOM     12  O   LIG    1       30.674 -21.917  10.176  0.00  0.00    -0.250 OA
BRANCH  11  13
ATOM     13  O   LIG    1       32.232 -22.481   8.665  0.00  0.00    -0.480 OA
ATOM     14  H   LIG    1       32.548 -22.315   7.743  0.00  0.00    +0.295 HD
ENDBRANCH  11  13
ENDBRANCH   8  11
ENDBRANCH   1   8
TORSDOF 7
ENDMDL
MODEL 3
REMARK VINA RESULT:      -4.5      6.045      7.512
REMARK  Name = *****
REMARK                            x       y       z     vdW  Elec       q    Type
REMARK                         _______ _______ _______ _____ _____    ______ ____
ROOT
ATOM      1  C   LIG    1       26.280 -21.674   7.066  0.00  0.00    +0.175 C 
ENDROOT
BRANCH   1   3
ATOM      2  O   LIG    1       27.636 -20.102   8.301  0.00  0.00    -0.250 OA
ATOM      3  C   LIG    1       26.662 -20.841   8.282  0.00  0.00    +0.319 C 
BRANCH   3   4
ATOM      4  O   LIG    1       25.815 -20.943   9.331  0.00  0.00    -0.480 OA
ATOM      5  H   LIG    1       25.905 -21.795   9.811  0.00  0.00    +0.295 HD
ENDBRANCH   3   4
ENDBRANCH   1   3
BRANCH   1   6
ATOM      6  S   LIG    1       25.770 -20.562   5.689  0.00  0.00    -0.162 S 
ATOM      7  H   LIG    1       27.004 -20.303   5.224  0.00  0.00    +0.102 HD
ENDBRANCH   1   6
BRANCH   1   8
ATOM      8  C   LIG    1       25.270 -22.762   7.473  0.00  0.00    +0.175 C 
BRANCH   8   9
ATOM      9  S   LIG    1       25.651 -24.382   6.677  0.00  0.00    -0.162 S 
ATOM     10  H   LIG    1       24.393 -24.643   6.271  0.00  0.00    +0.102 HD
ENDBRANCH   8   9
BRANCH   8  11
ATOM     11  C   LIG    1       23.819 -22.377   7.193  0.00  0.00    +0.319 C 
ATOM     12  O   LIG    1       23.183 -21.558   7.842  0.00  0.00    -0.250 OA
BRANCH  11  13
ATOM     13  O   LIG    1       23.243 -23.055   6.173  0.00  0.00    -0.480 OA
ATOM     14  H   LIG    1       23.856 -23.517   5.551  0.00  0.00    +0.295 HD
ENDBRANCH  11  13
ENDBRANCH   8  11
ENDBRANCH   1   8
TORSDOF 7
ENDMDL
MODEL 4
REMARK VINA RESULT:      -4.5      5.860      7.620
REMARK  Name = *****
REMARK                            x       y       z     vdW  Elec       q    Type
REMARK                         _______ _______ _______ _____ _____    ______ ____
ROOT
ATOM      1  C   LIG    1       25.043 -21.361   6.373  0.00  0.00    +0.175 C 
ENDROOT
BRANCH   1   3
ATOM      2  O   LIG    1       22.949 -20.185   6.114  0.00  0.00    -0.250 OA
ATOM      3  C   LIG    1       23.638 -20.942   6.783  0.00  0.00    +0.319 C 
BRANCH   3   4
ATOM      4  O   LIG    1       23.185 -21.507   7.925  0.00  0.00    -0.480 OA
ATOM      5  H   LIG    1       22.215 -21.661   7.915  0.00  0.00    +0.295 HD
ENDBRANCH   3   4
ENDBRANCH   1   3
BRANCH   1   6
ATOM      6  S   LIG    1       25.268 -23.163   6.682  0.00  0.00    -0.162 S 
ATOM      7  H   LIG    1       25.160 -23.562   5.403  0.00  0.00    +0.102 HD
ENDBRANCH   1   6
BRANCH   1   8
ATOM      8  C   LIG    1       26.079 -20.424   7.021  0.00  0.00    +0.175 C 
BRANCH   8   9
ATOM      9  S   LIG    1       27.562 -20.196   5.948  0.00  0.00    -0.162 S 
ATOM     10  H   LIG    1       27.223 -18.976   5.490  0.00  0.00    +0.102 HD
ENDBRANCH   8   9
BRANCH   8  11
ATOM     11  C   LIG    1       26.513 -20.873   8.415  0.00  0.00    +0.319 C 
ATOM     12  O   LIG    1       25.820 -20.780   9.419  0.00  0.00    -0.250 OA
BRANCH  11  13
ATOM     13  O   LIG    1       27.776 -21.356   8.483  0.00  0.00    -0.480 OA
ATOM     14  H   LIG    1       28.006 -22.076   7.847  0.00  0.00    +0.295 HD
ENDBRANCH  11  13
ENDBRANCH   8  11
ENDBRANCH   1   8
TORSDOF 7
ENDMDL
MODEL 5
REMARK VINA RESULT:      -4.4      6.101      7.925
REMARK  Name = *****
REMARK                            x       y       z     vdW  Elec       q    Type
REMARK                         _______ _______ _______ _____ _____    ______ ____
ROOT
ATOM      1  C   LIG    1       24.875 -20.746   6.340  0.00  0.00    +0.175 C 
ENDROOT
BRANCH   1   3
ATOM      2  O   LIG    1       23.192 -21.450   7.921  0.00  0.00    -0.250 OA
ATOM      3  C   LIG    1       23.619 -21.487   6.777  0.00  0.00    +0.319 C 
BRANCH   3   4
ATOM      4  O   LIG    1       22.980 -22.156   5.790  0.00  0.00    -0.480 OA
ATOM      5  H   LIG    1       23.324 -21.936   4.897  0.00  0.00    +0.295 HD
ENDBRANCH   3   4
ENDBRANCH   1   3
BRANCH   1   6
ATOM      6  S   LIG    1       24.872 -20.546   4.508  0.00  0.00    -0.162 S 
ATOM      7  H   LIG    1       23.602 -20.121   4.394  0.00  0.00    +0.102 HD
ENDBRANCH   1   6
BRANCH   1   8
ATOM      8  C   LIG    1       26.119 -21.417   6.950  0.00  0.00    +0.175 C 
BRANCH   8   9
ATOM      9  S   LIG    1       25.865 -23.227   7.202  0.00  0.00    -0.162 S 
ATOM     10  H   LIG    1       24.910 -23.372   6.265  0.00  0.00    +0.102 HD
ENDBRANCH   8   9
BRANCH   8  11
ATOM     11  C   LIG    1       26.575 -20.772   8.257  0.00  0.00    +0.319 C 
ATOM     12  O   LIG    1       27.582 -20.088   8.376  0.00  0.00    -0.250 OA
BRANCH  11  13
ATOM     13  O   LIG    1       25.794 -21.052   9.326  0.00  0.00    -0.480 OA
ATOM     14  H   LIG    1       24.958 -21.545   9.143  0.00  0.00    +0.295 HD
ENDBRANCH  11  13
ENDBRANCH   8  11
ENDBRANCH   1   8
TORSDOF 7
ENDMDL
MODEL 6
REMARK VINA RESULT:      -4.4      2.124      4.361
REMARK  Name = *****
REMARK                            x       y       z     vdW  Elec       q    Type
REMARK                         _______ _______ _______ _____ _____    ______ ____
ROOT
ATOM      1  C   LIG    1       29.662 -19.443   7.521  0.00  0.00    +0.175 C 
ENDROOT
BRANCH   1   3
ATOM      2  O   LIG    1       27.996 -20.982   8.352  0.00  0.00    -0.250 OA
ATOM      3  C   LIG    1       28.818 -20.709   7.488  0.00  0.00    +0.319 C 
BRANCH   3   4
ATOM      4  O   LIG    1       29.009 -21.494   6.403  0.00  0.00    -0.480 OA
ATOM      5  H   LIG    1       29.862 -21.316   5.950  0.00  0.00    +0.295 HD
ENDBRANCH   3   4
ENDBRANCH   1   3
BRANCH   1   6
ATOM      6  S   LIG    1       29.519 -18.560   5.911  0.00  0.00    -0.162 S 
ATOM      7  H   LIG    1       28.730 -19.462   5.301  0.00  0.00    +0.102 HD
ENDBRANCH   1   6
BRANCH   1   8
ATOM      8  C   LIG    1       31.090 -19.778   7.990  0.00  0.00    +0.175 C 
BRANCH   8   9
ATOM      9  S   LIG    1       31.143 -21.352   8.952  0.00  0.00    -0.162 S 
ATOM     10  H   LIG    1       32.322 -21.111   9.557  0.00  0.00    +0.102 HD
ENDBRANCH   8   9
BRANCH   8  11
ATOM     11  C   LIG    1       31.741 -18.657   8.796  0.00  0.00    +0.319 C 
ATOM     12  O   LIG    1       31.836 -18.647  10.016  0.00  0.00    -0.250 OA
BRANCH  11  13
ATOM     13  O   LIG    1       32.184 -17.614   8.055  0.00  0.00    -0.480 OA
ATOM     14  H   LIG    1       32.550 -16.844   8.555  0.00  0.00    +0.295 HD
ENDBRANCH  11  13
ENDBRANCH   8  11
ENDBRANCH   1   8
TORSDOF 7
ENDMDL
MODEL 7
REMARK VINA RESULT:      -4.4      2.589      3.423
REMARK  Name = *****
REMARK                            x       y       z     vdW  Elec       q    Type
REMARK                         _______ _______ _______ _____ _____    ______ ____
ROOT
ATOM      1  C   LIG    1       29.856 -20.240   7.131  0.00  0.00    +0.175 C 
ENDROOT
BRANCH   1   3
ATOM      2  O   LIG    1       31.954 -19.162   6.615  0.00  0.00    -0.250 OA
ATOM      3  C   LIG    1       30.741 -19.195   6.467  0.00  0.00    +0.319 C 
BRANCH   3   4
ATOM      4  O   LIG    1       30.090 -18.326   5.660  0.00  0.00    -0.480 OA
ATOM      5  H   LIG    1       30.412 -17.403   5.756  0.00  0.00    +0.295 HD
ENDBRANCH   3   4
ENDBRANCH   1   3
BRANCH   1   6
ATOM      6  S   LIG    1       28.167 -20.178   6.399  0.00  0.00    -0.162 S 
ATOM      7  H   LIG    1       27.560 -20.940   7.326  0.00  0.00    +0.102 HD
ENDBRANCH   1   6
BRANCH   1   8
ATOM      8  C   LIG    1       29.941 -20.103   8.662  0.00  0.00    +0.175 C 
BRANCH   8   9
ATOM      9  S   LIG    1       30.188 -18.349   9.180  0.00  0.00    -0.162 S 
ATOM     10  H   LIG    1       31.303 -18.567   9.902  0.00  0.00    +0.102 HD
ENDBRANCH   8   9
BRANCH   8  11
ATOM     11  C   LIG    1       31.019 -20.984   9.290  0.00  0.00    +0.319 C 
ATOM     12  O   LIG    1       30.813 -22.085   9.781  0.00  0.00    -0.250 OA
BRANCH  11  13
ATOM     13  O   LIG    1       32.255 -20.432   9.313  0.00  0.00    -0.480 OA
ATOM     14  H   LIG    1       32.342 -19.568   9.783  0.00  0.00    +0.295 HD
ENDBRANCH  11  13
ENDBRANCH   8  11
ENDBRANCH   1   8
TORSDOF 7
ENDMDL
MODEL 8
REMARK VINA RESULT:      -4.3      2.603      4.053
REMARK  Name = *****
REMARK                            x       y       z     vdW  Elec       q    Type
REMARK                         _______ _______ _______ _____ _____    ______ ____
ROOT
ATOM      1  C   LIG    1       30.064 -20.610   8.900  0.00  0.00    +0.175 C 
ENDROOT
BRANCH   1   3
ATOM      2  O   LIG    1       30.825 -22.458  10.256  0.00  0.00    -0.250 OA
ATOM      3  C   LIG    1       31.013 -21.734   9.288  0.00  0.00    +0.319 C 
BRANCH   3   4
ATOM      4  O   LIG    1       32.064 -21.906   8.454  0.00  0.00    -0.480 OA
ATOM      5  H   LIG    1       32.129 -21.201   7.774  0.00  0.00    +0.295 HD
ENDBRANCH   3   4
ENDBRANCH   1   3
BRANCH   1   6
ATOM      6  S   LIG    1       28.962 -21.172   7.535  0.00  0.00    -0.162 S 
ATOM      7  H   LIG    1       27.991 -21.685   8.312  0.00  0.00    +0.102 HD
ENDBRANCH   1   6
BRANCH   1   8
ATOM      8  C   LIG    1       30.860 -19.317   8.644  0.00  0.00    +0.175 C 
BRANCH   8   9
ATOM      9  S   LIG    1       30.202 -17.901   9.629  0.00  0.00    -0.162 S 
ATOM     10  H   LIG    1       29.809 -18.633  10.689  0.00  0.00    +0.102 HD
ENDBRANCH   8   9
BRANCH   8  11
ATOM     11  C   LIG    1       30.930 -18.931   7.168  0.00  0.00    +0.319 C 
ATOM     12  O   LIG    1       30.169 -18.145   6.621  0.00  0.00    -0.250 OA
BRANCH  11  13
ATOM     13  O   LIG    1       31.894 -19.570   6.464  0.00  0.00    -0.480 OA
ATOM     14  H   LIG    1       31.595 -20.304   5.875  0.00  0.00    +0.295 HD
ENDBRANCH  11  13
ENDBRANCH   8  11
ENDBRANCH   1   8
TORSDOF 7
ENDMDL
MODEL 9
REMARK VINA RESULT:      -4.3      7.308      8.470
REMARK  Name = *****
REMARK                            x       y       z     vdW  Elec       q    Type
REMARK                         _______ _______ _______ _____ _____    ______ ____
ROOT
ATOM      1  C   LIG    1       24.927 -21.682   5.208  0.00  0.00    +0.175 C 
ENDROOT
BRANCH   1   3
ATOM      2  O   LIG    1       26.007 -20.359   6.915  0.00  0.00    -0.250 OA
ATOM      3  C   LIG    1       25.920 -20.655   5.732  0.00  0.00    +0.319 C 
BRANCH   3   4
ATOM      4  O   LIG    1       26.738 -20.124   4.795  0.00  0.00    -0.480 OA
ATOM      5  H   LIG    1       26.482 -19.210   4.540  0.00  0.00    +0.295 HD
ENDBRANCH   3   4
ENDBRANCH   1   3
BRANCH   1   6
ATOM      6  S   LIG    1       23.393 -20.831   4.645  0.00  0.00    -0.162 S 
ATOM      7  H   LIG    1       23.489 -19.767   5.462  0.00  0.00    +0.102 HD
ENDBRANCH   1   6
BRANCH   1   8
ATOM      8  C   LIG    1       24.741 -22.807   6.243  0.00  0.00    +0.175 C 
BRANCH   8   9
ATOM      9  S   LIG    1       25.005 -24.474   5.498  0.00  0.00    -0.162 S 
ATOM     10  H   LIG    1       26.280 -24.264   5.123  0.00  0.00    +0.102 HD
ENDBRANCH   8   9
BRANCH   8  11
ATOM     11  C   LIG    1       23.387 -22.764   6.948  0.00  0.00    +0.319 C 
ATOM     12  O   LIG    1       23.070 -21.935   7.790  0.00  0.00    -0.250 OA
BRANCH  11  13
ATOM     13  O   LIG    1       22.541 -23.764   6.604  0.00  0.00    -0.480 OA
ATOM     14  H   LIG    1       21.740 -23.504   6.087  0.00  0.00    +0.295 HD
ENDBRANCH  11  13
ENDBRANCH   8  11
ENDBRANCH   1   8
TORSDOF 7
ENDMDL
