MODEL 1
REMARK VINA RESULT:      -8.1      0.000      0.000
REMARK  Name = *****
REMARK                            x       y       z     vdW  Elec       q    Type
REMARK                         _______ _______ _______ _____ _____    ______ ____
ROOT
ATOM      1  C   LIG    1       25.283 -22.036   6.289  0.00  0.00    +0.080 C 
ENDROOT
BRANCH   1   2
ATOM      2  C   LIG    1       25.380 -23.582   6.068  0.00  0.00    -0.030 A 
ATOM      3  C   LIG    1       25.856 -24.466   7.056  0.00  0.00    +0.005 A 
ATOM      4  C   LIG    1       25.949 -25.841   6.819  0.00  0.00    +0.000 A 
ATOM      5  C   LIG    1       25.577 -26.369   5.587  0.00  0.00    +0.000 A 
ATOM      6  C   LIG    1       25.099 -25.524   4.595  0.00  0.00    +0.000 A 
ATOM      7  C   LIG    1       24.989 -24.155   4.840  0.00  0.00    +0.005 A 
ENDBRANCH   1   2
BRANCH   1   8
ATOM      8  C   LIG    1       26.664 -21.340   6.496  0.00  0.00    -0.030 A 
ATOM      9  C   LIG    1       27.596 -21.793   7.451  0.00  0.00    +0.005 A 
ATOM     10  C   LIG    1       28.851 -21.173   7.593  0.00  0.00    +0.000 A 
ATOM     11  C   LIG    1       29.203 -20.088   6.795  0.00  0.00    +0.000 A 
ATOM     12  C   LIG    1       28.317 -19.639   5.830  0.00  0.00    +0.000 A 
ATOM     13  C   LIG    1       27.083 -20.272   5.671  0.00  0.00    +0.005 A 
ENDBRANCH   1   8
BRANCH   1  14
ATOM     14  C   LIG    1       24.365 -21.761   7.577  0.00  0.00    +0.148 C 
ATOM     15  O   LIG    1       24.853 -21.315   8.642  0.00  0.00    -0.296 OA
BRANCH  14  17
ATOM     16  C   LIG    1       22.467 -23.375   6.949  0.00  0.00    +0.012 C 
ATOM     17  C   LIG    1       22.860 -22.010   7.508  0.00  0.00    +0.072 C 
ENDBRANCH  14  17
ENDBRANCH   1  14
BRANCH   1  18
ATOM     18  C   LIG    1       24.431 -21.433   5.091  0.00  0.00    +0.042 C 
BRANCH  18  19
ATOM     19  C   LIG    1       24.018 -19.935   4.914  0.00  0.00    +0.054 C 
ATOM     20  C   LIG    1       22.566 -19.592   5.286  0.00  0.00    +0.024 C 
BRANCH  19  21
ATOM     21  N   LIG    1       24.292 -19.411   3.533  0.00  0.00    -0.306 NA
ATOM     22  C   LIG    1       24.815 -20.410   2.599  0.00  0.00    +0.105 C 
ATOM     23  C   LIG    1       25.148 -18.221   3.517  0.00  0.00    +0.105 C 
ENDBRANCH  19  21
ENDBRANCH  18  19
ENDBRANCH   1  18
TORSDOF 7
ENDMDL
MODEL 2
REMARK VINA RESULT:      -8.0      0.048      1.002
REMARK  Name = *****
REMARK                            x       y       z     vdW  Elec       q    Type
REMARK                         _______ _______ _______ _____ _____    ______ ____
ROOT
ATOM      1  C   LIG    1       25.256 -22.055   6.270  0.00  0.00    +0.080 C 
ENDROOT
BRANCH   1   2
ATOM      2  C   LIG    1       25.364 -23.597   6.024  0.00  0.00    -0.030 A 
ATOM      3  C   LIG    1       25.001 -24.203   4.806  0.00  0.00    +0.005 A 
ATOM      4  C   LIG    1       25.091 -25.587   4.625  0.00  0.00    +0.000 A 
ATOM      5  C   LIG    1       25.540 -26.403   5.659  0.00  0.00    +0.000 A 
ATOM      6  C   LIG    1       25.910 -25.834   6.870  0.00  0.00    +0.000 A 
ATOM      7  C   LIG    1       25.836 -24.452   7.042  0.00  0.00    +0.005 A 
ENDBRANCH   1   2
BRANCH   1   8
ATOM      8  C   LIG    1       26.632 -21.351   6.484  0.00  0.00    -0.030 A 
ATOM      9  C   LIG    1       27.559 -21.796   7.447  0.00  0.00    +0.005 A 
ATOM     10  C   LIG    1       28.809 -21.169   7.596  0.00  0.00    +0.000 A 
ATOM     11  C   LIG    1       29.162 -20.085   6.796  0.00  0.00    +0.000 A 
ATOM     12  C   LIG    1       28.280 -19.644   5.823  0.00  0.00    +0.000 A 
ATOM     13  C   LIG    1       27.051 -20.284   5.659  0.00  0.00    +0.005 A 
ENDBRANCH   1   8
BRANCH   1  14
ATOM     14  C   LIG    1       24.339 -21.808   7.564  0.00  0.00    +0.148 C 
ATOM     15  O   LIG    1       24.826 -21.374   8.635  0.00  0.00    -0.296 OA
BRANCH  14  17
ATOM     16  C   LIG    1       22.454 -23.426   6.909  0.00  0.00    +0.012 C 
ATOM     17  C   LIG    1       22.837 -22.071   7.496  0.00  0.00    +0.072 C 
ENDBRANCH  14  17
ENDBRANCH   1  14
BRANCH   1  18
ATOM     18  C   LIG    1       24.395 -21.441   5.084  0.00  0.00    +0.042 C 
BRANCH  18  19
ATOM     19  C   LIG    1       23.999 -19.937   4.914  0.00  0.00    +0.054 C 
ATOM     20  C   LIG    1       22.554 -19.578   5.296  0.00  0.00    +0.024 C 
BRANCH  19  21
ATOM     21  N   LIG    1       24.270 -19.412   3.533  0.00  0.00    -0.306 NA
ATOM     22  C   LIG    1       24.806 -20.406   2.601  0.00  0.00    +0.105 C 
ATOM     23  C   LIG    1       25.114 -18.213   3.516  0.00  0.00    +0.105 C 
ENDBRANCH  19  21
ENDBRANCH  18  19
ENDBRANCH   1  18
TORSDOF 7
ENDMDL
MODEL 3
REMARK VINA RESULT:      -7.8      1.008      1.541
REMARK  Name = *****
REMARK                            x       y       z     vdW  Elec       q    Type
REMARK                         _______ _______ _______ _____ _____    ______ ____
ROOT
ATOM      1  C   LIG    1       25.279 -21.924   6.141  0.00  0.00    +0.080 C 
ENDROOT
BRANCH   1   2
ATOM      2  C   LIG    1       25.332 -23.483   6.016  0.00  0.00    -0.030 A 
ATOM      3  C   LIG    1       25.809 -24.316   7.046  0.00  0.00    +0.005 A 
ATOM      4  C   LIG    1       25.862 -25.706   6.894  0.00  0.00    +0.000 A 
ATOM      5  C   LIG    1       25.446 -26.299   5.707  0.00  0.00    +0.000 A 
ATOM      6  C   LIG    1       24.966 -25.505   4.675  0.00  0.00    +0.000 A 
ATOM      7  C   LIG    1       24.898 -24.121   4.835  0.00  0.00    +0.005 A 
ENDBRANCH   1   2
BRANCH   1   8
ATOM      8  C   LIG    1       26.680 -21.257   6.304  0.00  0.00    -0.030 A 
ATOM      9  C   LIG    1       27.681 -21.807   7.129  0.00  0.00    +0.005 A 
ATOM     10  C   LIG    1       28.950 -21.208   7.230  0.00  0.00    +0.000 A 
ATOM     11  C   LIG    1       29.249 -20.048   6.520  0.00  0.00    +0.000 A 
ATOM     12  C   LIG    1       28.292 -19.501   5.681  0.00  0.00    +0.000 A 
ATOM     13  C   LIG    1       27.042 -20.111   5.560  0.00  0.00    +0.005 A 
ENDBRANCH   1   8
BRANCH   1  14
ATOM     14  C   LIG    1       24.373 -21.545   7.410  0.00  0.00    +0.148 C 
ATOM     15  O   LIG    1       23.395 -22.252   7.748  0.00  0.00    -0.296 OA
BRANCH  14  17
ATOM     16  C   LIG    1       25.846 -20.534   9.256  0.00  0.00    +0.012 C 
ATOM     17  C   LIG    1       24.717 -20.319   8.253  0.00  0.00    +0.072 C 
ENDBRANCH  14  17
ENDBRANCH   1  14
BRANCH   1  18
ATOM     18  C   LIG    1       24.442 -21.373   4.909  0.00  0.00    +0.042 C 
BRANCH  18  19
ATOM     19  C   LIG    1       23.153 -20.491   4.989  0.00  0.00    +0.054 C 
ATOM     20  C   LIG    1       21.818 -21.244   4.876  0.00  0.00    +0.024 C 
BRANCH  19  21
ATOM     21  N   LIG    1       23.150 -19.365   3.995  0.00  0.00    -0.306 NA
ATOM     22  C   LIG    1       24.481 -18.881   3.624  0.00  0.00    +0.105 C 
ATOM     23  C   LIG    1       22.305 -18.234   4.391  0.00  0.00    +0.105 C 
ENDBRANCH  19  21
ENDBRANCH  18  19
ENDBRANCH   1  18
TORSDOF 7
ENDMDL
MODEL 4
REMARK VINA RESULT:      -7.8      1.797      4.953
REMARK  Name = *****
REMARK                            x       y       z     vdW  Elec       q    Type
REMARK                         _______ _______ _______ _____ _____    ______ ____
ROOT
ATOM      1  C   LIG    1       26.205 -21.533   6.720  0.00  0.00    +0.080 C 
ENDROOT
BRANCH   1   2
ATOM      2  C   LIG    1       27.669 -21.024   6.935  0.00  0.00    -0.030 A 
ATOM      3  C   LIG    1       28.565 -21.635   7.833  0.00  0.00    +0.005 A 
ATOM      4  C   LIG    1       29.861 -21.143   8.017  0.00  0.00    +0.000 A 
ATOM      5  C   LIG    1       30.294 -20.023   7.315  0.00  0.00    +0.000 A 
ATOM      6  C   LIG    1       29.435 -19.401   6.419  0.00  0.00    +0.000 A 
ATOM      7  C   LIG    1       28.149 -19.904   6.224  0.00  0.00    +0.005 A 
ENDBRANCH   1   2
BRANCH   1   8
ATOM      8  C   LIG    1       25.551 -21.032   5.394  0.00  0.00    -0.030 A 
ATOM      9  C   LIG    1       24.585 -21.790   4.703  0.00  0.00    +0.005 A 
ATOM     10  C   LIG    1       23.982 -21.302   3.530  0.00  0.00    +0.000 A 
ATOM     11  C   LIG    1       24.329 -20.054   3.017  0.00  0.00    +0.000 A 
ATOM     12  C   LIG    1       25.256 -19.277   3.691  0.00  0.00    +0.000 A 
ATOM     13  C   LIG    1       25.834 -19.751   4.870  0.00  0.00    +0.005 A 
ENDBRANCH   1   8
BRANCH   1  14
ATOM     14  C   LIG    1       25.307 -21.043   7.958  0.00  0.00    +0.148 C 
ATOM     15  O   LIG    1       25.769 -21.003   9.123  0.00  0.00    -0.296 OA
BRANCH  14  17
ATOM     16  C   LIG    1       22.848 -21.710   7.628  0.00  0.00    +0.012 C 
ATOM     17  C   LIG    1       23.871 -20.582   7.722  0.00  0.00    +0.072 C 
ENDBRANCH  14  17
ENDBRANCH   1  14
BRANCH   1  18
ATOM     18  C   LIG    1       26.219 -23.114   6.875  0.00  0.00    +0.042 C 
BRANCH  18  19
ATOM     19  C   LIG    1       25.342 -24.129   6.070  0.00  0.00    +0.054 C 
ATOM     20  C   LIG    1       23.969 -24.456   6.678  0.00  0.00    +0.024 C 
BRANCH  19  21
ATOM     21  N   LIG    1       26.055 -25.419   5.781  0.00  0.00    -0.306 NA
ATOM     22  C   LIG    1       25.555 -26.136   4.607  0.00  0.00    +0.105 C 
ATOM     23  C   LIG    1       26.112 -26.328   6.930  0.00  0.00    +0.105 C 
ENDBRANCH  19  21
ENDBRANCH  18  19
ENDBRANCH   1  18
TORSDOF 7
ENDMDL
MODEL 5
REMARK VINA RESULT:      -7.6      1.682      5.163
REMARK  Name = *****
REMARK                            x       y       z     vdW  Elec       q    Type
REMARK                         _______ _______ _______ _____ _____    ______ ____
ROOT
ATOM      1  C   LIG    1       25.816 -21.697   6.532  0.00  0.00    +0.080 C 
ENDROOT
BRANCH   1   2
ATOM      2  C   LIG    1       25.202 -20.715   5.480  0.00  0.00    -0.030 A 
ATOM      3  C   LIG    1       25.974 -20.078   4.489  0.00  0.00    +0.005 A 
ATOM      4  C   LIG    1       25.397 -19.189   3.576  0.00  0.00    +0.000 A 
ATOM      5  C   LIG    1       24.036 -18.908   3.632  0.00  0.00    +0.000 A 
ATOM      6  C   LIG    1       23.248 -19.523   4.595  0.00  0.00    +0.000 A 
ATOM      7  C   LIG    1       23.822 -20.423   5.493  0.00  0.00    +0.005 A 
ENDBRANCH   1   2
BRANCH   1   8
ATOM      8  C   LIG    1       25.532 -23.202   6.232  0.00  0.00    -0.030 A 
ATOM      9  C   LIG    1       24.958 -23.628   5.018  0.00  0.00    +0.005 A 
ATOM     10  C   LIG    1       24.747 -24.994   4.755  0.00  0.00    +0.000 A 
ATOM     11  C   LIG    1       25.095 -25.962   5.692  0.00  0.00    +0.000 A 
ATOM     12  C   LIG    1       25.686 -25.573   6.883  0.00  0.00    +0.000 A 
ATOM     13  C   LIG    1       25.920 -24.219   7.133  0.00  0.00    +0.005 A 
ENDBRANCH   1   8
BRANCH   1  14
ATOM     14  C   LIG    1       25.218 -21.334   7.978  0.00  0.00    +0.148 C 
ATOM     15  O   LIG    1       25.958 -21.248   8.986  0.00  0.00    -0.296 OA
BRANCH  14  17
ATOM     16  C   LIG    1       22.815 -22.208   7.733  0.00  0.00    +0.012 C 
ATOM     17  C   LIG    1       23.726 -21.053   8.137  0.00  0.00    +0.072 C 
ENDBRANCH  14  17
ENDBRANCH   1  14
BRANCH   1  18
ATOM     18  C   LIG    1       27.359 -21.347   6.671  0.00  0.00    +0.042 C 
BRANCH  18  19
ATOM     19  C   LIG    1       27.961 -19.947   7.024  0.00  0.00    +0.054 C 
ATOM     20  C   LIG    1       28.660 -19.208   5.872  0.00  0.00    +0.024 C 
BRANCH  19  21
ATOM     21  N   LIG    1       28.896 -19.991   8.199  0.00  0.00    -0.306 NA
ATOM     22  C   LIG    1       29.755 -18.813   8.333  0.00  0.00    +0.105 C 
ATOM     23  C   LIG    1       29.711 -21.207   8.256  0.00  0.00    +0.105 C 
ENDBRANCH  19  21
ENDBRANCH  18  19
ENDBRANCH   1  18
TORSDOF 7
ENDMDL
MODEL 6
REMARK VINA RESULT:      -7.6      1.528      4.899
REMARK  Name = *****
REMARK                            x       y       z     vdW  Elec       q    Type
REMARK                         _______ _______ _______ _____ _____    ______ ____
ROOT
ATOM      1  C   LIG    1       25.329 -21.146   6.483  0.00  0.00    +0.080 C 
ENDROOT
BRANCH   1   2
ATOM      2  C   LIG    1       24.524 -20.317   5.428  0.00  0.00    -0.030 A 
ATOM      3  C   LIG    1       25.106 -19.812   4.249  0.00  0.00    +0.005 A 
ATOM      4  C   LIG    1       24.363 -19.056   3.336  0.00  0.00    +0.000 A 
ATOM      5  C   LIG    1       23.022 -18.779   3.580  0.00  0.00    +0.000 A 
ATOM      6  C   LIG    1       22.419 -19.267   4.731  0.00  0.00    +0.000 A 
ATOM      7  C   LIG    1       23.157 -20.036   5.631  0.00  0.00    +0.005 A 
ENDBRANCH   1   2
BRANCH   1   8
ATOM      8  C   LIG    1       25.429 -22.667   6.148  0.00  0.00    -0.030 A 
ATOM      9  C   LIG    1       25.975 -23.600   7.051  0.00  0.00    +0.005 A 
ATOM     10  C   LIG    1       26.019 -24.971   6.742  0.00  0.00    +0.000 A 
ATOM     11  C   LIG    1       25.528 -25.444   5.528  0.00  0.00    +0.000 A 
ATOM     12  C   LIG    1       24.961 -24.553   4.632  0.00  0.00    +0.000 A 
ATOM     13  C   LIG    1       24.894 -23.195   4.951  0.00  0.00    +0.005 A 
ENDBRANCH   1   8
BRANCH   1  14
ATOM     14  C   LIG    1       24.622 -20.976   7.914  0.00  0.00    +0.148 C 
ATOM     15  O   LIG    1       25.251 -20.536   8.905  0.00  0.00    -0.296 OA
BRANCH  14  17
ATOM     16  C   LIG    1       22.719 -22.633   7.427  0.00  0.00    +0.012 C 
ATOM     17  C   LIG    1       23.143 -21.320   8.078  0.00  0.00    +0.072 C 
ENDBRANCH  14  17
ENDBRANCH   1  14
BRANCH   1  18
ATOM     18  C   LIG    1       26.737 -20.436   6.678  0.00  0.00    +0.042 C 
BRANCH  18  19
ATOM     19  C   LIG    1       28.119 -21.152   6.833  0.00  0.00    +0.054 C 
ATOM     20  C   LIG    1       28.483 -21.605   8.256  0.00  0.00    +0.024 C 
BRANCH  19  21
ATOM     21  N   LIG    1       29.261 -20.346   6.283  0.00  0.00    -0.306 NA
ATOM     22  C   LIG    1       30.312 -20.044   7.255  0.00  0.00    +0.105 C 
ATOM     23  C   LIG    1       28.840 -19.115   5.609  0.00  0.00    +0.105 C 
ENDBRANCH  19  21
ENDBRANCH  18  19
ENDBRANCH   1  18
TORSDOF 7
ENDMDL
MODEL 7
REMARK VINA RESULT:      -7.2      1.564      4.957
REMARK  Name = *****
REMARK                            x       y       z     vdW  Elec       q    Type
REMARK                         _______ _______ _______ _____ _____    ______ ____
ROOT
ATOM      1  C   LIG    1       25.086 -21.688   6.141  0.00  0.00    +0.080 C 
ENDROOT
BRANCH   1   2
ATOM      2  C   LIG    1       26.545 -21.222   6.461  0.00  0.00    -0.030 A 
ATOM      3  C   LIG    1       27.353 -21.851   7.428  0.00  0.00    +0.005 A 
ATOM      4  C   LIG    1       28.647 -21.396   7.704  0.00  0.00    +0.000 A 
ATOM      5  C   LIG    1       29.165 -20.297   7.028  0.00  0.00    +0.000 A 
ATOM      6  C   LIG    1       28.395 -19.659   6.066  0.00  0.00    +0.000 A 
ATOM      7  C   LIG    1       27.112 -20.125   5.778  0.00  0.00    +0.005 A 
ENDBRANCH   1   2
BRANCH   1   8
ATOM      8  C   LIG    1       24.264 -20.658   5.306  0.00  0.00    -0.030 A 
ATOM      9  C   LIG    1       23.108 -20.033   5.814  0.00  0.00    +0.005 A 
ATOM     10  C   LIG    1       22.404 -19.079   5.057  0.00  0.00    +0.000 A 
ATOM     11  C   LIG    1       22.830 -18.731   3.778  0.00  0.00    +0.000 A 
ATOM     12  C   LIG    1       23.978 -19.311   3.263  0.00  0.00    +0.000 A 
ATOM     13  C   LIG    1       24.690 -20.237   4.026  0.00  0.00    +0.005 A 
ENDBRANCH   1   8
BRANCH   1  14
ATOM     14  C   LIG    1       24.322 -21.961   7.526  0.00  0.00    +0.148 C 
ATOM     15  O   LIG    1       24.944 -22.024   8.613  0.00  0.00    -0.296 OA
BRANCH  14  17
ATOM     16  C   LIG    1       22.287 -23.389   6.880  0.00  0.00    +0.012 C 
ATOM     17  C   LIG    1       22.804 -22.115   7.541  0.00  0.00    +0.072 C 
ENDBRANCH  14  17
ENDBRANCH   1  14
BRANCH   1  18
ATOM     18  C   LIG    1       25.178 -23.129   5.478  0.00  0.00    +0.042 C 
BRANCH  18  19
ATOM     19  C   LIG    1       25.027 -24.498   6.219  0.00  0.00    +0.054 C 
ATOM     20  C   LIG    1       26.269 -24.989   6.978  0.00  0.00    +0.024 C 
BRANCH  19  21
ATOM     21  N   LIG    1       24.551 -25.602   5.319  0.00  0.00    -0.306 NA
ATOM     22  C   LIG    1       24.137 -26.819   6.020  0.00  0.00    +0.105 C 
ATOM     23  C   LIG    1       25.499 -25.942   4.255  0.00  0.00    +0.105 C 
ENDBRANCH  19  21
ENDBRANCH  18  19
ENDBRANCH   1  18
TORSDOF 7
ENDMDL
MODEL 8
REMARK VINA RESULT:      -6.3      6.530     10.302
REMARK  Name = *****
REMARK                            x       y       z     vdW  Elec       q    Type
REMARK                         _______ _______ _______ _____ _____    ______ ____
ROOT
ATOM      1  C   LIG    1       25.354 -30.347   8.494  0.00  0.00    +0.080 C 
ENDROOT
BRANCH   1   2
ATOM      2  C   LIG    1       25.110 -29.205   7.453  0.00  0.00    -0.030 A 
ATOM      3  C   LIG    1       24.272 -29.361   6.332  0.00  0.00    +0.005 A 
ATOM      4  C   LIG    1       24.091 -28.326   5.409  0.00  0.00    +0.000 A 
ATOM      5  C   LIG    1       24.746 -27.111   5.577  0.00  0.00    +0.000 A 
ATOM      6  C   LIG    1       25.575 -26.925   6.675  0.00  0.00    +0.000 A 
ATOM      7  C   LIG    1       25.740 -27.952   7.604  0.00  0.00    +0.005 A 
ENDBRANCH   1   2
BRANCH   1   8
ATOM      8  C   LIG    1       26.206 -31.532   7.942  0.00  0.00    -0.030 A 
ATOM      9  C   LIG    1       26.312 -31.800   6.563  0.00  0.00    +0.005 A 
ATOM     10  C   LIG    1       27.117 -32.851   6.086  0.00  0.00    +0.000 A 
ATOM     11  C   LIG    1       27.826 -33.661   6.969  0.00  0.00    +0.000 A 
ATOM     12  C   LIG    1       27.761 -33.404   8.328  0.00  0.00    +0.000 A 
ATOM     13  C   LIG    1       26.983 -32.344   8.798  0.00  0.00    +0.005 A 
ENDBRANCH   1   8
BRANCH   1  14
ATOM     14  C   LIG    1       23.931 -30.911   8.977  0.00  0.00    +0.148 C 
ATOM     15  O   LIG    1       22.975 -30.140   9.227  0.00  0.00    -0.296 OA
BRANCH  14  17
ATOM     16  C   LIG    1       22.942 -33.048   7.950  0.00  0.00    +0.012 C 
ATOM     17  C   LIG    1       23.712 -32.417   9.106  0.00  0.00    +0.072 C 
ENDBRANCH  14  17
ENDBRANCH   1  14
BRANCH   1  18
ATOM     18  C   LIG    1       25.953 -29.680   9.806  0.00  0.00    +0.042 C 
BRANCH  18  19
ATOM     19  C   LIG    1       25.712 -30.155  11.277  0.00  0.00    +0.054 C 
ATOM     20  C   LIG    1       24.738 -29.302  12.105  0.00  0.00    +0.024 C 
BRANCH  19  21
ATOM     21  N   LIG    1       26.985 -30.317  12.057  0.00  0.00    -0.306 NA
ATOM     22  C   LIG    1       26.837 -30.134  13.502  0.00  0.00    +0.105 C 
ATOM     23  C   LIG    1       28.086 -29.485  11.563  0.00  0.00    +0.105 C 
ENDBRANCH  19  21
ENDBRANCH  18  19
ENDBRANCH   1  18
TORSDOF 7
ENDMDL
MODEL 9
REMARK VINA RESULT:      -6.3      1.594      4.779
REMARK  Name = *****
REMARK                            x       y       z     vdW  Elec       q    Type
REMARK                         _______ _______ _______ _____ _____    ______ ____
ROOT
ATOM      1  C   LIG    1       25.648 -21.306   6.127  0.00  0.00    +0.080 C 
ENDROOT
BRANCH   1   2
ATOM      2  C   LIG    1       26.971 -20.757   6.757  0.00  0.00    -0.030 A 
ATOM      3  C   LIG    1       27.054 -20.314   8.091  0.00  0.00    +0.005 A 
ATOM      4  C   LIG    1       28.248 -19.810   8.618  0.00  0.00    +0.000 A 
ATOM      5  C   LIG    1       29.387 -19.729   7.824  0.00  0.00    +0.000 A 
ATOM      6  C   LIG    1       29.338 -20.163   6.507  0.00  0.00    +0.000 A 
ATOM      7  C   LIG    1       28.151 -20.682   5.989  0.00  0.00    +0.005 A 
ENDBRANCH   1   2
BRANCH   1   8
ATOM      8  C   LIG    1       25.582 -22.863   6.053  0.00  0.00    -0.030 A 
ATOM      9  C   LIG    1       26.024 -23.683   7.110  0.00  0.00    +0.005 A 
ATOM     10  C   LIG    1       25.919 -25.084   7.036  0.00  0.00    +0.000 A 
ATOM     11  C   LIG    1       25.380 -25.699   5.910  0.00  0.00    +0.000 A 
ATOM     12  C   LIG    1       24.913 -24.917   4.867  0.00  0.00    +0.000 A 
ATOM     13  C   LIG    1       24.993 -23.525   4.952  0.00  0.00    +0.005 A 
ENDBRANCH   1   8
BRANCH   1  14
ATOM     14  C   LIG    1       25.504 -20.710   4.643  0.00  0.00    +0.148 C 
ATOM     15  O   LIG    1       24.825 -21.297   3.767  0.00  0.00    -0.296 OA
BRANCH  14  17
ATOM     16  C   LIG    1       25.332 -18.466   3.404  0.00  0.00    +0.012 C 
ATOM     17  C   LIG    1       26.172 -19.384   4.287  0.00  0.00    +0.072 C 
ENDBRANCH  14  17
ENDBRANCH   1  14
BRANCH   1  18
ATOM     18  C   LIG    1       24.434 -20.646   6.911  0.00  0.00    +0.042 C 
BRANCH  18  19
ATOM     19  C   LIG    1       22.914 -20.907   6.648  0.00  0.00    +0.054 C 
ATOM     20  C   LIG    1       22.419 -22.334   6.934  0.00  0.00    +0.024 C 
BRANCH  19  21
ATOM     21  N   LIG    1       22.484 -20.522   5.261  0.00  0.00    -0.306 NA
ATOM     22  C   LIG    1       22.233 -19.092   5.080  0.00  0.00    +0.105 C 
ATOM     23  C   LIG    1       21.340 -21.293   4.767  0.00  0.00    +0.105 C 
ENDBRANCH  19  21
ENDBRANCH  18  19
ENDBRANCH   1  18
TORSDOF 7
ENDMDL
