MODEL 1
REMARK VINA RESULT:      -5.2      0.000      0.000
REMARK  Name = *****
REMARK                            x       y       z     vdW  Elec       q    Type
REMARK                         _______ _______ _______ _____ _____    ______ ____
ROOT
ATOM      1  C   LIG    1       22.457 -16.254   4.974  0.00  0.00    -0.000 C 
ENDROOT
BRANCH   1   2
ATOM      2  C   LIG    1       23.090 -15.185   4.065  0.00  0.00    -0.000 C 
BRANCH   2   3
ATOM      3  C   LIG    1       24.325 -14.392   4.608  0.00  0.00    -0.000 C 
BRANCH   3   4
ATOM      4  C   LIG    1       24.156 -12.866   4.653  0.00  0.00    -0.000 C 
BRANCH   4   5
ATOM      5  C   LIG    1       23.707 -12.176   3.334  0.00  0.00    -0.000 C 
BRANCH   5   6
ATOM      6  C   LIG    1       24.390 -12.696   2.061  0.00  0.00    -0.000 C 
BRANCH   6   7
ATOM      7  C   LIG    1       25.929 -12.661   2.122  0.00  0.00    -0.000 C 
BRANCH   7   8
ATOM      8  C   LIG    1       26.638 -14.028   2.208  0.00  0.00    +0.000 C 
BRANCH   8   9
ATOM      9  C   LIG    1       27.777 -14.182   3.228  0.00  0.00    +0.002 C 
BRANCH   9  10
ATOM     10  C   LIG    1       27.839 -13.230   4.417  0.00  0.00    +0.028 C 
BRANCH  10  11
ATOM     11  C   LIG    1       29.068 -12.344   4.508  0.00  0.00    +0.156 C 
BRANCH  11  12
ATOM     12  O   LIG    1       29.106 -11.772   5.824  0.00  0.00    -0.395 OA
ATOM     13  H   LIG    1       29.404 -10.890   5.754  0.00  0.00    +0.209 HD
ENDBRANCH  11  12
ENDBRANCH  10  11
ENDBRANCH   9  10
ENDBRANCH   8   9
ENDBRANCH   7   8
ENDBRANCH   6   7
ENDBRANCH   5   6
ENDBRANCH   4   5
ENDBRANCH   3   4
ENDBRANCH   2   3
ENDBRANCH   1   2
BRANCH   1  14
ATOM     14  C   LIG    1       22.262 -17.677   4.359  0.00  0.00    -0.000 C 
BRANCH  14  15
ATOM     15  C   LIG    1       22.098 -18.989   5.175  0.00  0.00    -0.000 C 
BRANCH  15  16
ATOM     16  C   LIG    1       22.493 -20.368   4.595  0.00  0.00    -0.000 C 
BRANCH  16  17
ATOM     17  C   LIG    1       22.759 -21.373   5.774  0.00  0.00    -0.000 C 
BRANCH  17  18
ATOM     18  C   LIG    1       23.378 -20.791   7.062  0.00  0.00    -0.000 C 
BRANCH  18  19
ATOM     19  C   LIG    1       24.911 -20.482   7.051  0.00  0.00    -0.000 C 
BRANCH  19  20
ATOM     20  C   LIG    1       25.871 -21.126   5.998  0.00  0.00    -0.000 C 
BRANCH  20  21
ATOM     21  C   LIG    1       26.361 -20.193   4.861  0.00  0.00    -0.000 C 
BRANCH  21  22
ATOM     22  C   LIG    1       25.349 -19.878   3.724  0.00  0.00    -0.000 C 
BRANCH  22  24
ATOM     23  C   LIG    1       26.127 -17.346   3.623  0.00  0.00    +0.004 C 
ATOM     24  C   LIG    1       25.592 -18.580   2.898  0.00  0.00    -0.003 C 
ENDBRANCH  22  24
ENDBRANCH  21  22
ENDBRANCH  20  21
ENDBRANCH  19  20
ENDBRANCH  18  19
ENDBRANCH  17  18
ENDBRANCH  16  17
ENDBRANCH  15  16
ENDBRANCH  14  15
ENDBRANCH   1  14
TORSDOF 21
ENDMDL
MODEL 2
REMARK VINA RESULT:      -4.6      2.089      2.813
REMARK  Name = *****
REMARK                            x       y       z     vdW  Elec       q    Type
REMARK                         _______ _______ _______ _____ _____    ______ ____
ROOT
ATOM      1  C   LIG    1       22.577 -15.584   5.041  0.00  0.00    -0.000 C 
ENDROOT
BRANCH   1   2
ATOM      2  C   LIG    1       23.670 -14.728   4.377  0.00  0.00    -0.000 C 
BRANCH   2   3
ATOM      3  C   LIG    1       23.775 -13.221   4.783  0.00  0.00    -0.000 C 
BRANCH   3   4
ATOM      4  C   LIG    1       24.026 -12.246   3.622  0.00  0.00    -0.000 C 
BRANCH   4   5
ATOM      5  C   LIG    1       24.359 -12.877   2.241  0.00  0.00    -0.000 C 
BRANCH   5   6
ATOM      6  C   LIG    1       25.847 -12.867   1.862  0.00  0.00    -0.000 C 
BRANCH   6   7
ATOM      7  C   LIG    1       26.786 -12.546   3.040  0.00  0.00    -0.000 C 
BRANCH   7   8
ATOM      8  C   LIG    1       27.790 -13.650   3.431  0.00  0.00    +0.000 C 
BRANCH   8   9
ATOM      9  C   LIG    1       27.266 -14.836   4.255  0.00  0.00    +0.002 C 
BRANCH   9  10
ATOM     10  C   LIG    1       27.216 -16.218   3.613  0.00  0.00    +0.028 C 
BRANCH  10  11
ATOM     11  C   LIG    1       25.836 -16.818   3.410  0.00  0.00    +0.156 C 
BRANCH  11  12
ATOM     12  O   LIG    1       26.000 -18.123   2.837  0.00  0.00    -0.395 OA
ATOM     13  H   LIG    1       25.792 -18.075   1.927  0.00  0.00    +0.209 HD
ENDBRANCH  11  12
ENDBRANCH  10  11
ENDBRANCH   9  10
ENDBRANCH   8   9
ENDBRANCH   7   8
ENDBRANCH   6   7
ENDBRANCH   5   6
ENDBRANCH   4   5
ENDBRANCH   3   4
ENDBRANCH   2   3
ENDBRANCH   1   2
BRANCH   1  14
ATOM     14  C   LIG    1       22.118 -16.864   4.272  0.00  0.00    -0.000 C 
BRANCH  14  15
ATOM     15  C   LIG    1       22.200 -18.316   4.820  0.00  0.00    -0.000 C 
BRANCH  15  16
ATOM     16  C   LIG    1       22.495 -19.523   3.899  0.00  0.00    -0.000 C 
BRANCH  16  17
ATOM     17  C   LIG    1       23.599 -20.426   4.561  0.00  0.00    -0.000 C 
BRANCH  17  18
ATOM     18  C   LIG    1       23.163 -21.306   5.751  0.00  0.00    -0.000 C 
BRANCH  18  19
ATOM     19  C   LIG    1       24.031 -21.247   7.050  0.00  0.00    -0.000 C 
BRANCH  19  20
ATOM     20  C   LIG    1       25.567 -21.541   7.025  0.00  0.00    -0.000 C 
BRANCH  20  21
ATOM     21  C   LIG    1       26.492 -20.318   6.799  0.00  0.00    -0.000 C 
BRANCH  21  22
ATOM     22  C   LIG    1       27.764 -20.548   5.934  0.00  0.00    -0.000 C 
BRANCH  22  24
ATOM     23  C   LIG    1       29.299 -18.391   5.810  0.00  0.00    +0.004 C 
ATOM     24  C   LIG    1       29.057 -19.794   6.363  0.00  0.00    -0.003 C 
ENDBRANCH  22  24
ENDBRANCH  21  22
ENDBRANCH  20  21
ENDBRANCH  19  20
ENDBRANCH  18  19
ENDBRANCH  17  18
ENDBRANCH  16  17
ENDBRANCH  15  16
ENDBRANCH  14  15
ENDBRANCH   1  14
TORSDOF 21
ENDMDL
MODEL 3
REMARK VINA RESULT:      -4.2      1.981      6.961
REMARK  Name = *****
REMARK                            x       y       z     vdW  Elec       q    Type
REMARK                         _______ _______ _______ _____ _____    ______ ____
ROOT
ATOM      1  C   LIG    1       22.725 -18.782   4.289  0.00  0.00    -0.000 C 
ENDROOT
BRANCH   1   2
ATOM      2  C   LIG    1       22.255 -20.037   5.045  0.00  0.00    -0.000 C 
BRANCH   2   3
ATOM      3  C   LIG    1       23.250 -21.238   5.173  0.00  0.00    -0.000 C 
BRANCH   3   4
ATOM      4  C   LIG    1       23.736 -21.537   6.600  0.00  0.00    -0.000 C 
BRANCH   4   5
ATOM      5  C   LIG    1       25.031 -20.811   7.062  0.00  0.00    -0.000 C 
BRANCH   5   6
ATOM      6  C   LIG    1       26.333 -21.350   6.452  0.00  0.00    -0.000 C 
BRANCH   6   7
ATOM      7  C   LIG    1       27.604 -20.689   7.016  0.00  0.00    -0.000 C 
BRANCH   7   8
ATOM      8  C   LIG    1       28.637 -20.204   5.977  0.00  0.00    +0.000 C 
BRANCH   8   9
ATOM      9  C   LIG    1       28.703 -18.698   5.682  0.00  0.00    +0.002 C 
BRANCH   9  10
ATOM     10  C   LIG    1       28.037 -18.161   4.420  0.00  0.00    +0.028 C 
BRANCH  10  11
ATOM     11  C   LIG    1       26.593 -18.573   4.193  0.00  0.00    +0.156 C 
BRANCH  11  12
ATOM     12  O   LIG    1       26.123 -17.906   3.013  0.00  0.00    -0.395 OA
ATOM     13  H   LIG    1       26.802 -17.346   2.700  0.00  0.00    +0.209 HD
ENDBRANCH  11  12
ENDBRANCH  10  11
ENDBRANCH   9  10
ENDBRANCH   8   9
ENDBRANCH   7   8
ENDBRANCH   6   7
ENDBRANCH   5   6
ENDBRANCH   4   5
ENDBRANCH   3   4
ENDBRANCH   2   3
ENDBRANCH   1   2
BRANCH   1  14
ATOM     14  C   LIG    1       22.582 -17.416   5.032  0.00  0.00    -0.000 C 
BRANCH  14  15
ATOM     15  C   LIG    1       22.397 -16.036   4.341  0.00  0.00    -0.000 C 
BRANCH  15  16
ATOM     16  C   LIG    1       23.602 -15.164   3.917  0.00  0.00    -0.000 C 
BRANCH  16  17
ATOM     17  C   LIG    1       23.788 -13.994   4.949  0.00  0.00    -0.000 C 
BRANCH  17  18
ATOM     18  C   LIG    1       24.126 -12.602   4.376  0.00  0.00    -0.000 C 
BRANCH  18  19
ATOM     19  C   LIG    1       24.407 -12.502   2.841  0.00  0.00    -0.000 C 
BRANCH  19  20
ATOM     20  C   LIG    1       25.848 -12.672   2.256  0.00  0.00    -0.000 C 
BRANCH  20  21
ATOM     21  C   LIG    1       26.421 -14.112   2.264  0.00  0.00    -0.000 C 
BRANCH  21  22
ATOM     22  C   LIG    1       27.299 -14.514   3.483  0.00  0.00    -0.000 C 
BRANCH  22  24
ATOM     23  C   LIG    1       27.334 -13.623   5.979  0.00  0.00    +0.004 C 
ATOM     24  C   LIG    1       27.650 -13.391   4.503  0.00  0.00    -0.003 C 
ENDBRANCH  22  24
ENDBRANCH  21  22
ENDBRANCH  20  21
ENDBRANCH  19  20
ENDBRANCH  18  19
ENDBRANCH  17  18
ENDBRANCH  16  17
ENDBRANCH  15  16
ENDBRANCH  14  15
ENDBRANCH   1  14
TORSDOF 21
ENDMDL
MODEL 4
REMARK VINA RESULT:      -4.1      0.968      5.058
REMARK  Name = *****
REMARK                            x       y       z     vdW  Elec       q    Type
REMARK                         _______ _______ _______ _____ _____    ______ ____
ROOT
ATOM      1  C   LIG    1       24.422 -20.950   6.978  0.00  0.00    -0.000 C 
ENDROOT
BRANCH   1   2
ATOM      2  C   LIG    1       25.501 -20.969   5.880  0.00  0.00    -0.000 C 
BRANCH   2   3
ATOM      3  C   LIG    1       25.051 -21.248   4.408  0.00  0.00    -0.000 C 
BRANCH   3   4
ATOM      4  C   LIG    1       25.286 -20.095   3.421  0.00  0.00    -0.000 C 
BRANCH   4   5
ATOM      5  C   LIG    1       26.114 -18.887   3.944  0.00  0.00    -0.000 C 
BRANCH   5   6
ATOM      6  C   LIG    1       25.841 -17.554   3.232  0.00  0.00    -0.000 C 
BRANCH   6   7
ATOM      7  C   LIG    1       26.832 -16.436   3.607  0.00  0.00    -0.000 C 
BRANCH   7   8
ATOM      8  C   LIG    1       26.484 -15.021   3.099  0.00  0.00    +0.000 C 
BRANCH   8   9
ATOM      9  C   LIG    1       27.646 -14.073   2.766  0.00  0.00    +0.002 C 
BRANCH   9  10
ATOM     10  C   LIG    1       28.492 -13.511   3.903  0.00  0.00    +0.028 C 
BRANCH  10  11
ATOM     11  C   LIG    1       27.783 -12.590   4.880  0.00  0.00    +0.156 C 
BRANCH  11  12
ATOM     12  O   LIG    1       27.295 -13.388   5.968  0.00  0.00    -0.395 OA
ATOM     13  H   LIG    1       28.022 -13.635   6.501  0.00  0.00    +0.209 HD
ENDBRANCH  11  12
ENDBRANCH  10  11
ENDBRANCH   9  10
ENDBRANCH   8   9
ENDBRANCH   7   8
ENDBRANCH   6   7
ENDBRANCH   5   6
ENDBRANCH   4   5
ENDBRANCH   3   4
ENDBRANCH   2   3
ENDBRANCH   1   2
BRANCH   1  14
ATOM     14  C   LIG    1       23.019 -20.394   6.578  0.00  0.00    -0.000 C 
BRANCH  14  15
ATOM     15  C   LIG    1       22.296 -20.671   5.230  0.00  0.00    -0.000 C 
BRANCH  15  16
ATOM     16  C   LIG    1       21.421 -19.602   4.534  0.00  0.00    -0.000 C 
BRANCH  16  17
ATOM     17  C   LIG    1       22.323 -18.386   4.110  0.00  0.00    -0.000 C 
BRANCH  17  18
ATOM     18  C   LIG    1       22.600 -17.313   5.183  0.00  0.00    -0.000 C 
BRANCH  18  19
ATOM     19  C   LIG    1       22.257 -15.829   4.826  0.00  0.00    -0.000 C 
BRANCH  19  20
ATOM     20  C   LIG    1       23.239 -14.936   3.998  0.00  0.00    -0.000 C 
BRANCH  20  21
ATOM     21  C   LIG    1       24.166 -14.001   4.818  0.00  0.00    -0.000 C 
BRANCH  21  22
ATOM     22  C   LIG    1       24.067 -12.478   4.523  0.00  0.00    -0.000 C 
BRANCH  22  24
ATOM     23  C   LIG    1       24.872 -12.009   2.041  0.00  0.00    +0.004 C 
ATOM     24  C   LIG    1       23.735 -12.060   3.060  0.00  0.00    -0.003 C 
ENDBRANCH  22  24
ENDBRANCH  21  22
ENDBRANCH  20  21
ENDBRANCH  19  20
ENDBRANCH  18  19
ENDBRANCH  17  18
ENDBRANCH  16  17
ENDBRANCH  15  16
ENDBRANCH  14  15
ENDBRANCH   1  14
TORSDOF 21
ENDMDL
MODEL 5
REMARK VINA RESULT:      -4.0      1.492      2.811
REMARK  Name = *****
REMARK                            x       y       z     vdW  Elec       q    Type
REMARK                         _______ _______ _______ _____ _____    ______ ____
ROOT
ATOM      1  C   LIG    1       26.466 -17.043   3.418  0.00  0.00    -0.000 C 
ENDROOT
BRANCH   1   2
ATOM      2  C   LIG    1       26.982 -15.595   3.350  0.00  0.00    -0.000 C 
BRANCH   2   3
ATOM      3  C   LIG    1       26.623 -14.741   2.089  0.00  0.00    -0.000 C 
BRANCH   3   4
ATOM      4  C   LIG    1       26.013 -13.362   2.383  0.00  0.00    -0.000 C 
BRANCH   4   5
ATOM      5  C   LIG    1       24.476 -13.224   2.193  0.00  0.00    -0.000 C 
BRANCH   5   6
ATOM      6  C   LIG    1       23.663 -13.160   3.494  0.00  0.00    -0.000 C 
BRANCH   6   7
ATOM      7  C   LIG    1       24.461 -12.633   4.701  0.00  0.00    -0.000 C 
BRANCH   7   8
ATOM      8  C   LIG    1       25.494 -13.604   5.310  0.00  0.00    +0.000 C 
BRANCH   8   9
ATOM      9  C   LIG    1       26.712 -12.999   6.025  0.00  0.00    +0.002 C 
BRANCH   9  10
ATOM     10  C   LIG    1       28.108 -13.310   5.498  0.00  0.00    +0.028 C 
BRANCH  10  11
ATOM     11  C   LIG    1       28.679 -12.334   4.485  0.00  0.00    +0.156 C 
BRANCH  11  12
ATOM     12  O   LIG    1       29.375 -13.091   3.484  0.00  0.00    -0.395 OA
ATOM     13  H   LIG    1       28.830 -13.803   3.221  0.00  0.00    +0.209 HD
ENDBRANCH  11  12
ENDBRANCH  10  11
ENDBRANCH   9  10
ENDBRANCH   8   9
ENDBRANCH   7   8
ENDBRANCH   6   7
ENDBRANCH   5   6
ENDBRANCH   4   5
ENDBRANCH   3   4
ENDBRANCH   2   3
ENDBRANCH   1   2
BRANCH   1  14
ATOM     14  C   LIG    1       24.917 -17.239   3.458  0.00  0.00    -0.000 C 
BRANCH  14  15
ATOM     15  C   LIG    1       24.192 -18.587   3.725  0.00  0.00    -0.000 C 
BRANCH  15  16
ATOM     16  C   LIG    1       22.676 -18.656   4.028  0.00  0.00    -0.000 C 
BRANCH  16  17
ATOM     17  C   LIG    1       22.361 -19.981   4.812  0.00  0.00    -0.000 C 
BRANCH  17  18
ATOM     18  C   LIG    1       22.974 -20.123   6.221  0.00  0.00    -0.000 C 
BRANCH  18  19
ATOM     19  C   LIG    1       23.647 -21.488   6.582  0.00  0.00    -0.000 C 
BRANCH  19  20
ATOM     20  C   LIG    1       25.134 -21.569   7.061  0.00  0.00    -0.000 C 
BRANCH  20  21
ATOM     21  C   LIG    1       26.214 -21.381   5.965  0.00  0.00    -0.000 C 
BRANCH  21  22
ATOM     22  C   LIG    1       27.001 -20.040   5.975  0.00  0.00    -0.000 C 
BRANCH  22  24
ATOM     23  C   LIG    1       29.409 -18.956   6.204  0.00  0.00    +0.004 C 
ATOM     24  C   LIG    1       28.431 -20.063   6.591  0.00  0.00    -0.003 C 
ENDBRANCH  22  24
ENDBRANCH  21  22
ENDBRANCH  20  21
ENDBRANCH  19  20
ENDBRANCH  18  19
ENDBRANCH  17  18
ENDBRANCH  16  17
ENDBRANCH  15  16
ENDBRANCH  14  15
ENDBRANCH   1  14
TORSDOF 21
ENDMDL
MODEL 6
REMARK VINA RESULT:      -3.9      1.422      1.929
REMARK  Name = *****
REMARK                            x       y       z     vdW  Elec       q    Type
REMARK                         _______ _______ _______ _____ _____    ______ ____
ROOT
ATOM      1  C   LIG    1       22.200 -17.535   4.213  0.00  0.00    -0.000 C 
ENDROOT
BRANCH   1   2
ATOM      2  C   LIG    1       23.107 -16.315   3.973  0.00  0.00    -0.000 C 
BRANCH   2   3
ATOM      3  C   LIG    1       22.838 -15.020   4.810  0.00  0.00    -0.000 C 
BRANCH   3   4
ATOM      4  C   LIG    1       24.085 -14.192   5.156  0.00  0.00    -0.000 C 
BRANCH   4   5
ATOM      5  C   LIG    1       24.083 -12.705   4.701  0.00  0.00    -0.000 C 
BRANCH   5   6
ATOM      6  C   LIG    1       23.860 -12.484   3.198  0.00  0.00    -0.000 C 
BRANCH   6   7
ATOM      7  C   LIG    1       24.690 -13.422   2.302  0.00  0.00    -0.000 C 
BRANCH   7   8
ATOM      8  C   LIG    1       26.166 -13.028   2.088  0.00  0.00    +0.000 C 
BRANCH   8   9
ATOM      9  C   LIG    1       27.240 -13.852   2.814  0.00  0.00    +0.002 C 
BRANCH   9  10
ATOM     10  C   LIG    1       27.766 -13.363   4.159  0.00  0.00    +0.028 C 
BRANCH  10  11
ATOM     11  C   LIG    1       28.893 -12.347   4.113  0.00  0.00    +0.156 C 
BRANCH  11  12
ATOM     12  O   LIG    1       29.056 -11.805   5.432  0.00  0.00    -0.395 OA
ATOM     13  H   LIG    1       29.106 -10.875   5.365  0.00  0.00    +0.209 HD
ENDBRANCH  11  12
ENDBRANCH  10  11
ENDBRANCH   9  10
ENDBRANCH   8   9
ENDBRANCH   7   8
ENDBRANCH   6   7
ENDBRANCH   5   6
ENDBRANCH   4   5
ENDBRANCH   3   4
ENDBRANCH   2   3
ENDBRANCH   1   2
BRANCH   1  14
ATOM     14  C   LIG    1       22.904 -18.925   4.329  0.00  0.00    -0.000 C 
BRANCH  14  15
ATOM     15  C   LIG    1       23.000 -19.774   5.627  0.00  0.00    -0.000 C 
BRANCH  15  16
ATOM     16  C   LIG    1       23.654 -21.177   5.641  0.00  0.00    -0.000 C 
BRANCH  16  17
ATOM     17  C   LIG    1       24.489 -21.349   6.962  0.00  0.00    -0.000 C 
BRANCH  17  18
ATOM     18  C   LIG    1       25.812 -20.561   7.060  0.00  0.00    -0.000 C 
BRANCH  18  19
ATOM     19  C   LIG    1       27.144 -21.362   6.889  0.00  0.00    -0.000 C 
BRANCH  19  20
ATOM     20  C   LIG    1       28.334 -20.804   6.040  0.00  0.00    -0.000 C 
BRANCH  20  21
ATOM     21  C   LIG    1       28.998 -19.506   6.569  0.00  0.00    -0.000 C 
BRANCH  21  22
ATOM     22  C   LIG    1       29.009 -18.281   5.611  0.00  0.00    -0.000 C 
BRANCH  22  24
ATOM     23  C   LIG    1       27.430 -16.848   4.037  0.00  0.00    +0.004 C 
ATOM     24  C   LIG    1       27.891 -18.219   4.529  0.00  0.00    -0.003 C 
ENDBRANCH  22  24
ENDBRANCH  21  22
ENDBRANCH  20  21
ENDBRANCH  19  20
ENDBRANCH  18  19
ENDBRANCH  17  18
ENDBRANCH  16  17
ENDBRANCH  15  16
ENDBRANCH  14  15
ENDBRANCH   1  14
TORSDOF 21
ENDMDL
MODEL 7
REMARK VINA RESULT:      -3.8      2.082      3.521
REMARK  Name = *****
REMARK                            x       y       z     vdW  Elec       q    Type
REMARK                         _______ _______ _______ _____ _____    ______ ____
ROOT
ATOM      1  C   LIG    1       23.789 -14.138   3.642  0.00  0.00    -0.000 C 
ENDROOT
BRANCH   1   2
ATOM      2  C   LIG    1       23.800 -12.713   4.225  0.00  0.00    -0.000 C 
BRANCH   2   3
ATOM      3  C   LIG    1       25.018 -12.288   5.112  0.00  0.00    -0.000 C 
BRANCH   3   4
ATOM      4  C   LIG    1       25.744 -13.441   5.821  0.00  0.00    -0.000 C 
BRANCH   4   5
ATOM      5  C   LIG    1       27.296 -13.357   5.877  0.00  0.00    -0.000 C 
BRANCH   5   6
ATOM      6  C   LIG    1       27.952 -12.643   4.686  0.00  0.00    -0.000 C 
BRANCH   6   7
ATOM      7  C   LIG    1       28.303 -13.580   3.515  0.00  0.00    -0.000 C 
BRANCH   7   8
ATOM      8  C   LIG    1       27.132 -13.996   2.602  0.00  0.00    +0.000 C 
BRANCH   8   9
ATOM      9  C   LIG    1       26.490 -15.371   2.841  0.00  0.00    +0.002 C 
BRANCH   9  10
ATOM     10  C   LIG    1       27.226 -16.393   3.700  0.00  0.00    +0.028 C 
BRANCH  10  11
ATOM     11  C   LIG    1       26.569 -17.754   3.841  0.00  0.00    +0.156 C 
BRANCH  11  12
ATOM     12  O   LIG    1       25.977 -18.094   2.579  0.00  0.00    -0.395 OA
ATOM     13  H   LIG    1       25.357 -17.431   2.355  0.00  0.00    +0.209 HD
ENDBRANCH  11  12
ENDBRANCH  10  11
ENDBRANCH   9  10
ENDBRANCH   8   9
ENDBRANCH   7   8
ENDBRANCH   6   7
ENDBRANCH   5   6
ENDBRANCH   4   5
ENDBRANCH   3   4
ENDBRANCH   2   3
ENDBRANCH   1   2
BRANCH   1  14
ATOM     14  C   LIG    1       23.053 -15.234   4.476  0.00  0.00    -0.000 C 
BRANCH  14  15
ATOM     15  C   LIG    1       23.185 -16.767   4.255  0.00  0.00    -0.000 C 
BRANCH  15  16
ATOM     16  C   LIG    1       22.045 -17.748   4.616  0.00  0.00    -0.000 C 
BRANCH  16  17
ATOM     17  C   LIG    1       22.663 -19.124   5.059  0.00  0.00    -0.000 C 
BRANCH  17  18
ATOM     18  C   LIG    1       23.203 -20.040   3.941  0.00  0.00    -0.000 C 
BRANCH  18  19
ATOM     19  C   LIG    1       24.623 -20.665   4.141  0.00  0.00    -0.000 C 
BRANCH  19  20
ATOM     20  C   LIG    1       25.059 -21.292   5.506  0.00  0.00    -0.000 C 
BRANCH  20  21
ATOM     21  C   LIG    1       25.694 -20.319   6.532  0.00  0.00    -0.000 C 
BRANCH  21  22
ATOM     22  C   LIG    1       27.131 -20.653   7.023  0.00  0.00    -0.000 C 
BRANCH  22  24
ATOM     23  C   LIG    1       29.041 -19.154   5.959  0.00  0.00    +0.004 C 
ATOM     24  C   LIG    1       28.288 -20.482   5.994  0.00  0.00    -0.003 C 
ENDBRANCH  22  24
ENDBRANCH  21  22
ENDBRANCH  20  21
ENDBRANCH  19  20
ENDBRANCH  18  19
ENDBRANCH  17  18
ENDBRANCH  16  17
ENDBRANCH  15  16
ENDBRANCH  14  15
ENDBRANCH   1  14
TORSDOF 21
ENDMDL
MODEL 8
REMARK VINA RESULT:      -3.6      2.512      4.153
REMARK  Name = *****
REMARK                            x       y       z     vdW  Elec       q    Type
REMARK                         _______ _______ _______ _____ _____    ______ ____
ROOT
ATOM      1  C   LIG    1       23.332 -14.255   3.518  0.00  0.00    -0.000 C 
ENDROOT
BRANCH   1   2
ATOM      2  C   LIG    1       24.228 -13.015   3.682  0.00  0.00    -0.000 C 
BRANCH   2   3
ATOM      3  C   LIG    1       25.325 -12.748   2.598  0.00  0.00    -0.000 C 
BRANCH   3   4
ATOM      4  C   LIG    1       26.206 -13.957   2.247  0.00  0.00    -0.000 C 
BRANCH   4   5
ATOM      5  C   LIG    1       27.603 -14.022   2.927  0.00  0.00    -0.000 C 
BRANCH   5   6
ATOM      6  C   LIG    1       27.635 -14.747   4.280  0.00  0.00    -0.000 C 
BRANCH   6   7
ATOM      7  C   LIG    1       27.621 -16.282   4.165  0.00  0.00    -0.000 C 
BRANCH   7   8
ATOM      8  C   LIG    1       28.812 -17.024   4.807  0.00  0.00    +0.000 C 
BRANCH   8   9
ATOM      9  C   LIG    1       28.609 -18.492   5.210  0.00  0.00    +0.002 C 
BRANCH   9  10
ATOM     10  C   LIG    1       29.449 -19.071   6.343  0.00  0.00    +0.028 C 
BRANCH  10  11
ATOM     11  C   LIG    1       29.276 -20.554   6.620  0.00  0.00    +0.156 C 
BRANCH  11  12
ATOM     12  O   LIG    1       27.926 -20.911   6.293  0.00  0.00    -0.395 OA
ATOM     13  H   LIG    1       27.818 -21.827   6.442  0.00  0.00    +0.209 HD
ENDBRANCH  11  12
ENDBRANCH  10  11
ENDBRANCH   9  10
ENDBRANCH   8   9
ENDBRANCH   7   8
ENDBRANCH   6   7
ENDBRANCH   5   6
ENDBRANCH   4   5
ENDBRANCH   3   4
ENDBRANCH   2   3
ENDBRANCH   1   2
BRANCH   1  14
ATOM     14  C   LIG    1       23.101 -15.133   4.790  0.00  0.00    -0.000 C 
BRANCH  14  15
ATOM     15  C   LIG    1       22.252 -16.433   4.838  0.00  0.00    -0.000 C 
BRANCH  15  16
ATOM     16  C   LIG    1       22.640 -17.695   4.032  0.00  0.00    -0.000 C 
BRANCH  16  17
ATOM     17  C   LIG    1       21.532 -18.795   4.221  0.00  0.00    -0.000 C 
BRANCH  17  18
ATOM     18  C   LIG    1       21.954 -20.098   4.930  0.00  0.00    -0.000 C 
BRANCH  18  19
ATOM     19  C   LIG    1       22.678 -19.967   6.311  0.00  0.00    -0.000 C 
BRANCH  19  20
ATOM     20  C   LIG    1       23.754 -21.003   6.774  0.00  0.00    -0.000 C 
BRANCH  20  21
ATOM     21  C   LIG    1       25.033 -21.093   5.902  0.00  0.00    -0.000 C 
BRANCH  21  22
ATOM     22  C   LIG    1       24.851 -21.566   4.432  0.00  0.00    -0.000 C 
BRANCH  22  24
ATOM     23  C   LIG    1       25.439 -19.093   3.683  0.00  0.00    +0.004 C 
ATOM     24  C   LIG    1       24.883 -20.470   3.327  0.00  0.00    -0.003 C 
ENDBRANCH  22  24
ENDBRANCH  21  22
ENDBRANCH  20  21
ENDBRANCH  19  20
ENDBRANCH  18  19
ENDBRANCH  17  18
ENDBRANCH  16  17
ENDBRANCH  15  16
ENDBRANCH  14  15
ENDBRANCH   1  14
TORSDOF 21
ENDMDL
MODEL 9
REMARK VINA RESULT:      -3.6      1.679      2.646
REMARK  Name = *****
REMARK                            x       y       z     vdW  Elec       q    Type
REMARK                         _______ _______ _______ _____ _____    ______ ____
ROOT
ATOM      1  C   LIG    1       23.197 -17.884   3.488  0.00  0.00    -0.000 C 
ENDROOT
BRANCH   1   2
ATOM      2  C   LIG    1       24.632 -18.036   4.021  0.00  0.00    -0.000 C 
BRANCH   2   3
ATOM      3  C   LIG    1       25.813 -17.575   3.103  0.00  0.00    -0.000 C 
BRANCH   3   4
ATOM      4  C   LIG    1       25.997 -16.054   2.988  0.00  0.00    -0.000 C 
BRANCH   4   5
ATOM      5  C   LIG    1       25.190 -15.177   3.986  0.00  0.00    -0.000 C 
BRANCH   5   6
ATOM      6  C   LIG    1       24.454 -13.985   3.357  0.00  0.00    -0.000 C 
BRANCH   6   7
ATOM      7  C   LIG    1       24.823 -12.626   3.981  0.00  0.00    -0.000 C 
BRANCH   7   8
ATOM      8  C   LIG    1       25.586 -12.678   5.321  0.00  0.00    +0.000 C 
BRANCH   8   9
ATOM      9  C   LIG    1       27.014 -13.245   5.311  0.00  0.00    +0.002 C 
BRANCH   9  10
ATOM     10  C   LIG    1       27.905 -12.987   4.101  0.00  0.00    +0.028 C 
BRANCH  10  11
ATOM     11  C   LIG    1       29.036 -11.994   4.297  0.00  0.00    +0.156 C 
BRANCH  11  12
ATOM     12  O   LIG    1       29.262 -11.851   5.706  0.00  0.00    -0.395 OA
ATOM     13  H   LIG    1       29.959 -11.243   5.834  0.00  0.00    +0.209 HD
ENDBRANCH  11  12
ENDBRANCH  10  11
ENDBRANCH   9  10
ENDBRANCH   8   9
ENDBRANCH   7   8
ENDBRANCH   6   7
ENDBRANCH   5   6
ENDBRANCH   4   5
ENDBRANCH   3   4
ENDBRANCH   2   3
ENDBRANCH   1   2
BRANCH   1  14
ATOM     14  C   LIG    1       22.037 -18.232   4.476  0.00  0.00    -0.000 C 
BRANCH  14  15
ATOM     15  C   LIG    1       21.546 -19.668   4.810  0.00  0.00    -0.000 C 
BRANCH  15  16
ATOM     16  C   LIG    1       22.533 -20.830   5.073  0.00  0.00    -0.000 C 
BRANCH  16  17
ATOM     17  C   LIG    1       23.212 -20.629   6.476  0.00  0.00    -0.000 C 
BRANCH  17  18
ATOM     18  C   LIG    1       24.437 -21.511   6.793  0.00  0.00    -0.000 C 
BRANCH  18  19
ATOM     19  C   LIG    1       25.798 -20.788   7.062  0.00  0.00    -0.000 C 
BRANCH  19  20
ATOM     20  C   LIG    1       27.155 -21.566   7.060  0.00  0.00    -0.000 C 
BRANCH  20  21
ATOM     21  C   LIG    1       28.304 -20.931   6.235  0.00  0.00    -0.000 C 
BRANCH  21  22
ATOM     22  C   LIG    1       29.228 -19.924   6.975  0.00  0.00    -0.000 C 
BRANCH  22  24
ATOM     23  C   LIG    1       28.561 -18.141   5.130  0.00  0.00    +0.004 C 
ATOM     24  C   LIG    1       29.475 -18.550   6.284  0.00  0.00    -0.003 C 
ENDBRANCH  22  24
ENDBRANCH  21  22
ENDBRANCH  20  21
ENDBRANCH  19  20
ENDBRANCH  18  19
ENDBRANCH  17  18
ENDBRANCH  16  17
ENDBRANCH  15  16
ENDBRANCH  14  15
ENDBRANCH   1  14
TORSDOF 21
ENDMDL
