MODEL 1
REMARK VINA RESULT:      -4.7      0.000      0.000
REMARK  Name = *****
REMARK                            x       y       z     vdW  Elec       q    Type
REMARK                         _______ _______ _______ _____ _____    ______ ____
ROOT
ATOM      1  C   LIG    1       23.493 -21.571   7.062  0.00  0.00    +0.155 C 
ATOM      2  N   LIG    1       24.080 -20.784   5.996  0.00  0.00    -0.280 N 
ATOM      3  C   LIG    1       23.238 -20.247   5.018  0.00  0.00    +0.333 C 
ATOM      4  O   LIG    1       22.017 -20.430   5.047  0.00  0.00    -0.246 OA
ATOM      5  N   LIG    1       23.839 -19.488   3.993  0.00  0.00    -0.262 N 
ATOM      6  C   LIG    1       22.950 -18.946   2.985  0.00  0.00    +0.157 C 
ATOM      7  C   LIG    1       25.205 -19.223   3.875  0.00  0.00    +0.282 C 
ATOM      8  O   LIG    1       25.722 -18.558   2.983  0.00  0.00    -0.265 OA
ATOM      9  C   LIG    1       25.965 -19.811   4.915  0.00  0.00    +0.150 A 
ATOM     10  N   LIG    1       27.307 -19.788   5.152  0.00  0.00    -0.327 N 
ATOM     11  H   LIG    1       28.014 -19.324   4.596  0.00  0.00    +0.168 HD
ATOM     12  C   LIG    1       27.518 -20.519   6.292  0.00  0.00    +0.178 A 
ATOM     13 BR   LIG    1       29.197 -20.804   7.056  0.00  0.00    -0.008 Br
ATOM     14  N   LIG    1       26.391 -20.996   6.782  0.00  0.00    -0.203 NA
ATOM     15  C   LIG    1       25.432 -20.552   5.922  0.00  0.00    +0.169 A 
ENDROOT
TORSDOF 0
ENDMDL
MODEL 2
REMARK VINA RESULT:      -2.6      3.511      4.797
REMARK  Name = *****
REMARK                            x       y       z     vdW  Elec       q    Type
REMARK                         _______ _______ _______ _____ _____    ______ ____
ROOT
ATOM      1  C   LIG    1       24.455 -19.244   3.556  0.00  0.00    +0.155 C 
ATOM      2  N   LIG    1       25.768 -18.927   4.081  0.00  0.00    -0.280 N 
ATOM      3  C   LIG    1       26.446 -19.900   4.822  0.00  0.00    +0.333 C 
ATOM      4  O   LIG    1       25.952 -21.011   5.033  0.00  0.00    -0.246 OA
ATOM      5  N   LIG    1       27.721 -19.560   5.321  0.00  0.00    -0.262 N 
ATOM      6  C   LIG    1       28.405 -20.580   6.091  0.00  0.00    +0.157 C 
ATOM      7  C   LIG    1       28.365 -18.335   5.134  0.00  0.00    +0.282 C 
ATOM      8  O   LIG    1       29.475 -18.046   5.568  0.00  0.00    -0.265 OA
ATOM      9  C   LIG    1       27.592 -17.425   4.372  0.00  0.00    +0.150 A 
ATOM     10  N   LIG    1       27.862 -16.148   3.980  0.00  0.00    -0.327 N 
ATOM     11  H   LIG    1       28.699 -15.616   4.178  0.00  0.00    +0.168 HD
ATOM     12  C   LIG    1       26.775 -15.720   3.262  0.00  0.00    +0.178 A 
ATOM     13 BR   LIG    1       26.632 -14.025   2.494  0.00  0.00    -0.008 Br
ATOM     14  N   LIG    1       25.845 -16.650   3.181  0.00  0.00    -0.203 NA
ATOM     15  C   LIG    1       26.360 -17.705   3.872  0.00  0.00    +0.169 A 
ENDROOT
TORSDOF 0
ENDMDL
MODEL 3
REMARK VINA RESULT:      -2.4      2.959      4.894
REMARK  Name = *****
REMARK                            x       y       z     vdW  Elec       q    Type
REMARK                         _______ _______ _______ _____ _____    ______ ____
ROOT
ATOM      1  C   LIG    1       26.121 -17.508   3.294  0.00  0.00    +0.155 C 
ATOM      2  N   LIG    1       26.375 -18.572   4.244  0.00  0.00    -0.280 N 
ATOM      3  C   LIG    1       27.658 -18.692   4.789  0.00  0.00    +0.333 C 
ATOM      4  O   LIG    1       28.565 -17.914   4.478  0.00  0.00    -0.246 OA
ATOM      5  N   LIG    1       27.874 -19.738   5.709  0.00  0.00    -0.262 N 
ATOM      6  C   LIG    1       29.211 -19.848   6.258  0.00  0.00    +0.157 C 
ATOM      7  C   LIG    1       26.914 -20.663   6.126  0.00  0.00    +0.282 C 
ATOM      8  O   LIG    1       27.107 -21.570   6.929  0.00  0.00    -0.265 OA
ATOM      9  C   LIG    1       25.654 -20.452   5.514  0.00  0.00    +0.150 A 
ATOM     10  N   LIG    1       24.480 -21.130   5.652  0.00  0.00    -0.327 N 
ATOM     11  H   LIG    1       24.308 -21.933   6.242  0.00  0.00    +0.168 HD
ATOM     12  C   LIG    1       23.571 -20.512   4.833  0.00  0.00    +0.178 A 
ATOM     13 BR   LIG    1       21.795 -21.054   4.646  0.00  0.00    -0.008 Br
ATOM     14  N   LIG    1       24.105 -19.491   4.193  0.00  0.00    -0.203 NA
ATOM     15  C   LIG    1       25.398 -19.460   4.622  0.00  0.00    +0.169 A 
ENDROOT
TORSDOF 0
ENDMDL
MODEL 4
REMARK VINA RESULT:      -2.1      2.808      4.139
REMARK  Name = *****
REMARK                            x       y       z     vdW  Elec       q    Type
REMARK                         _______ _______ _______ _____ _____    ______ ____
ROOT
ATOM      1  C   LIG    1       26.746 -21.572   7.060  0.00  0.00    +0.155 C 
ATOM      2  N   LIG    1       26.571 -20.552   6.046  0.00  0.00    -0.280 N 
ATOM      3  C   LIG    1       27.650 -19.714   5.745  0.00  0.00    +0.333 C 
ATOM      4  O   LIG    1       28.736 -19.829   6.321  0.00  0.00    -0.246 OA
ATOM      5  N   LIG    1       27.448 -18.730   4.755  0.00  0.00    -0.262 N 
ATOM      6  C   LIG    1       28.576 -17.869   4.462  0.00  0.00    +0.157 C 
ATOM      7  C   LIG    1       26.262 -18.524   4.047  0.00  0.00    +0.282 C 
ATOM      8  O   LIG    1       26.093 -17.669   3.184  0.00  0.00    -0.265 OA
ATOM      9  C   LIG    1       25.237 -19.424   4.428  0.00  0.00    +0.150 A 
ATOM     10  N   LIG    1       23.954 -19.544   3.983  0.00  0.00    -0.327 N 
ATOM     11  H   LIG    1       23.504 -18.984   3.271  0.00  0.00    +0.168 HD
ATOM     12  C   LIG    1       23.389 -20.575   4.687  0.00  0.00    +0.178 A 
ATOM     13 BR   LIG    1       21.629 -21.155   4.460  0.00  0.00    -0.008 Br
ATOM     14  N   LIG    1       24.239 -21.106   5.544  0.00  0.00    -0.203 NA
ATOM     15  C   LIG    1       25.383 -20.386   5.377  0.00  0.00    +0.169 A 
ENDROOT
TORSDOF 0
ENDMDL
