MODEL 1
REMARK VINA RESULT:      -8.2      0.000      0.000
REMARK  Name = *****
REMARK                            x       y       z     vdW  Elec       q    Type
REMARK                         _______ _______ _______ _____ _____    ______ ____
ROOT
ATOM      1  C   LIG    1       25.745 -20.651   8.815  0.00  0.00    +0.044 C 
ATOM      2  C   LIG    1       26.684 -20.778   7.641  0.00  0.00    -0.050 C 
ATOM      3  C   LIG    1       27.846 -20.090   7.648  0.00  0.00    +0.003 C 
ENDROOT
BRANCH   3   4
ATOM      4  C   LIG    1       28.851 -20.117   6.617  0.00  0.00    +0.001 C 
ATOM      5  C   LIG    1       30.145 -19.768   6.764  0.00  0.00    +0.003 C 
BRANCH   5   6
ATOM      6  C   LIG    1       30.812 -19.434   8.005  0.00  0.00    -0.052 C 
ATOM      7  C   LIG    1       31.153 -20.370   8.915  0.00  0.00    +0.004 C 
ATOM      8  C   LIG    1       31.078 -17.970   8.242  0.00  0.00    +0.043 C 
BRANCH   7   9
ATOM      9  C   LIG    1       30.921 -21.841   8.817  0.00  0.00    +0.183 C 
BRANCH   9  10
ATOM     10  O   LIG    1       32.180 -22.488   8.744  0.00  0.00    -0.391 OA
ATOM     11  H   LIG    1       32.002 -23.377   8.390  0.00  0.00    +0.210 HD
ENDBRANCH   9  10
ENDBRANCH   7   9
ENDBRANCH   5   6
ENDBRANCH   3   4
BRANCH   2  12
ATOM     12  C   LIG    1       26.351 -21.770   6.631  0.00  0.00    +0.003 C 
ATOM     13  C   LIG    1       25.429 -21.717   5.648  0.00  0.00    +0.004 C 
BRANCH  13  14
ATOM     14  C   LIG    1       24.552 -20.596   5.318  0.00  0.00    -0.043 C 
ATOM     15  C   LIG    1       24.953 -19.724   4.096  0.00  0.00    -0.010 C 
ATOM     16  C   LIG    1       26.262 -18.933   4.342  0.00  0.00    +0.016 C 
ATOM     17  C   LIG    1       25.175 -20.613   2.853  0.00  0.00    +0.016 C 
ATOM     18  C   LIG    1       23.869 -18.658   3.748  0.00  0.00    +0.011 C 
ATOM     19  C   LIG    1       22.464 -19.113   4.101  0.00  0.00    +0.005 C 
ATOM     20  C   LIG    1       22.384 -19.372   5.597  0.00  0.00    +0.031 C 
ATOM     21  C   LIG    1       23.429 -20.360   6.045  0.00  0.00    -0.069 C 
ATOM     22  C   LIG    1       23.063 -21.053   7.332  0.00  0.00    +0.039 C 
ENDBRANCH  13  14
ENDBRANCH   2  12
TORSDOF 6
ENDMDL
MODEL 2
REMARK VINA RESULT:      -8.2      1.782      3.154
REMARK  Name = *****
REMARK                            x       y       z     vdW  Elec       q    Type
REMARK                         _______ _______ _______ _____ _____    ______ ____
ROOT
ATOM      1  C   LIG    1       25.345 -20.326   8.086  0.00  0.00    +0.044 C 
ATOM      2  C   LIG    1       26.630 -20.653   7.366  0.00  0.00    -0.050 C 
ATOM      3  C   LIG    1       27.723 -20.986   8.087  0.00  0.00    +0.003 C 
ENDROOT
BRANCH   3   4
ATOM      4  C   LIG    1       29.012 -21.339   7.551  0.00  0.00    +0.001 C 
ATOM      5  C   LIG    1       29.919 -20.481   7.043  0.00  0.00    +0.003 C 
BRANCH   5   6
ATOM      6  C   LIG    1       29.844 -19.035   7.064  0.00  0.00    -0.052 C 
ATOM      7  C   LIG    1       30.219 -18.308   8.137  0.00  0.00    +0.004 C 
ATOM      8  C   LIG    1       29.290 -18.381   5.825  0.00  0.00    +0.043 C 
BRANCH   7   9
ATOM      9  C   LIG    1       30.753 -18.830   9.430  0.00  0.00    +0.183 C 
BRANCH   9  10
ATOM     10  O   LIG    1       32.116 -19.172   9.245  0.00  0.00    -0.391 OA
ATOM     11  H   LIG    1       32.615 -18.627   9.879  0.00  0.00    +0.210 HD
ENDBRANCH   9  10
ENDBRANCH   7   9
ENDBRANCH   5   6
ENDBRANCH   3   4
BRANCH   2  12
ATOM     12  C   LIG    1       26.570 -20.748   5.916  0.00  0.00    +0.003 C 
ATOM     13  C   LIG    1       25.686 -21.401   5.135  0.00  0.00    +0.004 C 
BRANCH  13  14
ATOM     14  C   LIG    1       24.510 -22.151   5.567  0.00  0.00    -0.043 C 
ATOM     15  C   LIG    1       24.722 -23.650   5.921  0.00  0.00    -0.010 C 
ATOM     16  C   LIG    1       25.099 -24.499   4.682  0.00  0.00    +0.016 C 
ATOM     17  C   LIG    1       25.860 -23.801   6.953  0.00  0.00    +0.016 C 
ATOM     18  C   LIG    1       23.436 -24.305   6.512  0.00  0.00    +0.011 C 
ATOM     19  C   LIG    1       22.572 -23.318   7.277  0.00  0.00    +0.005 C 
ATOM     20  C   LIG    1       22.126 -22.211   6.334  0.00  0.00    +0.031 C 
ATOM     21  C   LIG    1       23.301 -21.542   5.671  0.00  0.00    -0.069 C 
ATOM     22  C   LIG    1       22.985 -20.148   5.192  0.00  0.00    +0.039 C 
ENDBRANCH  13  14
ENDBRANCH   2  12
TORSDOF 6
ENDMDL
MODEL 3
REMARK VINA RESULT:      -8.1      1.214      1.714
REMARK  Name = *****
REMARK                            x       y       z     vdW  Elec       q    Type
REMARK                         _______ _______ _______ _____ _____    ______ ____
ROOT
ATOM      1  C   LIG    1       25.712 -20.695   8.847  0.00  0.00    +0.044 C 
ATOM      2  C   LIG    1       26.696 -20.772   7.706  0.00  0.00    -0.050 C 
ATOM      3  C   LIG    1       27.837 -20.052   7.769  0.00  0.00    +0.003 C 
ENDROOT
BRANCH   3   4
ATOM      4  C   LIG    1       28.878 -20.031   6.775  0.00  0.00    +0.001 C 
ATOM      5  C   LIG    1       30.205 -20.026   7.019  0.00  0.00    +0.003 C 
BRANCH   5   6
ATOM      6  C   LIG    1       30.844 -20.182   8.308  0.00  0.00    -0.052 C 
ATOM      7  C   LIG    1       31.235 -19.126   9.052  0.00  0.00    +0.004 C 
ATOM      8  C   LIG    1       31.082 -21.598   8.765  0.00  0.00    +0.043 C 
BRANCH   7   9
ATOM      9  C   LIG    1       31.088 -17.682   8.704  0.00  0.00    +0.183 C 
BRANCH   9  10
ATOM     10  O   LIG    1       32.364 -17.176   8.350  0.00  0.00    -0.391 OA
ATOM     11  H   LIG    1       32.566 -16.483   9.004  0.00  0.00    +0.210 HD
ENDBRANCH   9  10
ENDBRANCH   7   9
ENDBRANCH   5   6
ENDBRANCH   3   4
BRANCH   2  12
ATOM     12  C   LIG    1       26.427 -21.752   6.666  0.00  0.00    +0.003 C 
ATOM     13  C   LIG    1       25.523 -21.715   5.666  0.00  0.00    +0.004 C 
BRANCH  13  14
ATOM     14  C   LIG    1       24.603 -20.627   5.345  0.00  0.00    -0.043 C 
ATOM     15  C   LIG    1       24.982 -19.715   4.145  0.00  0.00    -0.010 C 
ATOM     16  C   LIG    1       26.253 -18.873   4.426  0.00  0.00    +0.016 C 
ATOM     17  C   LIG    1       25.258 -20.568   2.889  0.00  0.00    +0.016 C 
ATOM     18  C   LIG    1       23.858 -18.690   3.803  0.00  0.00    +0.011 C 
ATOM     19  C   LIG    1       22.469 -19.211   4.127  0.00  0.00    +0.005 C 
ATOM     20  C   LIG    1       22.381 -19.503   5.617  0.00  0.00    +0.031 C 
ATOM     21  C   LIG    1       23.462 -20.453   6.060  0.00  0.00    -0.069 C 
ATOM     22  C   LIG    1       23.109 -21.187   7.329  0.00  0.00    +0.039 C 
ENDBRANCH  13  14
ENDBRANCH   2  12
TORSDOF 6
ENDMDL
MODEL 4
REMARK VINA RESULT:      -8.0      1.585      2.996
REMARK  Name = *****
REMARK                            x       y       z     vdW  Elec       q    Type
REMARK                         _______ _______ _______ _____ _____    ______ ____
ROOT
ATOM      1  C   LIG    1       25.915 -20.341   9.044  0.00  0.00    +0.044 C 
ATOM      2  C   LIG    1       26.964 -20.626   7.998  0.00  0.00    -0.050 C 
ATOM      3  C   LIG    1       27.967 -19.741   7.812  0.00  0.00    +0.003 C 
ENDROOT
BRANCH   3   4
ATOM      4  C   LIG    1       29.048 -19.876   6.870  0.00  0.00    +0.001 C 
ATOM      5  C   LIG    1       30.356 -19.982   7.179  0.00  0.00    +0.003 C 
BRANCH   5   6
ATOM      6  C   LIG    1       30.920 -20.124   8.505  0.00  0.00    -0.052 C 
ATOM      7  C   LIG    1       31.267 -19.060   9.259  0.00  0.00    +0.004 C 
ATOM      8  C   LIG    1       31.131 -21.535   8.990  0.00  0.00    +0.043 C 
BRANCH   7   9
ATOM      9  C   LIG    1       31.141 -17.620   8.887  0.00  0.00    +0.183 C 
BRANCH   9  10
ATOM     10  O   LIG    1       32.363 -17.200   8.304  0.00  0.00    -0.391 OA
ATOM     11  H   LIG    1       32.129 -16.836   7.431  0.00  0.00    +0.210 HD
ENDBRANCH   9  10
ENDBRANCH   7   9
ENDBRANCH   5   6
ENDBRANCH   3   4
BRANCH   2  12
ATOM     12  C   LIG    1       26.921 -21.930   7.356  0.00  0.00    +0.003 C 
ATOM     13  C   LIG    1       26.033 -22.420   6.468  0.00  0.00    +0.004 C 
BRANCH  13  14
ATOM     14  C   LIG    1       24.895 -21.721   5.878  0.00  0.00    -0.043 C 
ATOM     15  C   LIG    1       23.478 -22.195   6.307  0.00  0.00    -0.010 C 
ATOM     16  C   LIG    1       23.160 -23.625   5.804  0.00  0.00    +0.016 C 
ATOM     17  C   LIG    1       23.359 -22.207   7.846  0.00  0.00    +0.016 C 
ATOM     18  C   LIG    1       22.351 -21.281   5.736  0.00  0.00    +0.011 C 
ATOM     19  C   LIG    1       22.796 -19.840   5.557  0.00  0.00    +0.005 C 
ATOM     20  C   LIG    1       23.958 -19.796   4.577  0.00  0.00    +0.031 C 
ATOM     21  C   LIG    1       25.088 -20.689   5.016  0.00  0.00    -0.069 C 
ATOM     22  C   LIG    1       26.416 -20.282   4.430  0.00  0.00    +0.039 C 
ENDBRANCH  13  14
ENDBRANCH   2  12
TORSDOF 6
ENDMDL
MODEL 5
REMARK VINA RESULT:      -7.8      1.470      2.889
REMARK  Name = *****
REMARK                            x       y       z     vdW  Elec       q    Type
REMARK                         _______ _______ _______ _____ _____    ______ ____
ROOT
ATOM      1  C   LIG    1       26.059 -20.550   8.463  0.00  0.00    +0.044 C 
ATOM      2  C   LIG    1       27.069 -20.317   7.366  0.00  0.00    -0.050 C 
ATOM      3  C   LIG    1       28.382 -20.270   7.678  0.00  0.00    +0.003 C 
ENDROOT
BRANCH   3   4
ATOM      4  C   LIG    1       29.464 -20.074   6.748  0.00  0.00    +0.001 C 
ATOM      5  C   LIG    1       30.686 -19.590   7.048  0.00  0.00    +0.003 C 
BRANCH   5   6
ATOM      6  C   LIG    1       31.200 -19.307   8.372  0.00  0.00    -0.052 C 
ATOM      7  C   LIG    1       31.527 -20.284   9.243  0.00  0.00    +0.004 C 
ATOM      8  C   LIG    1       31.320 -17.851   8.740  0.00  0.00    +0.043 C 
BRANCH   7   9
ATOM      9  C   LIG    1       31.428 -21.756   9.017  0.00  0.00    +0.183 C 
BRANCH   9  10
ATOM     10  O   LIG    1       30.799 -22.339  10.146  0.00  0.00    -0.391 OA
ATOM     11  H   LIG    1       31.285 -23.164  10.325  0.00  0.00    +0.210 HD
ENDBRANCH   9  10
ENDBRANCH   7   9
ENDBRANCH   5   6
ENDBRANCH   3   4
BRANCH   2  12
ATOM     12  C   LIG    1       26.573 -20.317   5.999  0.00  0.00    +0.003 C 
ATOM     13  C   LIG    1       25.570 -21.032   5.450  0.00  0.00    +0.004 C 
BRANCH  13  14
ATOM     14  C   LIG    1       24.679 -21.970   6.128  0.00  0.00    -0.043 C 
ATOM     15  C   LIG    1       23.220 -21.499   6.382  0.00  0.00    -0.010 C 
ATOM     16  C   LIG    1       23.148 -20.331   7.397  0.00  0.00    +0.016 C 
ATOM     17  C   LIG    1       22.579 -21.010   5.065  0.00  0.00    +0.016 C 
ATOM     18  C   LIG    1       22.326 -22.632   6.971  0.00  0.00    +0.011 C 
ATOM     19  C   LIG    1       22.752 -24.015   6.511  0.00  0.00    +0.005 C 
ATOM     20  C   LIG    1       24.178 -24.276   6.970  0.00  0.00    +0.031 C 
ATOM     21  C   LIG    1       25.119 -23.203   6.490  0.00  0.00    -0.069 C 
ATOM     22  C   LIG    1       26.552 -23.669   6.428  0.00  0.00    +0.039 C 
ENDBRANCH  13  14
ENDBRANCH   2  12
TORSDOF 6
ENDMDL
MODEL 6
REMARK VINA RESULT:      -7.2      4.530      6.263
REMARK  Name = *****
REMARK                            x       y       z     vdW  Elec       q    Type
REMARK                         _______ _______ _______ _____ _____    ______ ____
ROOT
ATOM      1  C   LIG    1       23.091 -23.713   6.826  0.00  0.00    +0.044 C 
ATOM      2  C   LIG    1       24.309 -24.360   6.214  0.00  0.00    -0.050 C 
ATOM      3  C   LIG    1       24.162 -25.489   5.488  0.00  0.00    +0.003 C 
ENDROOT
BRANCH   3   4
ATOM      4  C   LIG    1       25.218 -26.213   4.830  0.00  0.00    +0.001 C 
ATOM      5  C   LIG    1       25.929 -27.230   5.359  0.00  0.00    +0.003 C 
BRANCH   5   6
ATOM      6  C   LIG    1       25.683 -27.885   6.626  0.00  0.00    -0.052 C 
ATOM      7  C   LIG    1       25.010 -29.051   6.717  0.00  0.00    +0.004 C 
ATOM      8  C   LIG    1       26.195 -27.174   7.852  0.00  0.00    +0.043 C 
BRANCH   7   9
ATOM      9  C   LIG    1       24.428 -29.839   5.591  0.00  0.00    +0.183 C 
BRANCH   9  10
ATOM     10  O   LIG    1       23.137 -29.325   5.307  0.00  0.00    -0.391 OA
ATOM     11  H   LIG    1       22.508 -29.938   5.730  0.00  0.00    +0.210 HD
ENDBRANCH   9  10
ENDBRANCH   7   9
ENDBRANCH   5   6
ENDBRANCH   3   4
BRANCH   2  12
ATOM     12  C   LIG    1       25.564 -23.632   6.312  0.00  0.00    +0.003 C 
ATOM     13  C   LIG    1       25.801 -22.310   6.189  0.00  0.00    +0.004 C 
BRANCH  13  14
ATOM     14  C   LIG    1       24.818 -21.252   5.972  0.00  0.00    -0.043 C 
ATOM     15  C   LIG    1       24.596 -20.787   4.506  0.00  0.00    -0.010 C 
ATOM     16  C   LIG    1       25.841 -20.073   3.921  0.00  0.00    +0.016 C 
ATOM     17  C   LIG    1       24.287 -21.997   3.600  0.00  0.00    +0.016 C 
ATOM     18  C   LIG    1       23.422 -19.768   4.380  0.00  0.00    +0.011 C 
ATOM     19  C   LIG    1       22.340 -19.988   5.422  0.00  0.00    +0.005 C 
ATOM     20  C   LIG    1       22.941 -19.819   6.808  0.00  0.00    +0.031 C 
ATOM     21  C   LIG    1       24.122 -20.731   7.015  0.00  0.00    -0.069 C 
ATOM     22  C   LIG    1       24.395 -21.011   8.471  0.00  0.00    +0.039 C 
ENDBRANCH  13  14
ENDBRANCH   2  12
TORSDOF 6
ENDMDL
MODEL 7
REMARK VINA RESULT:      -7.1      4.833      6.957
REMARK  Name = *****
REMARK                            x       y       z     vdW  Elec       q    Type
REMARK                         _______ _______ _______ _____ _____    ______ ____
ROOT
ATOM      1  C   LIG    1       24.624 -24.065   4.340  0.00  0.00    +0.044 C 
ATOM      2  C   LIG    1       24.746 -24.730   5.689  0.00  0.00    -0.050 C 
ATOM      3  C   LIG    1       25.677 -25.692   5.868  0.00  0.00    +0.003 C 
ENDROOT
BRANCH   3   4
ATOM      4  C   LIG    1       25.929 -26.405   7.093  0.00  0.00    +0.001 C 
ATOM      5  C   LIG    1       25.550 -27.671   7.362  0.00  0.00    +0.003 C 
BRANCH   5   6
ATOM      6  C   LIG    1       24.947 -28.606   6.436  0.00  0.00    -0.052 C 
ATOM      7  C   LIG    1       24.492 -29.816   6.825  0.00  0.00    +0.004 C 
ATOM      8  C   LIG    1       24.882 -28.166   4.996  0.00  0.00    +0.043 C 
BRANCH   7   9
ATOM      9  C   LIG    1       24.524 -30.383   8.205  0.00  0.00    +0.183 C 
BRANCH   9  10
ATOM     10  O   LIG    1       23.304 -30.059   8.849  0.00  0.00    -0.391 OA
ATOM     11  H   LIG    1       22.780 -30.880   8.855  0.00  0.00    +0.210 HD
ENDBRANCH   9  10
ENDBRANCH   7   9
ENDBRANCH   5   6
ENDBRANCH   3   4
BRANCH   2  12
ATOM     12  C   LIG    1       23.950 -24.178   6.774  0.00  0.00    +0.003 C 
ATOM     13  C   LIG    1       23.855 -22.903   7.205  0.00  0.00    +0.004 C 
BRANCH  13  14
ATOM     14  C   LIG    1       24.509 -21.727   6.637  0.00  0.00    -0.043 C 
ATOM     15  C   LIG    1       25.903 -21.350   7.211  0.00  0.00    -0.010 C 
ATOM     16  C   LIG    1       25.824 -20.886   8.687  0.00  0.00    +0.016 C 
ATOM     17  C   LIG    1       26.852 -22.566   7.157  0.00  0.00    +0.016 C 
ATOM     18  C   LIG    1       26.567 -20.176   6.429  0.00  0.00    +0.011 C 
ATOM     19  C   LIG    1       26.162 -20.142   4.966  0.00  0.00    +0.005 C 
ATOM     20  C   LIG    1       24.656 -19.959   4.869  0.00  0.00    +0.031 C 
ATOM     21  C   LIG    1       23.918 -21.023   5.637  0.00  0.00    -0.069 C 
ATOM     22  C   LIG    1       22.508 -21.226   5.145  0.00  0.00    +0.039 C 
ENDBRANCH  13  14
ENDBRANCH   2  12
TORSDOF 6
ENDMDL
MODEL 8
REMARK VINA RESULT:      -7.0      2.311      3.554
REMARK  Name = *****
REMARK                            x       y       z     vdW  Elec       q    Type
REMARK                         _______ _______ _______ _____ _____    ______ ____
ROOT
ATOM      1  C   LIG    1       25.864 -20.455   8.907  0.00  0.00    +0.044 C 
ATOM      2  C   LIG    1       27.033 -20.677   7.980  0.00  0.00    -0.050 C 
ATOM      3  C   LIG    1       28.209 -21.099   8.491  0.00  0.00    +0.003 C 
ENDROOT
BRANCH   3   4
ATOM      4  C   LIG    1       29.407 -21.372   7.740  0.00  0.00    +0.001 C 
ATOM      5  C   LIG    1       30.257 -20.449   7.244  0.00  0.00    +0.003 C 
BRANCH   5   6
ATOM      6  C   LIG    1       30.215 -19.022   7.484  0.00  0.00    -0.052 C 
ATOM      7  C   LIG    1       29.715 -18.153   6.580  0.00  0.00    +0.004 C 
ATOM      8  C   LIG    1       30.792 -18.552   8.793  0.00  0.00    +0.043 C 
BRANCH   7   9
ATOM      9  C   LIG    1       29.144 -18.483   5.241  0.00  0.00    +0.183 C 
BRANCH   9  10
ATOM     10  O   LIG    1       28.563 -17.308   4.702  0.00  0.00    -0.391 OA
ATOM     11  H   LIG    1       27.910 -17.611   4.046  0.00  0.00    +0.210 HD
ENDBRANCH   9  10
ENDBRANCH   7   9
ENDBRANCH   5   6
ENDBRANCH   3   4
BRANCH   2  12
ATOM     12  C   LIG    1       26.774 -20.575   6.552  0.00  0.00    +0.003 C 
ATOM     13  C   LIG    1       25.827 -21.179   5.806  0.00  0.00    +0.004 C 
BRANCH  13  14
ATOM     14  C   LIG    1       24.768 -22.070   6.275  0.00  0.00    -0.043 C 
ATOM     15  C   LIG    1       23.331 -21.482   6.337  0.00  0.00    -0.010 C 
ATOM     16  C   LIG    1       23.195 -20.373   7.410  0.00  0.00    +0.016 C 
ATOM     17  C   LIG    1       22.945 -20.863   4.977  0.00  0.00    +0.016 C 
ATOM     18  C   LIG    1       22.266 -22.562   6.703  0.00  0.00    +0.011 C 
ATOM     19  C   LIG    1       22.646 -23.949   6.218  0.00  0.00    +0.005 C 
ATOM     20  C   LIG    1       23.956 -24.364   6.868  0.00  0.00    +0.031 C 
ATOM     21  C   LIG    1       25.045 -23.356   6.612  0.00  0.00    -0.069 C 
ATOM     22  C   LIG    1       26.427 -23.945   6.734  0.00  0.00    +0.039 C 
ENDBRANCH  13  14
ENDBRANCH   2  12
TORSDOF 6
ENDMDL
MODEL 9
REMARK VINA RESULT:      -6.9      4.283      6.212
REMARK  Name = *****
REMARK                            x       y       z     vdW  Elec       q    Type
REMARK                         _______ _______ _______ _____ _____    ______ ____
ROOT
ATOM      1  C   LIG    1       23.271 -23.855   6.840  0.00  0.00    +0.044 C 
ATOM      2  C   LIG    1       24.486 -24.578   6.311  0.00  0.00    -0.050 C 
ATOM      3  C   LIG    1       24.324 -25.752   5.663  0.00  0.00    +0.003 C 
ENDROOT
BRANCH   3   4
ATOM      4  C   LIG    1       25.376 -26.550   5.088  0.00  0.00    +0.001 C 
ATOM      5  C   LIG    1       25.699 -27.809   5.447  0.00  0.00    +0.003 C 
BRANCH   5   6
ATOM      6  C   LIG    1       24.975 -28.654   6.373  0.00  0.00    -0.052 C 
ATOM      7  C   LIG    1       25.292 -28.727   7.683  0.00  0.00    +0.004 C 
ATOM      8  C   LIG    1       23.859 -29.478   5.786  0.00  0.00    +0.043 C 
BRANCH   7   9
ATOM      9  C   LIG    1       26.387 -27.991   8.382  0.00  0.00    +0.183 C 
BRANCH   9  10
ATOM     10  O   LIG    1       27.175 -28.932   9.092  0.00  0.00    -0.391 OA
ATOM     11  H   LIG    1       28.101 -28.685   8.922  0.00  0.00    +0.210 HD
ENDBRANCH   9  10
ENDBRANCH   7   9
ENDBRANCH   5   6
ENDBRANCH   3   4
BRANCH   2  12
ATOM     12  C   LIG    1       25.759 -23.880   6.393  0.00  0.00    +0.003 C 
ATOM     13  C   LIG    1       26.016 -22.557   6.348  0.00  0.00    +0.004 C 
BRANCH  13  14
ATOM     14  C   LIG    1       25.045 -21.470   6.255  0.00  0.00    -0.043 C 
ATOM     15  C   LIG    1       24.743 -20.915   4.835  0.00  0.00    -0.010 C 
ATOM     16  C   LIG    1       25.965 -20.191   4.215  0.00  0.00    +0.016 C 
ATOM     17  C   LIG    1       24.352 -22.064   3.882  0.00  0.00    +0.016 C 
ATOM     18  C   LIG    1       23.586 -19.869   4.842  0.00  0.00    +0.011 C 
ATOM     19  C   LIG    1       22.566 -20.129   5.936  0.00  0.00    +0.005 C 
ATOM     20  C   LIG    1       23.256 -20.054   7.289  0.00  0.00    +0.031 C 
ATOM     21  C   LIG    1       24.426 -20.998   7.368  0.00  0.00    -0.069 C 
ATOM     22  C   LIG    1       24.783 -21.368   8.785  0.00  0.00    +0.039 C 
ENDBRANCH  13  14
ENDBRANCH   2  12
TORSDOF 6
ENDMDL
