MODEL 1
REMARK VINA RESULT:      21.6      0.000      0.000
REMARK  Name = *****
REMARK                            x       y       z     vdW  Elec       q    Type
REMARK                         _______ _______ _______ _____ _____    ______ ____
ROOT
ATOM      1  C   LIG    1       23.363 -21.557   5.065  0.00  0.00    +0.015 C 
ATOM      2  C   LIG    1       24.385 -20.167   4.883  0.00  0.00    +0.011 C 
ATOM      3  C   LIG    1       25.698 -20.249   6.230  0.00  0.00    +0.123 C 
ATOM      4  O   LIG    1       27.045 -19.258   6.495  0.00  0.00    -0.457 OA
ATOM      5  C   LIG    1       28.438 -19.739   6.409  0.00  0.00    +0.308 C 
ATOM      6  O   LIG    1       29.448 -19.165   5.994  0.00  0.00    -0.251 OA
ATOM      7  C   LIG    1       28.499 -21.082   7.016  0.00  0.00    +0.124 C 
ATOM      8  C   LIG    1       26.939 -21.551   6.587  0.00  0.00    +0.060 C 
ATOM      9  C   LIG    1       24.285 -19.868   7.062  0.00  0.00    +0.037 C 
ATOM     10  C   LIG    1       23.600 -19.060   6.005  0.00  0.00    +0.000 C 
ATOM     11  C   LIG    1       22.479 -19.697   6.659  0.00  0.00    +0.012 C 
ATOM     12  C   LIG    1       23.592 -19.515   3.961  0.00  0.00    +0.006 C 
ATOM     13  C   LIG    1       24.631 -18.715   2.804  0.00  0.00    +0.001 C 
ATOM     14  C   LIG    1       25.970 -19.158   3.038  0.00  0.00    +0.000 C 
ATOM     15  C   LIG    1       26.409 -18.255   4.471  0.00  0.00    +0.019 C 
ATOM     16  C   LIG    1       26.530 -16.722   4.369  0.00  0.00    -0.057 C 
ATOM     17  C   LIG    1       25.837 -16.383   3.074  0.00  0.00    -0.007 C 
ATOM     18  C   LIG    1       26.890 -16.837   2.022  0.00  0.00    +0.016 C 
ATOM     19  C   LIG    1       25.426 -14.901   3.151  0.00  0.00    +0.019 C 
ATOM     20  C   LIG    1       24.585 -14.537   4.424  0.00  0.00    +0.080 C 
ATOM     21  C   LIG    1       25.717 -14.361   5.333  0.00  0.00    +0.156 C 
ATOM     22  O   LIG    1       25.956 -13.277   5.851  0.00  0.00    -0.293 OA
ATOM     23  C   LIG    1       26.638 -15.730   5.365  0.00  0.00    +0.046 C 
ATOM     24  C   LIG    1       27.084 -19.458   3.931  0.00  0.00    +0.012 C 
ATOM     25  C   LIG    1       24.524 -17.182   2.902  0.00  0.00    +0.003 C 
ATOM     26  C   LIG    1       23.655 -17.051   4.073  0.00  0.00    +0.005 C 
ATOM     27  C   LIG    1       23.107 -18.446   4.293  0.00  0.00    +0.011 C 
ENDROOT
TORSDOF 0
ENDMDL
