MODEL 1
REMARK VINA RESULT:      -2.1      0.000      0.000
REMARK  Name = *****
REMARK                            x       y       z     vdW  Elec       q    Type
REMARK                         _______ _______ _______ _____ _____    ______ ____
ROOT
ATOM      1  C   LIG    1       24.997 -19.749   4.560  0.00  0.00    +0.122 C 
ATOM      2  C   LIG    1       26.012 -18.913   4.273  0.00  0.00    +0.079 C 
ATOM      3  N   LIG    1       27.268 -18.777   4.822  0.00  0.00    -0.267 N 
ATOM      4  C   LIG    1       27.917 -19.771   5.655  0.00  0.00    +0.139 C 
ATOM      5  C   LIG    1       27.985 -17.625   4.461  0.00  0.00    +0.248 C 
ATOM      6  O   LIG    1       29.140 -17.387   4.813  0.00  0.00    -0.273 OA
ATOM      7  C   LIG    1       27.148 -16.671   3.564  0.00  0.00    +0.208 C 
ATOM      8  S   LIG    1       25.809 -17.785   2.965  0.00  0.00    -0.081 S 
ENDROOT
BRANCH   7   9
ATOM      9  N   LIG    1       26.603 -15.513   4.319  0.00  0.00    -0.283 NA
ATOM     10  C   LIG    1       27.590 -14.449   4.578  0.00  0.00    +0.086 C 
ATOM     11  C   LIG    1       27.965 -13.618   3.348  0.00  0.00    +0.015 C 
ATOM     12  C   LIG    1       26.731 -13.013   2.690  0.00  0.00    +0.002 C 
ATOM     13  C   LIG    1       25.661 -14.072   2.453  0.00  0.00    +0.015 C 
ATOM     14  C   LIG    1       25.402 -14.912   3.706  0.00  0.00    +0.086 C 
ENDBRANCH   7   9
BRANCH   1  15
ATOM     15  C   LIG    1       24.844 -20.723   5.649  0.00  0.00    +0.334 C 
ATOM     16  O   LIG    1       25.656 -21.571   5.984  0.00  0.00    -0.245 OA
BRANCH  15  17
ATOM     17  O   LIG    1       23.651 -20.473   6.251  0.00  0.00    -0.462 OA
BRANCH  17  19
ATOM     18  C   LIG    1       21.773 -20.965   4.801  0.00  0.00    +0.048 C 
ATOM     19  C   LIG    1       22.628 -19.881   5.430  0.00  0.00    +0.229 C 
ENDBRANCH  17  19
ENDBRANCH  15  17
ENDBRANCH   1  15
TORSDOF 4
ENDMDL
MODEL 2
REMARK VINA RESULT:      -1.1      1.714      2.212
REMARK  Name = *****
REMARK                            x       y       z     vdW  Elec       q    Type
REMARK                         _______ _______ _______ _____ _____    ______ ____
ROOT
ATOM      1  C   LIG    1       26.320 -19.278   4.618  0.00  0.00    +0.122 C 
ATOM      2  C   LIG    1       26.561 -18.037   4.156  0.00  0.00    +0.079 C 
ATOM      3  N   LIG    1       27.623 -17.181   4.344  0.00  0.00    -0.267 N 
ATOM      4  C   LIG    1       28.925 -17.578   4.843  0.00  0.00    +0.139 C 
ATOM      5  C   LIG    1       27.433 -15.852   3.931  0.00  0.00    +0.248 C 
ATOM      6  O   LIG    1       28.303 -14.982   3.972  0.00  0.00    -0.273 OA
ATOM      7  C   LIG    1       25.989 -15.597   3.419  0.00  0.00    +0.208 C 
ATOM      8  S   LIG    1       25.390 -17.308   3.095  0.00  0.00    -0.081 S 
ENDROOT
BRANCH   7   9
ATOM      9  N   LIG    1       25.144 -14.901   4.424  0.00  0.00    -0.283 NA
ATOM     10  C   LIG    1       25.679 -13.597   4.856  0.00  0.00    +0.086 C 
ATOM     11  C   LIG    1       25.558 -12.484   3.812  0.00  0.00    +0.015 C 
ATOM     12  C   LIG    1       24.116 -12.310   3.351  0.00  0.00    +0.002 C 
ATOM     13  C   LIG    1       23.504 -13.646   2.946  0.00  0.00    +0.015 C 
ATOM     14  C   LIG    1       23.739 -14.726   4.005  0.00  0.00    +0.086 C 
ENDBRANCH   7   9
BRANCH   1  15
ATOM     15  C   LIG    1       27.063 -20.094   5.587  0.00  0.00    +0.334 C 
ATOM     16  O   LIG    1       28.264 -20.318   5.579  0.00  0.00    -0.245 OA
BRANCH  15  17
ATOM     17  O   LIG    1       26.176 -20.514   6.527  0.00  0.00    -0.462 OA
BRANCH  17  19
ATOM     18  C   LIG    1       23.824 -20.803   7.033  0.00  0.00    +0.048 C 
ATOM     19  C   LIG    1       24.941 -21.072   6.043  0.00  0.00    +0.229 C 
ENDBRANCH  17  19
ENDBRANCH  15  17
ENDBRANCH   1  15
TORSDOF 4
ENDMDL
MODEL 3
REMARK VINA RESULT:      -0.7      2.626      6.961
REMARK  Name = *****
REMARK                            x       y       z     vdW  Elec       q    Type
REMARK                         _______ _______ _______ _____ _____    ______ ____
ROOT
ATOM      1  C   LIG    1       26.811 -15.435   3.799  0.00  0.00    +0.122 C 
ATOM      2  C   LIG    1       25.654 -16.111   3.671  0.00  0.00    +0.079 C 
ATOM      3  N   LIG    1       24.353 -15.759   3.953  0.00  0.00    -0.267 N 
ATOM      4  C   LIG    1       23.891 -14.399   4.155  0.00  0.00    +0.139 C 
ATOM      5  C   LIG    1       23.411 -16.800   3.949  0.00  0.00    +0.248 C 
ATOM      6  O   LIG    1       22.202 -16.642   4.119  0.00  0.00    -0.273 OA
ATOM      7  C   LIG    1       24.069 -18.187   3.713  0.00  0.00    +0.208 C 
ATOM      8  S   LIG    1       25.705 -17.718   3.007  0.00  0.00    -0.081 S 
ENDROOT
BRANCH   7   9
ATOM      9  N   LIG    1       24.216 -18.969   4.968  0.00  0.00    -0.283 NA
ATOM     10  C   LIG    1       22.945 -19.213   5.673  0.00  0.00    +0.086 C 
ATOM     11  C   LIG    1       22.035 -20.245   5.001  0.00  0.00    +0.015 C 
ATOM     12  C   LIG    1       22.759 -21.569   4.790  0.00  0.00    +0.002 C 
ATOM     13  C   LIG    1       24.106 -21.356   4.111  0.00  0.00    +0.015 C 
ATOM     14  C   LIG    1       24.921 -20.254   4.792  0.00  0.00    +0.086 C 
ENDBRANCH   7   9
BRANCH   1  15
ATOM     15  C   LIG    1       27.087 -14.126   4.405  0.00  0.00    +0.334 C 
ATOM     16  O   LIG    1       26.893 -13.808   5.569  0.00  0.00    -0.245 OA
BRANCH  15  17
ATOM     17  O   LIG    1       27.647 -13.345   3.444  0.00  0.00    -0.462 OA
BRANCH  17  19
ATOM     18  C   LIG    1       29.066 -11.894   4.768  0.00  0.00    +0.048 C 
ATOM     19  C   LIG    1       29.008 -12.932   3.663  0.00  0.00    +0.229 C 
ENDBRANCH  17  19
ENDBRANCH  15  17
ENDBRANCH   1  15
TORSDOF 4
ENDMDL
MODEL 4
REMARK VINA RESULT:       0.3      2.466      3.421
REMARK  Name = *****
REMARK                            x       y       z     vdW  Elec       q    Type
REMARK                         _______ _______ _______ _____ _____    ______ ____
ROOT
ATOM      1  C   LIG    1       25.422 -18.916   3.425  0.00  0.00    +0.122 C 
ATOM      2  C   LIG    1       25.106 -17.658   3.785  0.00  0.00    +0.079 C 
ATOM      3  N   LIG    1       23.904 -17.077   4.122  0.00  0.00    -0.267 N 
ATOM      4  C   LIG    1       22.708 -17.809   4.491  0.00  0.00    +0.139 C 
ATOM      5  C   LIG    1       23.887 -15.674   4.190  0.00  0.00    +0.248 C 
ATOM      6  O   LIG    1       22.912 -15.009   4.538  0.00  0.00    -0.273 OA
ATOM      7  C   LIG    1       25.246 -15.050   3.769  0.00  0.00    +0.208 C 
ATOM      8  S   LIG    1       26.388 -16.488   3.909  0.00  0.00    -0.081 S 
ENDROOT
BRANCH   7   9
ATOM      9  N   LIG    1       25.217 -14.504   2.387  0.00  0.00    -0.283 NA
ATOM     10  C   LIG    1       24.068 -13.621   2.116  0.00  0.00    +0.086 C 
ATOM     11  C   LIG    1       24.155 -12.245   2.782  0.00  0.00    +0.015 C 
ATOM     12  C   LIG    1       25.445 -11.526   2.405  0.00  0.00    +0.002 C 
ATOM     13  C   LIG    1       26.656 -12.425   2.619  0.00  0.00    +0.015 C 
ATOM     14  C   LIG    1       26.458 -13.808   1.994  0.00  0.00    +0.086 C 
ENDBRANCH   7   9
BRANCH   1  15
ATOM     15  C   LIG    1       24.559 -20.072   3.147  0.00  0.00    +0.334 C 
ATOM     16  O   LIG    1       23.877 -20.246   2.148  0.00  0.00    -0.245 OA
BRANCH  15  17
ATOM     17  O   LIG    1       24.697 -20.939   4.184  0.00  0.00    -0.462 OA
BRANCH  17  19
ATOM     18  C   LIG    1       23.574 -20.820   6.327  0.00  0.00    +0.048 C 
ATOM     19  C   LIG    1       23.495 -21.295   4.889  0.00  0.00    +0.229 C 
ENDBRANCH  17  19
ENDBRANCH  15  17
ENDBRANCH   1  15
TORSDOF 4
ENDMDL
MODEL 5
REMARK VINA RESULT:       0.7      2.248      6.209
REMARK  Name = *****
REMARK                            x       y       z     vdW  Elec       q    Type
REMARK                         _______ _______ _______ _____ _____    ______ ____
ROOT
ATOM      1  C   LIG    1       26.116 -18.156   3.079  0.00  0.00    +0.122 C 
ATOM      2  C   LIG    1       24.912 -18.718   3.295  0.00  0.00    +0.079 C 
ATOM      3  N   LIG    1       23.821 -18.293   4.021  0.00  0.00    -0.267 N 
ATOM      4  C   LIG    1       23.607 -16.930   4.467  0.00  0.00    +0.139 C 
ATOM      5  C   LIG    1       22.818 -19.248   4.255  0.00  0.00    +0.248 C 
ATOM      6  O   LIG    1       21.756 -19.011   4.830  0.00  0.00    -0.273 OA
ATOM      7  C   LIG    1       23.204 -20.650   3.710  0.00  0.00    +0.208 C 
ATOM      8  S   LIG    1       24.563 -20.243   2.535  0.00  0.00    -0.081 S 
ENDROOT
BRANCH   7   9
ATOM      9  N   LIG    1       23.662 -21.572   4.782  0.00  0.00    -0.283 NA
ATOM     10  C   LIG    1       25.121 -21.571   4.988  0.00  0.00    +0.086 C 
ATOM     11  C   LIG    1       25.664 -20.316   5.676  0.00  0.00    +0.015 C 
ATOM     12  C   LIG    1       24.965 -20.066   7.007  0.00  0.00    +0.002 C 
ATOM     13  C   LIG    1       23.450 -20.112   6.848  0.00  0.00    +0.015 C 
ATOM     14  C   LIG    1       22.994 -21.356   6.080  0.00  0.00    +0.086 C 
ENDBRANCH   7   9
BRANCH   1  15
ATOM     15  C   LIG    1       26.719 -16.947   3.654  0.00  0.00    +0.334 C 
ATOM     16  O   LIG    1       27.639 -16.905   4.457  0.00  0.00    -0.245 OA
BRANCH  15  17
ATOM     17  O   LIG    1       26.101 -15.877   3.087  0.00  0.00    -0.462 OA
BRANCH  17  19
ATOM     18  C   LIG    1       26.010 -13.534   2.479  0.00  0.00    +0.048 C 
ATOM     19  C   LIG    1       26.698 -14.590   3.322  0.00  0.00    +0.229 C 
ENDBRANCH  17  19
ENDBRANCH  15  17
ENDBRANCH   1  15
TORSDOF 4
ENDMDL
MODEL 6
REMARK VINA RESULT:       0.7      3.378      6.679
REMARK  Name = *****
REMARK                            x       y       z     vdW  Elec       q    Type
REMARK                         _______ _______ _______ _____ _____    ______ ____
ROOT
ATOM      1  C   LIG    1       23.746 -13.729   3.765  0.00  0.00    +0.122 C 
ATOM      2  C   LIG    1       24.347 -14.918   3.953  0.00  0.00    +0.079 C 
ATOM      3  N   LIG    1       25.531 -15.431   3.472  0.00  0.00    -0.267 N 
ATOM      4  C   LIG    1       26.597 -14.640   2.889  0.00  0.00    +0.139 C 
ATOM      5  C   LIG    1       25.733 -16.809   3.653  0.00  0.00    +0.248 C 
ATOM      6  O   LIG    1       26.762 -17.407   3.338  0.00  0.00    -0.273 OA
ATOM      7  C   LIG    1       24.500 -17.504   4.294  0.00  0.00    +0.208 C 
ATOM      8  S   LIG    1       23.583 -16.074   5.005  0.00  0.00    -0.081 S 
ENDROOT
BRANCH   7   9
ATOM      9  N   LIG    1       23.680 -18.241   3.298  0.00  0.00    -0.283 NA
ATOM     10  C   LIG    1       24.230 -19.558   2.927  0.00  0.00    +0.086 C 
ATOM     11  C   LIG    1       24.090 -20.631   4.010  0.00  0.00    +0.015 C 
ATOM     12  C   LIG    1       22.638 -20.794   4.445  0.00  0.00    +0.002 C 
ATOM     13  C   LIG    1       22.013 -19.447   4.785  0.00  0.00    +0.015 C 
ATOM     14  C   LIG    1       22.267 -18.407   3.692  0.00  0.00    +0.086 C 
ENDBRANCH   7   9
BRANCH   1  15
ATOM     15  C   LIG    1       24.097 -12.615   2.874  0.00  0.00    +0.334 C 
ATOM     16  O   LIG    1       24.695 -12.695   1.812  0.00  0.00    -0.245 OA
BRANCH  15  17
ATOM     17  O   LIG    1       23.588 -11.481   3.425  0.00  0.00    -0.462 OA
BRANCH  17  19
ATOM     18  C   LIG    1       24.824 -11.450   5.508  0.00  0.00    +0.048 C 
ATOM     19  C   LIG    1       23.454 -11.466   4.857  0.00  0.00    +0.229 C 
ENDBRANCH  17  19
ENDBRANCH  15  17
ENDBRANCH   1  15
TORSDOF 4
ENDMDL
