MODEL 1
REMARK VINA RESULT:       1.3      0.000      0.000
REMARK  Name = *****
REMARK                            x       y       z     vdW  Elec       q    Type
REMARK                         _______ _______ _______ _____ _____    ______ ____
ROOT
ATOM      1  O   LIG    1       25.656 -20.077   3.339  0.00  0.00    -0.286 OA
ATOM      2  C   LIG    1       25.547 -18.904   3.712  0.00  0.00    +0.200 C 
ATOM      3  C   LIG    1       26.717 -18.069   4.075  0.00  0.00    +0.056 A 
ATOM      4  C   LIG    1       26.578 -16.661   3.998  0.00  0.00    +0.056 A 
ATOM      5  C   LIG    1       27.662 -15.801   4.294  0.00  0.00    +0.039 A 
ATOM      6  C   LIG    1       28.843 -16.403   4.728  0.00  0.00    +0.025 A 
ATOM      7  C   LIG    1       28.964 -17.792   4.860  0.00  0.00    +0.025 A 
ATOM      8  C   LIG    1       25.245 -16.102   3.663  0.00  0.00    +0.200 C 
ATOM      9  O   LIG    1       25.136 -14.956   3.208  0.00  0.00    -0.286 OA
ATOM     10  C   LIG    1       24.048 -16.939   3.885  0.00  0.00    +0.078 A 
ATOM     11  C   LIG    1       22.777 -16.388   4.132  0.00  0.00    +0.129 A 
ATOM     12  C   LIG    1       21.660 -17.212   4.266  0.00  0.00    +0.050 A 
ATOM     13  C   LIG    1       21.803 -18.594   4.145  0.00  0.00    +0.050 A 
ATOM     14  C   LIG    1       23.062 -19.143   3.924  0.00  0.00    +0.129 A 
ATOM     15  C   LIG    1       27.928 -18.661   4.509  0.00  0.00    +0.039 A 
ATOM     16  C   LIG    1       24.195 -18.318   3.825  0.00  0.00    +0.078 A 
ENDROOT
BRANCH  11  17
ATOM     17  O   LIG    1       22.623 -15.040   4.296  0.00  0.00    -0.506 OA
ATOM     18  H   LIG    1       21.892 -14.718   3.746  0.00  0.00    +0.292 HD
ENDBRANCH  11  17
BRANCH  15  19
ATOM     19  N   LIG    1       28.030 -20.033   4.747  0.00  0.00    -0.342 N 
ATOM     20  H   LIG    1       28.386 -20.573   3.947  0.00  0.00    +0.146 HD
BRANCH  19  21
ATOM     21  C   LIG    1       28.393 -20.586   6.052  0.00  0.00    +0.116 C 
BRANCH  21  22
ATOM     22  C   LIG    1       27.147 -20.744   6.951  0.00  0.00    +0.099 C 
BRANCH  22  23
ATOM     23  N   LIG    1       26.059 -21.450   6.252  0.00  0.00    -0.312 NA
ATOM     24  H   LIG    1       26.382 -22.388   6.008  0.00  0.00    +0.122 HD
BRANCH  23  25
ATOM     25  C   LIG    1       24.841 -21.572   7.060  0.00  0.00    +0.108 C 
BRANCH  25  26
ATOM     26  C   LIG    1       23.931 -20.336   7.060  0.00  0.00    +0.171 C 
BRANCH  26  27
ATOM     27  O   LIG    1       22.708 -20.620   6.386  0.00  0.00    -0.394 OA
ATOM     28  H   LIG    1       22.414 -19.794   5.964  0.00  0.00    +0.209 HD
ENDBRANCH  26  27
ENDBRANCH  25  26
ENDBRANCH  23  25
ENDBRANCH  22  23
ENDBRANCH  21  22
ENDBRANCH  19  21
ENDBRANCH  15  19
BRANCH  14  29
ATOM     29  O   LIG    1       23.123 -20.507   3.814  0.00  0.00    -0.506 OA
ATOM     30  H   LIG    1       23.862 -20.824   4.380  0.00  0.00    +0.292 HD
ENDBRANCH  14  29
BRANCH   5  31
ATOM     31  N   LIG    1       27.587 -14.428   4.077  0.00  0.00    -0.342 N 
ATOM     32  H   LIG    1       27.120 -14.151   3.208  0.00  0.00    +0.146 HD
BRANCH  31  33
ATOM     33  C   LIG    1       27.696 -13.442   5.145  0.00  0.00    +0.116 C 
BRANCH  33  34
ATOM     34  C   LIG    1       26.478 -12.495   5.197  0.00  0.00    +0.099 C 
BRANCH  34  35
ATOM     35  N   LIG    1       25.850 -12.288   3.881  0.00  0.00    -0.312 NA
ATOM     36  H   LIG    1       26.007 -13.143   3.343  0.00  0.00    +0.122 HD
BRANCH  35  37
ATOM     37  C   LIG    1       24.408 -12.024   4.035  0.00  0.00    +0.108 C 
BRANCH  37  38
ATOM     38  C   LIG    1       23.681 -11.928   2.686  0.00  0.00    +0.171 C 
BRANCH  38  39
ATOM     39  O   LIG    1       23.837 -13.129   1.937  0.00  0.00    -0.394 OA
ATOM     40  H   LIG    1       23.213 -13.067   1.192  0.00  0.00    +0.209 HD
ENDBRANCH  38  39
ENDBRANCH  37  38
ENDBRANCH  35  37
ENDBRANCH  34  35
ENDBRANCH  33  34
ENDBRANCH  31  33
ENDBRANCH   5  31
TORSDOF 16
ENDMDL
MODEL 2
REMARK VINA RESULT:       1.3      2.123      5.660
REMARK  Name = *****
REMARK                            x       y       z     vdW  Elec       q    Type
REMARK                         _______ _______ _______ _____ _____    ______ ____
ROOT
ATOM      1  O   LIG    1       28.238 -15.475   4.808  0.00  0.00    -0.286 OA
ATOM      2  C   LIG    1       27.147 -15.537   4.230  0.00  0.00    +0.200 C 
ATOM      3  C   LIG    1       26.391 -16.804   4.084  0.00  0.00    +0.056 A 
ATOM      4  C   LIG    1       24.991 -16.723   3.884  0.00  0.00    +0.056 A 
ATOM      5  C   LIG    1       24.199 -17.890   3.772  0.00  0.00    +0.039 A 
ATOM      6  C   LIG    1       24.870 -19.112   3.800  0.00  0.00    +0.025 A 
ATOM      7  C   LIG    1       26.261 -19.192   3.939  0.00  0.00    +0.025 A 
ATOM      8  C   LIG    1       24.379 -15.380   3.727  0.00  0.00    +0.200 C 
ATOM      9  O   LIG    1       23.170 -15.208   3.936  0.00  0.00    -0.286 OA
ATOM     10  C   LIG    1       25.237 -14.252   3.314  0.00  0.00    +0.078 A 
ATOM     11  C   LIG    1       24.734 -13.132   2.627  0.00  0.00    +0.129 A 
ATOM     12  C   LIG    1       25.565 -12.057   2.317  0.00  0.00    +0.050 A 
ATOM     13  C   LIG    1       26.906 -12.087   2.701  0.00  0.00    +0.050 A 
ATOM     14  C   LIG    1       27.411 -13.202   3.360  0.00  0.00    +0.129 A 
ATOM     15  C   LIG    1       27.053 -18.056   4.118  0.00  0.00    +0.039 A 
ATOM     16  C   LIG    1       26.586 -14.304   3.641  0.00  0.00    +0.078 A 
ENDROOT
BRANCH  11  17
ATOM     17  O   LIG    1       23.434 -13.101   2.205  0.00  0.00    -0.506 OA
ATOM     18  H   LIG    1       23.250 -13.865   1.635  0.00  0.00    +0.292 HD
ENDBRANCH  11  17
BRANCH  15  19
ATOM     19  N   LIG    1       28.446 -18.148   4.150  0.00  0.00    -0.342 N 
ATOM     20  H   LIG    1       28.921 -17.565   3.449  0.00  0.00    +0.146 HD
BRANCH  19  21
ATOM     21  C   LIG    1       29.200 -18.331   5.389  0.00  0.00    +0.116 C 
BRANCH  21  22
ATOM     22  C   LIG    1       29.474 -19.829   5.654  0.00  0.00    +0.099 C 
BRANCH  22  23
ATOM     23  N   LIG    1       29.087 -20.218   7.021  0.00  0.00    -0.312 NA
ATOM     24  H   LIG    1       28.556 -19.453   7.441  0.00  0.00    +0.122 HD
BRANCH  23  25
ATOM     25  C   LIG    1       28.265 -21.432   7.061  0.00  0.00    +0.108 C 
BRANCH  25  26
ATOM     26  C   LIG    1       26.873 -21.300   6.426  0.00  0.00    +0.171 C 
BRANCH  26  27
ATOM     27  O   LIG    1       26.220 -20.126   6.902  0.00  0.00    -0.394 OA
ATOM     28  H   LIG    1       25.423 -20.415   7.379  0.00  0.00    +0.209 HD
ENDBRANCH  26  27
ENDBRANCH  25  26
ENDBRANCH  23  25
ENDBRANCH  22  23
ENDBRANCH  21  22
ENDBRANCH  19  21
ENDBRANCH  15  19
BRANCH  14  29
ATOM     29  O   LIG    1       28.736 -13.159   3.707  0.00  0.00    -0.506 OA
ATOM     30  H   LIG    1       29.122 -14.048   3.543  0.00  0.00    +0.292 HD
ENDBRANCH  14  29
BRANCH   5  31
ATOM     31  N   LIG    1       22.809 -17.828   3.728  0.00  0.00    -0.342 N 
ATOM     32  H   LIG    1       22.425 -17.156   3.057  0.00  0.00    +0.146 HD
BRANCH  31  33
ATOM     33  C   LIG    1       21.944 -18.906   4.193  0.00  0.00    +0.116 C 
BRANCH  33  34
ATOM     34  C   LIG    1       22.721 -20.216   4.446  0.00  0.00    +0.099 C 
BRANCH  34  35
ATOM     35  N   LIG    1       21.860 -21.319   4.906  0.00  0.00    -0.312 NA
ATOM     36  H   LIG    1       22.113 -22.139   4.353  0.00  0.00    +0.122 HD
BRANCH  35  37
ATOM     37  C   LIG    1       22.071 -21.571   6.343  0.00  0.00    +0.108 C 
BRANCH  37  38
ATOM     38  C   LIG    1       23.452 -21.103   6.826  0.00  0.00    +0.171 C 
BRANCH  38  39
ATOM     39  O   LIG    1       23.501 -19.683   6.927  0.00  0.00    -0.394 OA
ATOM     40  H   LIG    1       23.620 -19.483   7.872  0.00  0.00    +0.209 HD
ENDBRANCH  38  39
ENDBRANCH  37  38
ENDBRANCH  35  37
ENDBRANCH  34  35
ENDBRANCH  33  34
ENDBRANCH  31  33
ENDBRANCH   5  31
TORSDOF 16
ENDMDL
MODEL 3
REMARK VINA RESULT:       2.1      1.791      2.744
REMARK  Name = *****
REMARK                            x       y       z     vdW  Elec       q    Type
REMARK                         _______ _______ _______ _____ _____    ______ ____
ROOT
ATOM      1  O   LIG    1       26.102 -19.759   3.146  0.00  0.00    -0.286 OA
ATOM      2  C   LIG    1       25.372 -18.856   3.571  0.00  0.00    +0.200 C 
ATOM      3  C   LIG    1       25.857 -17.472   3.787  0.00  0.00    +0.056 A 
ATOM      4  C   LIG    1       24.902 -16.426   3.779  0.00  0.00    +0.056 A 
ATOM      5  C   LIG    1       25.294 -15.075   3.943  0.00  0.00    +0.039 A 
ATOM      6  C   LIG    1       26.647 -14.837   4.177  0.00  0.00    +0.025 A 
ATOM      7  C   LIG    1       27.584 -15.875   4.243  0.00  0.00    +0.025 A 
ATOM      8  C   LIG    1       23.466 -16.783   3.663  0.00  0.00    +0.200 C 
ATOM      9  O   LIG    1       22.638 -15.952   3.268  0.00  0.00    -0.286 OA
ATOM     10  C   LIG    1       23.042 -18.149   4.029  0.00  0.00    +0.078 A 
ATOM     11  C   LIG    1       21.742 -18.442   4.479  0.00  0.00    +0.129 A 
ATOM     12  C   LIG    1       21.362 -19.756   4.748  0.00  0.00    +0.050 A 
ATOM     13  C   LIG    1       22.278 -20.792   4.559  0.00  0.00    +0.050 A 
ATOM     14  C   LIG    1       23.571 -20.503   4.137  0.00  0.00    +0.129 A 
ATOM     15  C   LIG    1       27.229 -17.207   4.018  0.00  0.00    +0.039 A 
ATOM     16  C   LIG    1       23.968 -19.176   3.901  0.00  0.00    +0.078 A 
ENDROOT
BRANCH  11  17
ATOM     17  O   LIG    1       20.843 -17.438   4.710  0.00  0.00    -0.506 OA
ATOM     18  H   LIG    1       21.251 -16.577   4.524  0.00  0.00    +0.292 HD
ENDBRANCH  11  17
BRANCH  15  19
ATOM     19  N   LIG    1       28.155 -18.237   4.191  0.00  0.00    -0.342 N 
ATOM     20  H   LIG    1       28.572 -18.578   3.315  0.00  0.00    +0.146 HD
BRANCH  19  21
ATOM     21  C   LIG    1       29.046 -18.315   5.349  0.00  0.00    +0.116 C 
BRANCH  21  22
ATOM     22  C   LIG    1       29.469 -19.776   5.622  0.00  0.00    +0.099 C 
BRANCH  22  23
ATOM     23  N   LIG    1       29.142 -20.188   6.998  0.00  0.00    -0.312 NA
ATOM     24  H   LIG    1       28.873 -19.359   7.532  0.00  0.00    +0.122 HD
BRANCH  23  25
ATOM     25  C   LIG    1       28.045 -21.160   7.062  0.00  0.00    +0.108 C 
BRANCH  25  26
ATOM     26  C   LIG    1       26.636 -20.563   6.943  0.00  0.00    +0.171 C 
BRANCH  26  27
ATOM     27  O   LIG    1       25.713 -21.555   6.502  0.00  0.00    -0.394 OA
ATOM     28  H   LIG    1       25.553 -21.397   5.555  0.00  0.00    +0.209 HD
ENDBRANCH  26  27
ENDBRANCH  25  26
ENDBRANCH  23  25
ENDBRANCH  22  23
ENDBRANCH  21  22
ENDBRANCH  19  21
ENDBRANCH  15  19
BRANCH  14  29
ATOM     29  O   LIG    1       24.413 -21.572   3.973  0.00  0.00    -0.506 OA
ATOM     30  H   LIG    1       24.786 -21.527   3.064  0.00  0.00    +0.292 HD
ENDBRANCH  14  29
BRANCH   5  31
ATOM     31  N   LIG    1       24.390 -14.028   3.786  0.00  0.00    -0.342 N 
ATOM     32  H   LIG    1       23.430 -14.236   4.078  0.00  0.00    +0.146 HD
BRANCH  31  33
ATOM     33  C   LIG    1       24.793 -12.631   3.690  0.00  0.00    +0.116 C 
BRANCH  33  34
ATOM     34  C   LIG    1       25.309 -12.263   2.282  0.00  0.00    +0.099 C 
BRANCH  34  35
ATOM     35  N   LIG    1       26.749 -12.523   2.109  0.00  0.00    -0.312 NA
ATOM     36  H   LIG    1       26.995 -12.204   1.171  0.00  0.00    +0.122 HD
BRANCH  35  37
ATOM     37  C   LIG    1       27.529 -11.798   3.129  0.00  0.00    +0.108 C 
BRANCH  37  38
ATOM     38  C   LIG    1       28.697 -12.630   3.678  0.00  0.00    +0.171 C 
BRANCH  38  39
ATOM     39  O   LIG    1       29.142 -12.119   4.930  0.00  0.00    -0.394 OA
ATOM     40  H   LIG    1       29.954 -11.614   4.743  0.00  0.00    +0.209 HD
ENDBRANCH  38  39
ENDBRANCH  37  38
ENDBRANCH  35  37
ENDBRANCH  34  35
ENDBRANCH  33  34
ENDBRANCH  31  33
ENDBRANCH   5  31
TORSDOF 16
ENDMDL
MODEL 4
REMARK VINA RESULT:       2.8      1.843      7.333
REMARK  Name = *****
REMARK                            x       y       z     vdW  Elec       q    Type
REMARK                         _______ _______ _______ _____ _____    ______ ____
ROOT
ATOM      1  O   LIG    1       26.010 -15.335   3.019  0.00  0.00    -0.286 OA
ATOM      2  C   LIG    1       25.825 -16.448   3.525  0.00  0.00    +0.200 C 
ATOM      3  C   LIG    1       24.476 -17.045   3.672  0.00  0.00    +0.056 A 
ATOM      4  C   LIG    1       24.382 -18.454   3.774  0.00  0.00    +0.056 A 
ATOM      5  C   LIG    1       23.126 -19.098   3.880  0.00  0.00    +0.039 A 
ATOM      6  C   LIG    1       22.001 -18.276   3.947  0.00  0.00    +0.025 A 
ATOM      7  C   LIG    1       22.097 -16.880   3.904  0.00  0.00    +0.025 A 
ATOM      8  C   LIG    1       25.638 -19.242   3.835  0.00  0.00    +0.200 C 
ATOM      9  O   LIG    1       25.645 -20.445   3.540  0.00  0.00    -0.286 OA
ATOM     10  C   LIG    1       26.880 -18.566   4.259  0.00  0.00    +0.078 A 
ATOM     11  C   LIG    1       27.947 -19.255   4.864  0.00  0.00    +0.129 A 
ATOM     12  C   LIG    1       29.130 -18.591   5.185  0.00  0.00    +0.050 A 
ATOM     13  C   LIG    1       29.262 -17.234   4.893  0.00  0.00    +0.050 A 
ATOM     14  C   LIG    1       28.201 -16.545   4.315  0.00  0.00    +0.129 A 
ATOM     15  C   LIG    1       23.320 -16.229   3.732  0.00  0.00    +0.039 A 
ATOM     16  C   LIG    1       26.993 -17.202   4.024  0.00  0.00    +0.078 A 
ENDROOT
BRANCH  11  17
ATOM     17  O   LIG    1       27.822 -20.575   5.197  0.00  0.00    -0.506 OA
ATOM     18  H   LIG    1       27.875 -21.126   4.401  0.00  0.00    +0.292 HD
ENDBRANCH  11  17
BRANCH  15  19
ATOM     19  N   LIG    1       23.408 -14.837   3.798  0.00  0.00    -0.342 N 
ATOM     20  H   LIG    1       22.904 -14.348   3.046  0.00  0.00    +0.146 HD
BRANCH  19  21
ATOM     21  C   LIG    1       23.453 -14.103   5.063  0.00  0.00    +0.116 C 
BRANCH  21  22
ATOM     22  C   LIG    1       24.443 -12.920   4.980  0.00  0.00    +0.099 C 
BRANCH  22  23
ATOM     23  N   LIG    1       25.584 -13.227   4.100  0.00  0.00    -0.312 NA
ATOM     24  H   LIG    1       25.410 -14.123   3.640  0.00  0.00    +0.122 HD
BRANCH  23  25
ATOM     25  C   LIG    1       25.803 -12.208   3.068  0.00  0.00    +0.108 C 
BRANCH  25  26
ATOM     26  C   LIG    1       24.624 -11.983   2.111  0.00  0.00    +0.171 C 
BRANCH  26  27
ATOM     27  O   LIG    1       23.426 -11.749   2.847  0.00  0.00    -0.394 OA
ATOM     28  H   LIG    1       23.262 -10.790   2.830  0.00  0.00    +0.209 HD
ENDBRANCH  26  27
ENDBRANCH  25  26
ENDBRANCH  23  25
ENDBRANCH  22  23
ENDBRANCH  21  22
ENDBRANCH  19  21
ENDBRANCH  15  19
BRANCH  14  29
ATOM     29  O   LIG    1       28.405 -15.215   4.056  0.00  0.00    -0.506 OA
ATOM     30  H   LIG    1       28.743 -15.134   3.136  0.00  0.00    +0.292 HD
ENDBRANCH  14  29
BRANCH   5  31
ATOM     31  N   LIG    1       23.008 -20.484   3.829  0.00  0.00    -0.342 N 
ATOM     32  H   LIG    1       23.741 -20.963   3.296  0.00  0.00    +0.146 HD
BRANCH  31  33
ATOM     33  C   LIG    1       22.245 -21.259   4.800  0.00  0.00    +0.116 C 
BRANCH  33  34
ATOM     34  C   LIG    1       22.004 -20.484   6.113  0.00  0.00    +0.099 C 
BRANCH  34  35
ATOM     35  N   LIG    1       23.233 -20.289   6.902  0.00  0.00    -0.312 NA
ATOM     36  H   LIG    1       22.943 -19.920   7.810  0.00  0.00    +0.122 HD
BRANCH  35  37
ATOM     37  C   LIG    1       23.949 -21.568   7.062  0.00  0.00    +0.108 C 
BRANCH  37  38
ATOM     38  C   LIG    1       25.410 -21.485   6.596  0.00  0.00    +0.171 C 
BRANCH  38  39
ATOM     39  O   LIG    1       26.025 -20.289   7.062  0.00  0.00    -0.394 OA
ATOM     40  H   LIG    1       26.730 -20.567   7.674  0.00  0.00    +0.209 HD
ENDBRANCH  38  39
ENDBRANCH  37  38
ENDBRANCH  35  37
ENDBRANCH  34  35
ENDBRANCH  33  34
ENDBRANCH  31  33
ENDBRANCH   5  31
TORSDOF 16
ENDMDL
MODEL 5
REMARK VINA RESULT:       3.0      1.826      6.413
REMARK  Name = *****
REMARK                            x       y       z     vdW  Elec       q    Type
REMARK                         _______ _______ _______ _____ _____    ______ ____
ROOT
ATOM      1  O   LIG    1       22.402 -15.745   4.346  0.00  0.00    -0.286 OA
ATOM      2  C   LIG    1       23.155 -16.702   4.129  0.00  0.00    +0.200 C 
ATOM      3  C   LIG    1       24.604 -16.534   3.860  0.00  0.00    +0.056 A 
ATOM      4  C   LIG    1       25.458 -17.633   4.121  0.00  0.00    +0.056 A 
ATOM      5  C   LIG    1       26.857 -17.536   3.923  0.00  0.00    +0.039 A 
ATOM      6  C   LIG    1       27.336 -16.336   3.400  0.00  0.00    +0.025 A 
ATOM      7  C   LIG    1       26.486 -15.268   3.088  0.00  0.00    +0.025 A 
ATOM      8  C   LIG    1       24.846 -18.917   4.543  0.00  0.00    +0.200 C 
ATOM      9  O   LIG    1       25.515 -19.769   5.143  0.00  0.00    -0.286 OA
ATOM     10  C   LIG    1       23.424 -19.163   4.231  0.00  0.00    +0.078 A 
ATOM     11  C   LIG    1       22.897 -20.458   4.074  0.00  0.00    +0.129 A 
ATOM     12  C   LIG    1       21.534 -20.648   3.849  0.00  0.00    +0.050 A 
ATOM     13  C   LIG    1       20.684 -19.544   3.790  0.00  0.00    +0.050 A 
ATOM     14  C   LIG    1       21.205 -18.261   3.921  0.00  0.00    +0.129 A 
ATOM     15  C   LIG    1       25.113 -15.320   3.338  0.00  0.00    +0.039 A 
ATOM     16  C   LIG    1       22.583 -18.064   4.111  0.00  0.00    +0.078 A 
ENDROOT
BRANCH  11  17
ATOM     17  O   LIG    1       23.720 -21.549   4.087  0.00  0.00    -0.506 OA
ATOM     18  H   LIG    1       24.607 -21.295   4.386  0.00  0.00    +0.292 HD
ENDBRANCH  11  17
BRANCH  15  19
ATOM     19  N   LIG    1       24.268 -14.289   2.924  0.00  0.00    -0.342 N 
ATOM     20  H   LIG    1       23.508 -14.592   2.300  0.00  0.00    +0.146 HD
BRANCH  19  21
ATOM     21  C   LIG    1       23.922 -13.154   3.781  0.00  0.00    +0.116 C 
BRANCH  21  22
ATOM     22  C   LIG    1       24.919 -13.025   4.954  0.00  0.00    +0.099 C 
BRANCH  22  23
ATOM     23  N   LIG    1       26.222 -12.506   4.505  0.00  0.00    -0.312 NA
ATOM     24  H   LIG    1       26.237 -11.494   4.645  0.00  0.00    +0.122 HD
BRANCH  23  25
ATOM     25  C   LIG    1       27.355 -13.092   5.229  0.00  0.00    +0.108 C 
BRANCH  25  26
ATOM     26  C   LIG    1       28.741 -12.719   4.686  0.00  0.00    +0.171 C 
BRANCH  26  27
ATOM     27  O   LIG    1       29.297 -11.645   5.441  0.00  0.00    -0.394 OA
ATOM     28  H   LIG    1       29.896 -11.158   4.849  0.00  0.00    +0.209 HD
ENDBRANCH  26  27
ENDBRANCH  25  26
ENDBRANCH  23  25
ENDBRANCH  22  23
ENDBRANCH  21  22
ENDBRANCH  19  21
ENDBRANCH  15  19
BRANCH  14  29
ATOM     29  O   LIG    1       20.308 -17.228   3.853  0.00  0.00    -0.506 OA
ATOM     30  H   LIG    1       19.410 -17.594   4.016  0.00  0.00    +0.292 HD
ENDBRANCH  14  29
BRANCH   5  31
ATOM     31  N   LIG    1       27.723 -18.552   4.316  0.00  0.00    -0.342 N 
ATOM     32  H   LIG    1       27.555 -19.461   3.873  0.00  0.00    +0.146 HD
BRANCH  31  33
ATOM     33  C   LIG    1       29.033 -18.304   4.905  0.00  0.00    +0.116 C 
BRANCH  33  34
ATOM     34  C   LIG    1       29.270 -19.137   6.183  0.00  0.00    +0.099 C 
BRANCH  34  35
ATOM     35  N   LIG    1       29.473 -20.570   5.910  0.00  0.00    -0.312 NA
ATOM     36  H   LIG    1       30.478 -20.708   5.793  0.00  0.00    +0.122 HD
BRANCH  35  37
ATOM     37  C   LIG    1       28.959 -21.384   7.026  0.00  0.00    +0.108 C 
BRANCH  37  38
ATOM     38  C   LIG    1       27.425 -21.443   7.055  0.00  0.00    +0.171 C 
BRANCH  38  39
ATOM     39  O   LIG    1       26.863 -20.155   6.827  0.00  0.00    -0.394 OA
ATOM     40  H   LIG    1       27.488 -19.686   6.246  0.00  0.00    +0.209 HD
ENDBRANCH  38  39
ENDBRANCH  37  38
ENDBRANCH  35  37
ENDBRANCH  34  35
ENDBRANCH  33  34
ENDBRANCH  31  33
ENDBRANCH   5  31
TORSDOF 16
ENDMDL
MODEL 6
REMARK VINA RESULT:       4.1      1.892      6.354
REMARK  Name = *****
REMARK                            x       y       z     vdW  Elec       q    Type
REMARK                         _______ _______ _______ _____ _____    ______ ____
ROOT
ATOM      1  O   LIG    1       22.903 -15.850   3.876  0.00  0.00    -0.286 OA
ATOM      2  C   LIG    1       23.140 -17.063   3.907  0.00  0.00    +0.200 C 
ATOM      3  C   LIG    1       24.518 -17.609   3.888  0.00  0.00    +0.056 A 
ATOM      4  C   LIG    1       24.725 -18.905   4.421  0.00  0.00    +0.056 A 
ATOM      5  C   LIG    1       26.019 -19.478   4.470  0.00  0.00    +0.039 A 
ATOM      6  C   LIG    1       27.058 -18.735   3.911  0.00  0.00    +0.025 A 
ATOM      7  C   LIG    1       26.845 -17.478   3.333  0.00  0.00    +0.025 A 
ATOM      8  C   LIG    1       23.542 -19.682   4.866  0.00  0.00    +0.200 C 
ATOM      9  O   LIG    1       23.664 -20.616   5.669  0.00  0.00    -0.286 OA
ATOM     10  C   LIG    1       22.213 -19.321   4.331  0.00  0.00    +0.078 A 
ATOM     11  C   LIG    1       21.163 -20.251   4.228  0.00  0.00    +0.129 A 
ATOM     12  C   LIG    1       19.903 -19.853   3.783  0.00  0.00    +0.050 A 
ATOM     13  C   LIG    1       19.680 -18.517   3.447  0.00  0.00    +0.050 A 
ATOM     14  C   LIG    1       20.723 -17.600   3.526  0.00  0.00    +0.129 A 
ATOM     15  C   LIG    1       25.589 -16.867   3.334  0.00  0.00    +0.039 A 
ATOM     16  C   LIG    1       22.003 -18.006   3.938  0.00  0.00    +0.078 A 
ENDROOT
BRANCH  11  17
ATOM     17  O   LIG    1       21.372 -21.572   4.512  0.00  0.00    -0.506 OA
ATOM     18  H   LIG    1       20.550 -21.979   4.827  0.00  0.00    +0.292 HD
ENDBRANCH  11  17
BRANCH  15  19
ATOM     19  N   LIG    1       25.376 -15.663   2.660  0.00  0.00    -0.342 N 
ATOM     20  H   LIG    1       24.393 -15.361   2.640  0.00  0.00    +0.146 HD
BRANCH  19  21
ATOM     21  C   LIG    1       26.340 -14.562   2.678  0.00  0.00    +0.116 C 
BRANCH  21  22
ATOM     22  C   LIG    1       25.682 -13.244   2.215  0.00  0.00    +0.099 C 
BRANCH  22  23
ATOM     23  N   LIG    1       24.332 -13.082   2.782  0.00  0.00    -0.312 NA
ATOM     24  H   LIG    1       23.755 -13.871   2.483  0.00  0.00    +0.122 HD
BRANCH  23  25
ATOM     25  C   LIG    1       24.326 -13.032   4.248  0.00  0.00    +0.108 C 
BRANCH  25  26
ATOM     26  C   LIG    1       25.372 -12.097   4.873  0.00  0.00    +0.171 C 
BRANCH  26  27
ATOM     27  O   LIG    1       26.436 -12.854   5.444  0.00  0.00    -0.394 OA
ATOM     28  H   LIG    1       27.263 -12.532   5.046  0.00  0.00    +0.209 HD
ENDBRANCH  26  27
ENDBRANCH  25  26
ENDBRANCH  23  25
ENDBRANCH  22  23
ENDBRANCH  21  22
ENDBRANCH  19  21
ENDBRANCH  15  19
BRANCH  14  29
ATOM     29  O   LIG    1       20.427 -16.308   3.181  0.00  0.00    -0.506 OA
ATOM     30  H   LIG    1       19.663 -16.016   3.727  0.00  0.00    +0.292 HD
ENDBRANCH  14  29
BRANCH   5  31
ATOM     31  N   LIG    1       26.260 -20.683   5.125  0.00  0.00    -0.342 N 
ATOM     32  H   LIG    1       26.731 -21.397   4.561  0.00  0.00    +0.146 HD
BRANCH  31  33
ATOM     33  C   LIG    1       26.309 -20.809   6.576  0.00  0.00    +0.116 C 
BRANCH  33  34
ATOM     34  C   LIG    1       27.561 -21.571   7.059  0.00  0.00    +0.099 C 
BRANCH  34  35
ATOM     35  N   LIG    1       28.784 -21.193   6.329  0.00  0.00    -0.312 NA
ATOM     36  H   LIG    1       28.492 -20.913   5.391  0.00  0.00    +0.122 HD
BRANCH  35  37
ATOM     37  C   LIG    1       29.469 -20.082   7.016  0.00  0.00    +0.108 C 
BRANCH  37  38
ATOM     38  C   LIG    1       28.739 -18.743   6.842  0.00  0.00    +0.171 C 
BRANCH  38  39
ATOM     39  O   LIG    1       29.409 -17.917   5.896  0.00  0.00    -0.394 OA
ATOM     40  H   LIG    1       30.189 -17.557   6.356  0.00  0.00    +0.209 HD
ENDBRANCH  38  39
ENDBRANCH  37  38
ENDBRANCH  35  37
ENDBRANCH  34  35
ENDBRANCH  33  34
ENDBRANCH  31  33
ENDBRANCH   5  31
TORSDOF 16
ENDMDL
