MODEL 1
REMARK VINA RESULT:      -6.6      0.000      0.000
REMARK  Name = *****
REMARK                            x       y       z     vdW  Elec       q    Type
REMARK                         _______ _______ _______ _____ _____    ______ ____
ROOT
ATOM      1  C   LIG    1       27.971 -17.230   4.338  0.00  0.00    +0.053 C 
ATOM      2  C   LIG    1       26.619 -16.711   3.847  0.00  0.00    +0.187 C 
ENDROOT
BRANCH   2   3
ATOM      3  C   LIG    1       25.750 -17.829   3.217  0.00  0.00    +0.125 C 
BRANCH   3   4
ATOM      4  N   LIG    1       25.787 -19.100   3.958  0.00  0.00    -0.310 NA
ATOM      5  H   LIG    1       25.685 -18.920   4.956  0.00  0.00    +0.122 HD
BRANCH   4   6
ATOM      6  C   LIG    1       24.763 -20.067   3.525  0.00  0.00    +0.054 C 
ATOM      7  C   LIG    1       24.575 -21.263   4.478  0.00  0.00    +0.019 C 
ATOM      8  C   LIG    1       24.037 -20.843   5.847  0.00  0.00    +0.002 C 
ATOM      9  C   LIG    1       22.725 -20.076   5.715  0.00  0.00    +0.000 C 
ATOM     10  C   LIG    1       22.845 -18.899   4.750  0.00  0.00    +0.002 C 
ATOM     11  C   LIG    1       23.414 -19.331   3.395  0.00  0.00    +0.019 C 
ENDBRANCH   4   6
ENDBRANCH   3   4
ENDBRANCH   2   3
BRANCH   2  12
ATOM     12  O   LIG    1       26.889 -15.662   2.895  0.00  0.00    -0.457 OA
BRANCH  12  13
ATOM     13  C   LIG    1       27.214 -14.444   3.393  0.00  0.00    +0.340 C 
ATOM     14  O   LIG    1       28.316 -14.078   3.769  0.00  0.00    -0.245 OA
BRANCH  13  15
ATOM     15  C   LIG    1       26.008 -13.578   3.367  0.00  0.00    +0.059 A 
ATOM     16  C   LIG    1       25.649 -12.970   2.161  0.00  0.00    +0.015 A 
ATOM     17  C   LIG    1       24.524 -12.138   2.104  0.00  0.00    +0.001 A 
ATOM     18  C   LIG    1       23.767 -11.910   3.252  0.00  0.00    +0.000 A 
ATOM     19  C   LIG    1       24.124 -12.511   4.458  0.00  0.00    +0.001 A 
ATOM     20  C   LIG    1       25.243 -13.344   4.518  0.00  0.00    +0.015 A 
ENDBRANCH  13  15
ENDBRANCH  12  13
ENDBRANCH   2  12
TORSDOF 6
ENDMDL
MODEL 2
REMARK VINA RESULT:      -6.5      0.037      1.110
REMARK  Name = *****
REMARK                            x       y       z     vdW  Elec       q    Type
REMARK                         _______ _______ _______ _____ _____    ______ ____
ROOT
ATOM      1  C   LIG    1       27.966 -17.227   4.340  0.00  0.00    +0.053 C 
ATOM      2  C   LIG    1       26.620 -16.702   3.841  0.00  0.00    +0.187 C 
ENDROOT
BRANCH   2   3
ATOM      3  C   LIG    1       25.750 -17.817   3.206  0.00  0.00    +0.125 C 
BRANCH   3   4
ATOM      4  N   LIG    1       25.793 -19.094   3.937  0.00  0.00    -0.310 NA
ATOM      5  H   LIG    1       25.704 -18.921   4.937  0.00  0.00    +0.122 HD
BRANCH   4   6
ATOM      6  C   LIG    1       24.763 -20.056   3.508  0.00  0.00    +0.054 C 
ATOM      7  C   LIG    1       24.588 -21.262   4.451  0.00  0.00    +0.019 C 
ATOM      8  C   LIG    1       24.070 -20.856   5.832  0.00  0.00    +0.002 C 
ATOM      9  C   LIG    1       22.756 -20.088   5.726  0.00  0.00    +0.000 C 
ATOM     10  C   LIG    1       22.863 -18.900   4.773  0.00  0.00    +0.002 C 
ATOM     11  C   LIG    1       23.413 -19.318   3.405  0.00  0.00    +0.019 C 
ENDBRANCH   4   6
ENDBRANCH   3   4
ENDBRANCH   2   3
BRANCH   2  12
ATOM     12  O   LIG    1       26.901 -15.656   2.890  0.00  0.00    -0.457 OA
BRANCH  12  13
ATOM     13  C   LIG    1       27.233 -14.440   3.388  0.00  0.00    +0.340 C 
ATOM     14  O   LIG    1       28.333 -14.087   3.782  0.00  0.00    -0.245 OA
BRANCH  13  15
ATOM     15  C   LIG    1       26.039 -13.559   3.338  0.00  0.00    +0.059 A 
ATOM     16  C   LIG    1       25.305 -13.361   4.511  0.00  0.00    +0.015 A 
ATOM     17  C   LIG    1       24.167 -12.544   4.496  0.00  0.00    +0.001 A 
ATOM     18  C   LIG    1       23.761 -11.937   3.308  0.00  0.00    +0.000 A 
ATOM     19  C   LIG    1       24.488 -12.136   2.135  0.00  0.00    +0.001 A 
ATOM     20  C   LIG    1       25.625 -12.946   2.147  0.00  0.00    +0.015 A 
ENDBRANCH  13  15
ENDBRANCH  12  13
ENDBRANCH   2  12
TORSDOF 6
ENDMDL
MODEL 3
REMARK VINA RESULT:      -5.9      2.260      3.207
REMARK  Name = *****
REMARK                            x       y       z     vdW  Elec       q    Type
REMARK                         _______ _______ _______ _____ _____    ______ ____
ROOT
ATOM      1  C   LIG    1       22.079 -15.488   5.961  0.00  0.00    +0.053 C 
ATOM      2  C   LIG    1       22.497 -15.985   4.577  0.00  0.00    +0.187 C 
ENDROOT
BRANCH   2   3
ATOM      3  C   LIG    1       22.348 -17.521   4.432  0.00  0.00    +0.125 C 
BRANCH   3   4
ATOM      4  N   LIG    1       23.616 -18.219   4.170  0.00  0.00    -0.310 NA
ATOM      5  H   LIG    1       24.253 -18.081   4.954  0.00  0.00    +0.122 HD
BRANCH   4   6
ATOM      6  C   LIG    1       23.456 -19.660   3.912  0.00  0.00    +0.054 C 
ATOM      7  C   LIG    1       24.775 -20.457   3.912  0.00  0.00    +0.019 C 
ATOM      8  C   LIG    1       25.455 -20.467   5.282  0.00  0.00    +0.002 C 
ATOM      9  C   LIG    1       24.523 -21.013   6.359  0.00  0.00    +0.000 C 
ATOM     10  C   LIG    1       23.182 -20.282   6.380  0.00  0.00    +0.002 C 
ATOM     11  C   LIG    1       22.530 -20.254   4.994  0.00  0.00    +0.019 C 
ENDBRANCH   4   6
ENDBRANCH   3   4
ENDBRANCH   2   3
BRANCH   2  12
ATOM     12  O   LIG    1       23.864 -15.572   4.376  0.00  0.00    -0.457 OA
BRANCH  12  13
ATOM     13  C   LIG    1       24.065 -14.382   3.759  0.00  0.00    +0.340 C 
ATOM     14  O   LIG    1       23.219 -13.679   3.231  0.00  0.00    -0.245 OA
BRANCH  13  15
ATOM     15  C   LIG    1       25.503 -14.024   3.867  0.00  0.00    +0.059 A 
ATOM     16  C   LIG    1       26.301 -14.115   2.724  0.00  0.00    +0.015 A 
ATOM     17  C   LIG    1       27.663 -13.795   2.794  0.00  0.00    +0.001 A 
ATOM     18  C   LIG    1       28.224 -13.395   4.006  0.00  0.00    +0.000 A 
ATOM     19  C   LIG    1       27.431 -13.307   5.151  0.00  0.00    +0.001 A 
ATOM     20  C   LIG    1       26.073 -13.622   5.084  0.00  0.00    +0.015 A 
ENDBRANCH  13  15
ENDBRANCH  12  13
ENDBRANCH   2  12
TORSDOF 6
ENDMDL
MODEL 4
REMARK VINA RESULT:      -5.6      2.420      6.991
REMARK  Name = *****
REMARK                            x       y       z     vdW  Elec       q    Type
REMARK                         _______ _______ _______ _____ _____    ______ ____
ROOT
ATOM      1  C   LIG    1       21.977 -18.275   4.159  0.00  0.00    +0.053 C 
ATOM      2  C   LIG    1       23.355 -17.661   4.406  0.00  0.00    +0.187 C 
ENDROOT
BRANCH   2   3
ATOM      3  C   LIG    1       23.373 -16.131   4.160  0.00  0.00    +0.125 C 
BRANCH   3   4
ATOM      4  N   LIG    1       24.708 -15.593   3.854  0.00  0.00    -0.310 NA
ATOM      5  H   LIG    1       25.070 -16.032   3.008  0.00  0.00    +0.122 HD
BRANCH   4   6
ATOM      6  C   LIG    1       24.735 -14.129   3.700  0.00  0.00    +0.054 C 
ATOM      7  C   LIG    1       25.415 -13.380   4.863  0.00  0.00    +0.019 C 
ATOM      8  C   LIG    1       26.906 -13.701   4.975  0.00  0.00    +0.002 C 
ATOM      9  C   LIG    1       27.637 -13.402   3.669  0.00  0.00    +0.000 C 
ATOM     10  C   LIG    1       26.981 -14.091   2.475  0.00  0.00    +0.002 C 
ATOM     11  C   LIG    1       25.482 -13.784   2.396  0.00  0.00    +0.019 C 
ENDBRANCH   4   6
ENDBRANCH   3   4
ENDBRANCH   2   3
BRANCH   2  12
ATOM     12  O   LIG    1       24.282 -18.340   3.536  0.00  0.00    -0.457 OA
BRANCH  12  13
ATOM     13  C   LIG    1       24.365 -19.688   3.652  0.00  0.00    +0.340 C 
ATOM     14  O   LIG    1       23.858 -20.518   2.915  0.00  0.00    -0.245 OA
BRANCH  13  15
ATOM     15  C   LIG    1       25.230 -20.016   4.814  0.00  0.00    +0.059 A 
ATOM     16  C   LIG    1       24.643 -20.599   5.940  0.00  0.00    +0.015 A 
ATOM     17  C   LIG    1       25.428 -20.910   7.057  0.00  0.00    +0.001 A 
ATOM     18  C   LIG    1       26.794 -20.632   7.049  0.00  0.00    +0.000 A 
ATOM     19  C   LIG    1       27.383 -20.046   5.928  0.00  0.00    +0.001 A 
ATOM     20  C   LIG    1       26.605 -19.737   4.812  0.00  0.00    +0.015 A 
ENDBRANCH  13  15
ENDBRANCH  12  13
ENDBRANCH   2  12
TORSDOF 6
ENDMDL
MODEL 5
REMARK VINA RESULT:      -5.3      2.820      7.002
REMARK  Name = *****
REMARK                            x       y       z     vdW  Elec       q    Type
REMARK                         _______ _______ _______ _____ _____    ______ ____
ROOT
ATOM      1  C   LIG    1       23.070 -18.439   3.799  0.00  0.00    +0.053 C 
ATOM      2  C   LIG    1       24.576 -18.384   4.061  0.00  0.00    +0.187 C 
ENDROOT
BRANCH   2   3
ATOM      3  C   LIG    1       25.329 -17.544   2.999  0.00  0.00    +0.125 C 
BRANCH   3   4
ATOM      4  N   LIG    1       26.289 -16.586   3.569  0.00  0.00    -0.310 NA
ATOM      5  H   LIG    1       27.228 -16.981   3.540  0.00  0.00    +0.122 HD
BRANCH   4   6
ATOM      6  C   LIG    1       26.284 -15.275   2.898  0.00  0.00    +0.054 C 
ATOM      7  C   LIG    1       24.980 -14.474   3.077  0.00  0.00    +0.019 C 
ATOM      8  C   LIG    1       24.732 -14.072   4.532  0.00  0.00    +0.002 C 
ATOM      9  C   LIG    1       25.906 -13.278   5.094  0.00  0.00    +0.000 C 
ATOM     10  C   LIG    1       27.233 -14.011   4.911  0.00  0.00    +0.002 C 
ATOM     11  C   LIG    1       27.451 -14.433   3.454  0.00  0.00    +0.019 C 
ENDBRANCH   4   6
ENDBRANCH   3   4
ENDBRANCH   2   3
BRANCH   2  12
ATOM     12  O   LIG    1       25.050 -19.746   4.082  0.00  0.00    -0.457 OA
BRANCH  12  13
ATOM     13  C   LIG    1       25.138 -20.352   5.291  0.00  0.00    +0.340 C 
ATOM     14  O   LIG    1       24.221 -20.838   5.933  0.00  0.00    -0.245 OA
BRANCH  13  15
ATOM     15  C   LIG    1       26.562 -20.382   5.710  0.00  0.00    +0.059 A 
ATOM     16  C   LIG    1       26.965 -21.348   6.636  0.00  0.00    +0.015 A 
ATOM     17  C   LIG    1       28.299 -21.397   7.062  0.00  0.00    +0.001 A 
ATOM     18  C   LIG    1       29.222 -20.476   6.568  0.00  0.00    +0.000 A 
ATOM     19  C   LIG    1       28.823 -19.508   5.648  0.00  0.00    +0.001 A 
ATOM     20  C   LIG    1       27.495 -19.458   5.219  0.00  0.00    +0.015 A 
ENDBRANCH  13  15
ENDBRANCH  12  13
ENDBRANCH   2  12
TORSDOF 6
ENDMDL
MODEL 6
REMARK VINA RESULT:      -5.3      1.741      2.228
REMARK  Name = *****
REMARK                            x       y       z     vdW  Elec       q    Type
REMARK                         _______ _______ _______ _____ _____    ______ ____
ROOT
ATOM      1  C   LIG    1       27.809 -17.394   4.246  0.00  0.00    +0.053 C 
ATOM      2  C   LIG    1       26.329 -17.312   3.870  0.00  0.00    +0.187 C 
ENDROOT
BRANCH   2   3
ATOM      3  C   LIG    1       25.830 -18.593   3.155  0.00  0.00    +0.125 C 
BRANCH   3   4
ATOM      4  N   LIG    1       25.918 -19.808   3.980  0.00  0.00    -0.310 NA
ATOM      5  H   LIG    1       25.981 -19.552   4.964  0.00  0.00    +0.122 HD
BRANCH   4   6
ATOM      6  C   LIG    1       24.793 -20.739   3.784  0.00  0.00    +0.054 C 
ATOM      7  C   LIG    1       24.431 -21.570   5.030  0.00  0.00    +0.019 C 
ATOM      8  C   LIG    1       23.915 -20.707   6.182  0.00  0.00    +0.002 C 
ATOM      9  C   LIG    1       22.713 -19.872   5.753  0.00  0.00    +0.000 C 
ATOM     10  C   LIG    1       23.004 -19.053   4.497  0.00  0.00    +0.002 C 
ATOM     11  C   LIG    1       23.550 -19.927   3.364  0.00  0.00    +0.019 C 
ENDBRANCH   4   6
ENDBRANCH   3   4
ENDBRANCH   2   3
BRANCH   2  12
ATOM     12  O   LIG    1       26.170 -16.151   3.030  0.00  0.00    -0.457 OA
BRANCH  12  13
ATOM     13  C   LIG    1       25.596 -15.058   3.589  0.00  0.00    +0.340 C 
ATOM     14  O   LIG    1       24.402 -14.865   3.760  0.00  0.00    -0.245 OA
BRANCH  13  15
ATOM     15  C   LIG    1       26.665 -14.123   4.022  0.00  0.00    +0.059 A 
ATOM     16  C   LIG    1       27.667 -13.786   3.107  0.00  0.00    +0.015 A 
ATOM     17  C   LIG    1       28.697 -12.915   3.486  0.00  0.00    +0.001 A 
ATOM     18  C   LIG    1       28.727 -12.392   4.778  0.00  0.00    +0.000 A 
ATOM     19  C   LIG    1       27.732 -12.729   5.695  0.00  0.00    +0.001 A 
ATOM     20  C   LIG    1       26.702 -13.594   5.320  0.00  0.00    +0.015 A 
ENDBRANCH  13  15
ENDBRANCH  12  13
ENDBRANCH   2  12
TORSDOF 6
ENDMDL
MODEL 7
REMARK VINA RESULT:      -5.2      1.867      6.727
REMARK  Name = *****
REMARK                            x       y       z     vdW  Elec       q    Type
REMARK                         _______ _______ _______ _____ _____    ______ ____
ROOT
ATOM      1  C   LIG    1       27.984 -18.335   4.810  0.00  0.00    +0.053 C 
ATOM      2  C   LIG    1       27.089 -17.713   3.738  0.00  0.00    +0.187 C 
ENDROOT
BRANCH   2   3
ATOM      3  C   LIG    1       27.228 -16.170   3.676  0.00  0.00    +0.125 C 
BRANCH   3   4
ATOM      4  N   LIG    1       26.156 -15.507   2.919  0.00  0.00    -0.310 NA
ATOM      5  H   LIG    1       25.269 -15.613   3.411  0.00  0.00    +0.122 HD
BRANCH   4   6
ATOM      6  C   LIG    1       26.409 -14.078   2.663  0.00  0.00    +0.054 C 
ATOM      7  C   LIG    1       25.186 -13.300   2.138  0.00  0.00    +0.019 C 
ATOM      8  C   LIG    1       24.052 -13.230   3.161  0.00  0.00    +0.002 C 
ATOM      9  C   LIG    1       24.528 -12.618   4.475  0.00  0.00    +0.000 C 
ATOM     10  C   LIG    1       25.763 -13.329   5.023  0.00  0.00    +0.002 C 
ATOM     11  C   LIG    1       26.878 -13.419   3.976  0.00  0.00    +0.019 C 
ENDBRANCH   4   6
ENDBRANCH   3   4
ENDBRANCH   2   3
BRANCH   2  12
ATOM     12  O   LIG    1       25.734 -18.102   4.042  0.00  0.00    -0.457 OA
BRANCH  12  13
ATOM     13  C   LIG    1       25.358 -19.356   3.690  0.00  0.00    +0.340 C 
ATOM     14  O   LIG    1       25.528 -19.894   2.607  0.00  0.00    -0.245 OA
BRANCH  13  15
ATOM     15  C   LIG    1       24.734 -20.016   4.864  0.00  0.00    +0.059 A 
ATOM     16  C   LIG    1       23.340 -20.099   4.921  0.00  0.00    +0.015 A 
ATOM     17  C   LIG    1       22.719 -20.706   6.020  0.00  0.00    +0.001 A 
ATOM     18  C   LIG    1       23.491 -21.219   7.062  0.00  0.00    +0.000 A 
ATOM     19  C   LIG    1       24.882 -21.134   7.011  0.00  0.00    +0.001 A 
ATOM     20  C   LIG    1       25.505 -20.533   5.916  0.00  0.00    +0.015 A 
ENDBRANCH  13  15
ENDBRANCH  12  13
ENDBRANCH   2  12
TORSDOF 6
ENDMDL
MODEL 8
REMARK VINA RESULT:      -5.0      2.467      6.773
REMARK  Name = *****
REMARK                            x       y       z     vdW  Elec       q    Type
REMARK                         _______ _______ _______ _____ _____    ______ ____
ROOT
ATOM      1  C   LIG    1       29.474 -18.200   5.506  0.00  0.00    +0.053 C 
ATOM      2  C   LIG    1       28.154 -18.748   4.964  0.00  0.00    +0.187 C 
ENDROOT
BRANCH   2   3
ATOM      3  C   LIG    1       27.408 -17.721   4.075  0.00  0.00    +0.125 C 
BRANCH   3   4
ATOM      4  N   LIG    1       27.669 -16.319   4.438  0.00  0.00    -0.310 NA
ATOM      5  H   LIG    1       28.656 -16.200   4.664  0.00  0.00    +0.122 HD
BRANCH   4   6
ATOM      6  C   LIG    1       27.281 -15.356   3.393  0.00  0.00    +0.054 C 
ATOM      7  C   LIG    1       25.760 -15.170   3.233  0.00  0.00    +0.019 C 
ATOM      8  C   LIG    1       25.110 -14.553   4.472  0.00  0.00    +0.002 C 
ATOM      9  C   LIG    1       25.757 -13.220   4.831  0.00  0.00    +0.000 C 
ATOM     10  C   LIG    1       27.273 -13.338   4.967  0.00  0.00    +0.002 C 
ATOM     11  C   LIG    1       27.905 -13.987   3.731  0.00  0.00    +0.019 C 
ENDBRANCH   4   6
ENDBRANCH   3   4
ENDBRANCH   2   3
BRANCH   2  12
ATOM     12  O   LIG    1       27.356 -19.129   6.103  0.00  0.00    -0.457 OA
BRANCH  12  13
ATOM     13  C   LIG    1       27.021 -20.437   6.214  0.00  0.00    +0.340 C 
ATOM     14  O   LIG    1       27.763 -21.360   6.508  0.00  0.00    -0.245 OA
BRANCH  13  15
ATOM     15  C   LIG    1       25.564 -20.582   5.965  0.00  0.00    +0.059 A 
ATOM     16  C   LIG    1       24.713 -20.747   7.062  0.00  0.00    +0.015 A 
ATOM     17  C   LIG    1       23.335 -20.897   6.862  0.00  0.00    +0.001 A 
ATOM     18  C   LIG    1       22.813 -20.891   5.570  0.00  0.00    +0.000 A 
ATOM     19  C   LIG    1       23.659 -20.731   4.473  0.00  0.00    +0.001 A 
ATOM     20  C   LIG    1       25.033 -20.578   4.668  0.00  0.00    +0.015 A 
ENDBRANCH  13  15
ENDBRANCH  12  13
ENDBRANCH   2  12
TORSDOF 6
ENDMDL
MODEL 9
REMARK VINA RESULT:      -4.9      2.579      7.221
REMARK  Name = *****
REMARK                            x       y       z     vdW  Elec       q    Type
REMARK                         _______ _______ _______ _____ _____    ______ ____
ROOT
ATOM      1  C   LIG    1       21.634 -16.202   5.569  0.00  0.00    +0.053 C 
ATOM      2  C   LIG    1       22.961 -16.230   4.811  0.00  0.00    +0.187 C 
ENDROOT
BRANCH   2   3
ATOM      3  C   LIG    1       23.317 -14.853   4.194  0.00  0.00    +0.125 C 
BRANCH   3   4
ATOM      4  N   LIG    1       24.727 -14.728   3.793  0.00  0.00    -0.310 NA
ATOM      5  H   LIG    1       24.866 -15.160   2.880  0.00  0.00    +0.122 HD
BRANCH   4   6
ATOM      6  C   LIG    1       25.211 -13.337   3.759  0.00  0.00    +0.054 C 
ATOM      7  C   LIG    1       26.038 -12.921   4.991  0.00  0.00    +0.019 C 
ATOM      8  C   LIG    1       27.351 -13.697   5.107  0.00  0.00    +0.002 C 
ATOM      9  C   LIG    1       28.194 -13.548   3.845  0.00  0.00    +0.000 C 
ATOM     10  C   LIG    1       27.411 -13.913   2.586  0.00  0.00    +0.002 C 
ATOM     11  C   LIG    1       26.085 -13.151   2.502  0.00  0.00    +0.019 C 
ENDBRANCH   4   6
ENDBRANCH   3   4
ENDBRANCH   2   3
BRANCH   2  12
ATOM     12  O   LIG    1       22.844 -17.243   3.792  0.00  0.00    -0.457 OA
BRANCH  12  13
ATOM     13  C   LIG    1       22.187 -18.381   4.124  0.00  0.00    +0.340 C 
ATOM     14  O   LIG    1       21.002 -18.619   3.953  0.00  0.00    -0.245 OA
BRANCH  13  15
ATOM     15  C   LIG    1       23.160 -19.345   4.698  0.00  0.00    +0.059 A 
ATOM     16  C   LIG    1       22.827 -20.004   5.885  0.00  0.00    +0.015 A 
ATOM     17  C   LIG    1       23.727 -20.910   6.459  0.00  0.00    +0.001 A 
ATOM     18  C   LIG    1       24.958 -21.150   5.852  0.00  0.00    +0.000 A 
ATOM     19  C   LIG    1       25.297 -20.491   4.670  0.00  0.00    +0.001 A 
ATOM     20  C   LIG    1       24.401 -19.589   4.093  0.00  0.00    +0.015 A 
ENDBRANCH  13  15
ENDBRANCH  12  13
ENDBRANCH   2  12
TORSDOF 6
ENDMDL
