MODEL 1
REMARK VINA RESULT:      -4.3      0.000      0.000
REMARK  Name = *****
REMARK                            x       y       z     vdW  Elec       q    Type
REMARK                         _______ _______ _______ _____ _____    ______ ____
ROOT
ATOM      1  C   LIG    1       24.819 -28.760  11.102  0.00  0.00    +0.159 C 
ATOM      2  C   LIG    1       25.841 -28.894   9.942  0.00  0.00    +0.237 C 
ATOM      3  O   LIG    1       26.780 -29.684   9.894  0.00  0.00    -0.274 OA
ATOM      4  N   LIG    1       25.473 -28.110   8.842  0.00  0.00    -0.285 N 
ATOM      5  C   LIG    1       25.225 -28.776   7.559  0.00  0.00    +0.166 C 
ATOM      6  C   LIG    1       26.318 -28.269   6.613  0.00  0.00    +0.078 C 
ATOM      7  C   LIG    1       26.496 -26.824   7.076  0.00  0.00    +0.195 C 
ATOM      8  C   LIG    1       24.935 -30.302   7.551  0.00  0.00    +0.234 C 
ATOM      9  O   LIG    1       23.797 -30.758   7.676  0.00  0.00    -0.274 OA
ATOM     10  N   LIG    1       26.033 -31.127   7.475  0.00  0.00    -0.299 N 
ATOM     11  H   LIG    1       26.961 -30.729   7.552  0.00  0.00    +0.150 HD
ATOM     12  C   LIG    1       25.924 -32.558   7.286  0.00  0.00    +0.119 C 
ATOM     13  C   LIG    1       25.885 -33.552   8.442  0.00  0.00    +0.046 C 
ATOM     14  C   LIG    1       26.030 -33.273   9.879  0.00  0.00    -0.025 C 
ATOM     15  C   LIG    1       25.136 -33.599  10.830  0.00  0.00    -0.031 C 
ATOM     16  C   LIG    1       25.456 -33.657  12.306  0.00  0.00    +0.027 C 
ATOM     17  C   LIG    1       25.009 -32.448  13.121  0.00  0.00    +0.004 C 
ATOM     18  C   LIG    1       25.875 -31.224  12.833  0.00  0.00    +0.000 C 
ATOM     19  C   LIG    1       25.257 -29.952  13.402  0.00  0.00    +0.002 C 
ATOM     20  C   LIG    1       27.153 -33.387   7.649  0.00  0.00    +0.046 C 
ATOM     21  C   LIG    1       26.361 -26.968   8.600  0.00  0.00    +0.153 C 
ATOM     22  C   LIG    1       25.479 -28.734  12.500  0.00  0.00    +0.032 C 
ENDROOT
BRANCH   1  24
ATOM     23  C   LIG    1       22.502 -29.658  11.475  0.00  0.00    +0.265 C 
ATOM     24  N   LIG    1       23.767 -29.766  10.932  0.00  0.00    -0.299 N 
ATOM     25  H   LIG    1       23.942 -30.577  10.340  0.00  0.00    +0.150 HD
ATOM     26  O   LIG    1       22.145 -28.725  12.186  0.00  0.00    -0.269 OA
BRANCH  23  31
ATOM     27  C   LIG    1       18.857 -33.825  10.130  0.00  0.00    +0.067 C 
ATOM     28  C   LIG    1       19.790 -32.701  10.467  0.00  0.00    +0.056 A 
ATOM     29  N   LIG    1       19.296 -31.616  11.113  0.00  0.00    -0.256 NA
ATOM     30  C   LIG    1       20.205 -30.652  11.434  0.00  0.00    +0.144 A 
ATOM     31  C   LIG    1       21.554 -30.760  11.120  0.00  0.00    +0.143 A 
ATOM     32  N   LIG    1       22.058 -31.844  10.467  0.00  0.00    -0.247 NA
ATOM     33  C   LIG    1       21.146 -32.803  10.166  0.00  0.00    +0.134 A 
ENDBRANCH  23  31
ENDBRANCH   1  24
BRANCH  12  34
ATOM     34  C   LIG    1       25.267 -32.997   5.981  0.00  0.00    +0.256 C 
ATOM     35  N   LIG    1       25.931 -32.635   4.808  0.00  0.00    -0.188 N 
ATOM     36  H   LIG    1       26.910 -32.347   4.846  0.00  0.00    +0.176 HD
ATOM     37  O   LIG    1       24.183 -33.560   6.006  0.00  0.00    -0.272 OA
BRANCH  35  38
ATOM     38  S   LIG    1       25.316 -32.917   3.292  0.00  0.00    +0.048 S 
ATOM     39  O   LIG    1       25.138 -31.647   2.605  0.00  0.00    -0.155 OA
ATOM     40  O   LIG    1       24.211 -33.825   3.463  0.00  0.00    -0.155 OA
BRANCH  38  41
ATOM     41  C   LIG    1       26.627 -33.805   2.388  0.00  0.00    +0.151 C 
ATOM     42  C   LIG    1       27.772 -32.962   1.884  0.00  0.00    +0.030 C 
ATOM     43  C   LIG    1       27.952 -33.825   3.103  0.00  0.00    +0.030 C 
ENDBRANCH  38  41
ENDBRANCH  35  38
ENDBRANCH  12  34
BRANCH   7  44
ATOM     44  O   LIG    1       25.423 -26.004   6.600  0.00  0.00    -0.471 OA
BRANCH  44  45
ATOM     45  C   LIG    1       25.590 -24.636   6.750  0.00  0.00    +0.224 A 
ATOM     46  C   LIG    1       24.427 -23.852   6.737  0.00  0.00    +0.044 A 
ATOM     47  C   LIG    1       24.576 -22.463   6.946  0.00  0.00    -0.004 A 
ATOM     48  C   LIG    1       23.393 -21.677   6.941  0.00  0.00    +0.009 A 
ATOM     49  C   LIG    1       22.128 -22.233   6.731  0.00  0.00    +0.001 A 
ATOM     50  C   LIG    1       22.001 -23.596   6.521  0.00  0.00    +0.001 A 
ATOM     51  C   LIG    1       25.890 -21.931   7.149  0.00  0.00    +0.008 A 
ATOM     52  C   LIG    1       26.981 -22.831   7.103  0.00  0.00    +0.075 A 
ATOM     53  C   LIG    1       28.269 -22.338   7.280  0.00  0.00    +0.028 A 
ATOM     54  C   LIG    1       28.525 -20.986   7.519  0.00  0.00    +0.002 A 
ATOM     55  C   LIG    1       27.468 -20.093   7.583  0.00  0.00    +0.001 A 
ATOM     56  C   LIG    1       26.168 -20.560   7.397  0.00  0.00    +0.010 A 
ATOM     57  C   LIG    1       23.139 -24.398   6.528  0.00  0.00    +0.014 A 
ATOM     58  N   LIG    1       26.838 -24.151   6.907  0.00  0.00    -0.212 NA
ENDBRANCH  44  45
ENDBRANCH   7  44
TORSDOF 7
ENDMDL
MODEL 2
REMARK VINA RESULT:      -3.9      3.441      9.498
REMARK  Name = *****
REMARK                            x       y       z     vdW  Elec       q    Type
REMARK                         _______ _______ _______ _____ _____    ______ ____
ROOT
ATOM      1  C   LIG    1       22.860 -32.627   8.053  0.00  0.00    +0.159 C 
ATOM      2  C   LIG    1       22.835 -32.908   9.579  0.00  0.00    +0.237 C 
ATOM      3  O   LIG    1       23.735 -33.427  10.233  0.00  0.00    -0.274 OA
ATOM      4  N   LIG    1       21.709 -32.339  10.186  0.00  0.00    -0.285 N 
ATOM      5  C   LIG    1       21.913 -31.341  11.241  0.00  0.00    +0.166 C 
ATOM      6  C   LIG    1       21.362 -31.976  12.522  0.00  0.00    +0.078 C 
ATOM      7  C   LIG    1       20.174 -32.780  11.994  0.00  0.00    +0.195 C 
ATOM      8  C   LIG    1       23.289 -30.627  11.342  0.00  0.00    +0.234 C 
ATOM      9  O   LIG    1       23.543 -29.594  10.719  0.00  0.00    -0.274 OA
ATOM     10  N   LIG    1       24.243 -31.256  12.108  0.00  0.00    -0.299 N 
ATOM     11  H   LIG    1       24.063 -32.188  12.461  0.00  0.00    +0.150 HD
ATOM     12  C   LIG    1       25.510 -30.639  12.439  0.00  0.00    +0.119 C 
ATOM     13  C   LIG    1       26.774 -30.831  11.607  0.00  0.00    +0.046 C 
ATOM     14  C   LIG    1       26.960 -31.694  10.431  0.00  0.00    -0.025 C 
ATOM     15  C   LIG    1       27.379 -31.283   9.220  0.00  0.00    -0.031 C 
ATOM     16  C   LIG    1       27.924 -32.207   8.157  0.00  0.00    +0.027 C 
ATOM     17  C   LIG    1       26.946 -32.577   7.047  0.00  0.00    +0.004 C 
ATOM     18  C   LIG    1       25.873 -33.544   7.541  0.00  0.00    +0.000 C 
ATOM     19  C   LIG    1       24.732 -33.679   6.540  0.00  0.00    +0.002 C 
ATOM     20  C   LIG    1       26.620 -31.577  12.904  0.00  0.00    +0.046 C 
ATOM     21  C   LIG    1       20.730 -33.320  10.667  0.00  0.00    +0.153 C 
ATOM     22  C   LIG    1       23.367 -33.825   7.217  0.00  0.00    +0.032 C 
ENDROOT
BRANCH   1  24
ATOM     23  C   LIG    1       23.646 -30.752   6.576  0.00  0.00    +0.265 C 
ATOM     24  N   LIG    1       23.560 -31.362   7.811  0.00  0.00    -0.299 N 
ATOM     25  H   LIG    1       23.973 -30.861   8.596  0.00  0.00    +0.150 HD
ATOM     26  O   LIG    1       23.174 -31.228   5.548  0.00  0.00    -0.269 OA
BRANCH  23  31
ATOM     27  C   LIG    1       26.325 -25.724   6.544  0.00  0.00    +0.067 C 
ATOM     28  C   LIG    1       25.655 -27.065   6.567  0.00  0.00    +0.056 A 
ATOM     29  N   LIG    1       25.738 -27.816   7.692  0.00  0.00    -0.256 NA
ATOM     30  C   LIG    1       25.066 -29.002   7.665  0.00  0.00    +0.144 A 
ATOM     31  C   LIG    1       24.343 -29.428   6.558  0.00  0.00    +0.143 A 
ATOM     32  N   LIG    1       24.258 -28.683   5.422  0.00  0.00    -0.247 NA
ATOM     33  C   LIG    1       24.919 -27.497   5.466  0.00  0.00    +0.134 A 
ENDBRANCH  23  31
ENDBRANCH   1  24
BRANCH  12  34
ATOM     34  C   LIG    1       25.419 -29.359  13.264  0.00  0.00    +0.256 C 
ATOM     35  N   LIG    1       25.747 -28.177  12.599  0.00  0.00    -0.188 N 
ATOM     36  H   LIG    1       25.770 -28.157  11.578  0.00  0.00    +0.176 HD
ATOM     37  O   LIG    1       25.150 -29.422  14.454  0.00  0.00    -0.272 OA
BRANCH  35  38
ATOM     38  S   LIG    1       25.823 -26.701  13.354  0.00  0.00    +0.048 S 
ATOM     39  O   LIG    1       26.352 -25.715  12.424  0.00  0.00    -0.155 OA
ATOM     40  O   LIG    1       26.455 -26.927  14.628  0.00  0.00    -0.155 OA
BRANCH  38  41
ATOM     41  C   LIG    1       24.092 -26.222  13.673  0.00  0.00    +0.151 C 
ATOM     42  C   LIG    1       23.459 -26.811  14.909  0.00  0.00    +0.030 C 
ATOM     43  C   LIG    1       23.913 -25.377  14.905  0.00  0.00    +0.030 C 
ENDBRANCH  38  41
ENDBRANCH  35  38
ENDBRANCH  12  34
BRANCH   7  44
ATOM     44  O   LIG    1       19.068 -31.917  11.706  0.00  0.00    -0.471 OA
BRANCH  44  45
ATOM     45  C   LIG    1       18.819 -30.917  12.633  0.00  0.00    +0.224 A 
ATOM     46  C   LIG    1       17.800 -31.159  13.566  0.00  0.00    +0.044 A 
ATOM     47  C   LIG    1       17.574 -30.174  14.553  0.00  0.00    -0.004 A 
ATOM     48  C   LIG    1       16.546 -30.431  15.499  0.00  0.00    +0.009 A 
ATOM     49  C   LIG    1       15.776 -31.595  15.467  0.00  0.00    +0.001 A 
ATOM     50  C   LIG    1       16.007 -32.548  14.489  0.00  0.00    +0.001 A 
ATOM     51  C   LIG    1       18.379 -28.990  14.546  0.00  0.00    +0.008 A 
ATOM     52  C   LIG    1       19.350 -28.858  13.526  0.00  0.00    +0.075 A 
ATOM     53  C   LIG    1       20.135 -27.711  13.486  0.00  0.00    +0.028 A 
ATOM     54  C   LIG    1       20.010 -26.688  14.429  0.00  0.00    +0.002 A 
ATOM     55  C   LIG    1       19.075 -26.807  15.445  0.00  0.00    +0.001 A 
ATOM     56  C   LIG    1       18.269 -27.942  15.500  0.00  0.00    +0.010 A 
ATOM     57  C   LIG    1       17.012 -32.334  13.550  0.00  0.00    +0.014 A 
ATOM     58  N   LIG    1       19.567 -29.796  12.590  0.00  0.00    -0.212 NA
ENDBRANCH  44  45
ENDBRANCH   7  44
TORSDOF 7
ENDMDL
MODEL 3
REMARK VINA RESULT:      -2.3      3.847      7.966
REMARK  Name = *****
REMARK                            x       y       z     vdW  Elec       q    Type
REMARK                         _______ _______ _______ _____ _____    ______ ____
ROOT
ATOM      1  C   LIG    1       26.702 -29.910  10.509  0.00  0.00    +0.159 C 
ATOM      2  C   LIG    1       26.107 -31.343  10.532  0.00  0.00    +0.237 C 
ATOM      3  O   LIG    1       26.413 -32.240  11.313  0.00  0.00    -0.274 OA
ATOM      4  N   LIG    1       25.029 -31.464   9.647  0.00  0.00    -0.285 N 
ATOM      5  C   LIG    1       23.717 -31.835  10.190  0.00  0.00    +0.166 C 
ATOM      6  C   LIG    1       23.398 -33.210   9.594  0.00  0.00    +0.078 C 
ATOM      7  C   LIG    1       24.012 -33.104   8.199  0.00  0.00    +0.195 C 
ATOM      8  C   LIG    1       23.453 -31.643  11.708  0.00  0.00    +0.234 C 
ATOM      9  O   LIG    1       23.023 -30.587  12.175  0.00  0.00    -0.274 OA
ATOM     10  N   LIG    1       23.801 -32.697  12.521  0.00  0.00    -0.299 N 
ATOM     11  H   LIG    1       24.314 -33.478  12.131  0.00  0.00    +0.150 HD
ATOM     12  C   LIG    1       23.463 -32.743  13.928  0.00  0.00    +0.119 C 
ATOM     13  C   LIG    1       24.395 -32.242  15.027  0.00  0.00    +0.046 C 
ATOM     14  C   LIG    1       25.765 -31.727  14.885  0.00  0.00    -0.025 C 
ATOM     15  C   LIG    1       26.192 -30.521  15.301  0.00  0.00    -0.031 C 
ATOM     16  C   LIG    1       27.646 -30.161  15.497  0.00  0.00    +0.027 C 
ATOM     17  C   LIG    1       28.278 -29.349  14.371  0.00  0.00    +0.004 C 
ATOM     18  C   LIG    1       28.508 -30.200  13.124  0.00  0.00    +0.000 C 
ATOM     19  C   LIG    1       28.849 -29.342  11.912  0.00  0.00    +0.002 C 
ATOM     20  C   LIG    1       24.261 -33.721  14.786  0.00  0.00    +0.046 C 
ATOM     21  C   LIG    1       25.301 -32.318   8.487  0.00  0.00    +0.153 C 
ATOM     22  C   LIG    1       28.245 -29.885  10.615  0.00  0.00    +0.032 C 
ENDROOT
BRANCH   1  24
ATOM     23  C   LIG    1       26.165 -27.719  11.615  0.00  0.00    +0.265 C 
ATOM     24  N   LIG    1       26.000 -29.084  11.496  0.00  0.00    -0.299 N 
ATOM     25  H   LIG    1       25.307 -29.515  12.106  0.00  0.00    +0.150 HD
ATOM     26  O   LIG    1       26.945 -27.066  10.931  0.00  0.00    -0.269 OA
BRANCH  23  31
ATOM     27  C   LIG    1       22.885 -25.146  15.499  0.00  0.00    +0.067 C 
ATOM     28  C   LIG    1       23.748 -25.788  14.455  0.00  0.00    +0.056 A 
ATOM     29  N   LIG    1       24.856 -25.132  14.032  0.00  0.00    -0.256 NA
ATOM     30  C   LIG    1       25.624 -25.792  13.118  0.00  0.00    +0.144 A 
ATOM     31  C   LIG    1       25.298 -27.053  12.638  0.00  0.00    +0.143 A 
ATOM     32  N   LIG    1       24.184 -27.718  13.053  0.00  0.00    -0.247 NA
ATOM     33  C   LIG    1       23.436 -27.058  13.974  0.00  0.00    +0.134 A 
ENDBRANCH  23  31
ENDBRANCH   1  24
BRANCH  12  34
ATOM     34  C   LIG    1       21.970 -32.747  14.243  0.00  0.00    +0.256 C 
ATOM     35  N   LIG    1       21.121 -32.405  13.189  0.00  0.00    -0.188 N 
ATOM     36  H   LIG    1       21.467 -32.427  12.229  0.00  0.00    +0.176 HD
ATOM     37  O   LIG    1       21.591 -32.964  15.383  0.00  0.00    -0.272 OA
BRANCH  35  38
ATOM     38  S   LIG    1       19.479 -32.238  13.364  0.00  0.00    +0.048 S 
ATOM     39  O   LIG    1       18.913 -33.508  13.792  0.00  0.00    -0.155 OA
ATOM     40  O   LIG    1       19.006 -31.585  12.170  0.00  0.00    -0.155 OA
BRANCH  38  41
ATOM     41  C   LIG    1       19.248 -31.082  14.755  0.00  0.00    +0.151 C 
ATOM     42  C   LIG    1       19.103 -29.626  14.390  0.00  0.00    +0.030 C 
ATOM     43  C   LIG    1       17.892 -30.428  14.783  0.00  0.00    +0.030 C 
ENDBRANCH  38  41
ENDBRANCH  35  38
ENDBRANCH  12  34
BRANCH   7  44
ATOM     44  O   LIG    1       23.182 -32.316   7.339  0.00  0.00    -0.471 OA
BRANCH  44  45
ATOM     45  C   LIG    1       23.831 -31.347   6.589  0.00  0.00    +0.224 A 
ATOM     46  C   LIG    1       24.573 -31.795   5.485  0.00  0.00    +0.044 A 
ATOM     47  C   LIG    1       25.192 -30.815   4.677  0.00  0.00    -0.004 A 
ATOM     48  C   LIG    1       25.933 -31.275   3.557  0.00  0.00    +0.009 A 
ATOM     49  C   LIG    1       26.065 -32.633   3.255  0.00  0.00    +0.001 A 
ATOM     50  C   LIG    1       25.456 -33.580   4.062  0.00  0.00    +0.001 A 
ATOM     51  C   LIG    1       25.041 -29.434   5.025  0.00  0.00    +0.008 A 
ATOM     52  C   LIG    1       24.293 -29.124   6.186  0.00  0.00    +0.075 A 
ATOM     53  C   LIG    1       24.145 -27.792   6.556  0.00  0.00    +0.028 A 
ATOM     54  C   LIG    1       24.695 -26.745   5.813  0.00  0.00    +0.002 A 
ATOM     55  C   LIG    1       25.416 -27.029   4.665  0.00  0.00    +0.001 A 
ATOM     56  C   LIG    1       25.589 -28.356   4.279  0.00  0.00    +0.010 A 
ATOM     57  C   LIG    1       24.714 -33.165   5.164  0.00  0.00    +0.014 A 
ATOM     58  N   LIG    1       23.703 -30.055   6.951  0.00  0.00    -0.212 NA
ENDBRANCH  44  45
ENDBRANCH   7  44
TORSDOF 7
ENDMDL
