MODEL 1
REMARK VINA RESULT:      -5.6      0.000      0.000
REMARK  Name = *****
REMARK                            x       y       z     vdW  Elec       q    Type
REMARK                         _______ _______ _______ _____ _____    ______ ____
ROOT
ATOM      1  C   LIG    1       22.022 -26.334  15.465  0.00  0.00    +0.034 C 
ATOM      2  C   LIG    1       22.662 -26.722  14.128  0.00  0.00    +0.122 C 
ATOM      3  N   LIG    1       24.067 -26.265  14.021  0.00  0.00    -0.337 NA
ATOM      4  C   LIG    1       24.876 -27.043  13.148  0.00  0.00    +0.097 C 
ATOM      5  C   LIG    1       26.191 -26.629  12.874  0.00  0.00    +0.052 C 
ATOM      6  C   LIG    1       26.715 -25.397  13.506  0.00  0.00    +0.204 C 
ATOM      7  C   LIG    1       25.773 -24.547  14.260  0.00  0.00    +0.122 C 
ATOM      8  O   LIG    1       27.897 -25.073  13.409  0.00  0.00    -0.286 OA
ATOM      9  C   LIG    1       27.008 -27.351  12.007  0.00  0.00    +0.054 C 
ATOM     10  C   LIG    1       26.521 -28.502  11.398  0.00  0.00    +0.149 C 
ATOM     11  F   LIG    1       27.372 -29.157  10.595  0.00  0.00    -0.203 F 
ATOM     12  C   LIG    1       25.217 -28.987  11.629  0.00  0.00    +0.110 C 
ATOM     13  C   LIG    1       24.414 -28.232  12.528  0.00  0.00    +0.168 C 
ATOM     14  O   LIG    1       23.120 -28.678  12.732  0.00  0.00    -0.486 OA
ATOM     15  C   LIG    1       24.536 -25.030  14.446  0.00  0.00    +0.105 C 
ATOM     16  C   LIG    1       22.609 -28.249  13.992  0.00  0.00    +0.254 C 
ENDROOT
BRANCH  12  17
ATOM     17  N   LIG    1       24.699 -30.165  11.031  0.00  0.00    -0.322 NA
ATOM     18  C   LIG    1       25.386 -31.393  11.496  0.00  0.00    +0.120 C 
ATOM     19  C   LIG    1       24.693 -32.666  10.941  0.00  0.00    +0.103 C 
ATOM     20  N   LIG    1       24.481 -32.691   9.476  0.00  0.00    -0.302 NA
ATOM     21  C   LIG    1       25.743 -32.857   8.755  0.00  0.00    +0.105 C 
ATOM     22  C   LIG    1       23.788 -31.440   9.090  0.00  0.00    +0.103 C 
ATOM     23  C   LIG    1       24.475 -30.139   9.569  0.00  0.00    +0.120 C 
ENDBRANCH  12  17
BRANCH   7  24
ATOM     24  C   LIG    1       26.132 -23.230  14.822  0.00  0.00    +0.342 C 
ATOM     25  O   LIG    1       25.421 -22.238  14.717  0.00  0.00    -0.245 OA
BRANCH  24  26
ATOM     26  O   LIG    1       27.300 -23.211  15.499  0.00  0.00    -0.477 OA
ATOM     27  H   LIG    1       28.013 -22.692  15.052  0.00  0.00    +0.295 HD
ENDBRANCH  24  26
ENDBRANCH   7  24
TORSDOF 3
ENDMDL
MODEL 2
REMARK VINA RESULT:      -5.2      2.892      4.237
REMARK  Name = *****
REMARK                            x       y       z     vdW  Elec       q    Type
REMARK                         _______ _______ _______ _____ _____    ______ ____
ROOT
ATOM      1  C   LIG    1       28.353 -29.325  11.801  0.00  0.00    +0.034 C 
ATOM      2  C   LIG    1       26.966 -29.492  12.430  0.00  0.00    +0.122 C 
ATOM      3  N   LIG    1       26.351 -28.194  12.794  0.00  0.00    -0.337 NA
ATOM      4  C   LIG    1       24.929 -28.201  12.815  0.00  0.00    +0.097 C 
ATOM      5  C   LIG    1       24.240 -27.062  13.266  0.00  0.00    +0.052 C 
ATOM      6  C   LIG    1       25.006 -25.871  13.699  0.00  0.00    +0.204 C 
ATOM      7  C   LIG    1       26.472 -25.990  13.815  0.00  0.00    +0.122 C 
ATOM      8  O   LIG    1       24.450 -24.806  13.967  0.00  0.00    -0.286 OA
ATOM      9  C   LIG    1       22.849 -27.035  13.324  0.00  0.00    +0.054 C 
ATOM     10  C   LIG    1       22.121 -28.153  12.930  0.00  0.00    +0.149 C 
ATOM     11  F   LIG    1       20.786 -28.046  12.991  0.00  0.00    -0.203 F 
ATOM     12  C   LIG    1       22.738 -29.330  12.458  0.00  0.00    +0.110 C 
ATOM     13  C   LIG    1       24.159 -29.318  12.402  0.00  0.00    +0.168 C 
ATOM     14  O   LIG    1       24.775 -30.481  11.977  0.00  0.00    -0.486 OA
ATOM     15  C   LIG    1       27.024 -27.130  13.374  0.00  0.00    +0.105 C 
ATOM     16  C   LIG    1       26.065 -30.222  11.426  0.00  0.00    +0.254 C 
ENDROOT
BRANCH  12  17
ATOM     17  N   LIG    1       22.020 -30.480  12.040  0.00  0.00    -0.322 NA
ATOM     18  C   LIG    1       21.319 -30.279  10.749  0.00  0.00    +0.120 C 
ATOM     19  C   LIG    1       20.676 -31.600  10.250  0.00  0.00    +0.103 C 
ATOM     20  N   LIG    1       19.811 -32.299  11.227  0.00  0.00    -0.302 NA
ATOM     21  C   LIG    1       18.560 -31.575  11.449  0.00  0.00    +0.105 C 
ATOM     22  C   LIG    1       20.578 -32.468  12.484  0.00  0.00    +0.103 C 
ATOM     23  C   LIG    1       21.189 -31.166  13.054  0.00  0.00    +0.120 C 
ENDBRANCH  12  17
BRANCH   7  24
ATOM     24  C   LIG    1       27.337 -24.927  14.364  0.00  0.00    +0.342 C 
ATOM     25  O   LIG    1       28.483 -25.126  14.750  0.00  0.00    -0.245 OA
BRANCH  24  26
ATOM     26  O   LIG    1       26.776 -23.700  14.375  0.00  0.00    -0.477 OA
ATOM     27  H   LIG    1       27.284 -23.023  13.864  0.00  0.00    +0.295 HD
ENDBRANCH  24  26
ENDBRANCH   7  24
TORSDOF 3
ENDMDL
MODEL 3
REMARK VINA RESULT:      -5.2      3.850      6.324
REMARK  Name = *****
REMARK                            x       y       z     vdW  Elec       q    Type
REMARK                         _______ _______ _______ _____ _____    ______ ____
ROOT
ATOM      1  C   LIG    1       26.110 -31.573   7.396  0.00  0.00    +0.034 C 
ATOM      2  C   LIG    1       25.100 -31.809   8.524  0.00  0.00    +0.122 C 
ATOM      3  N   LIG    1       25.178 -30.771   9.578  0.00  0.00    -0.337 NA
ATOM      4  C   LIG    1       23.968 -30.571  10.300  0.00  0.00    +0.097 C 
ATOM      5  C   LIG    1       23.959 -29.700  11.402  0.00  0.00    +0.052 C 
ATOM      6  C   LIG    1       25.204 -28.997  11.788  0.00  0.00    +0.204 C 
ATOM      7  C   LIG    1       26.457 -29.379  11.109  0.00  0.00    +0.122 C 
ATOM      8  O   LIG    1       25.212 -28.123  12.653  0.00  0.00    -0.286 OA
ATOM      9  C   LIG    1       22.802 -29.494  12.149  0.00  0.00    +0.054 C 
ATOM     10  C   LIG    1       21.630 -30.159  11.802  0.00  0.00    +0.149 C 
ATOM     11  F   LIG    1       20.550 -29.893  12.552  0.00  0.00    -0.203 F 
ATOM     12  C   LIG    1       21.557 -31.041  10.705  0.00  0.00    +0.110 C 
ATOM     13  C   LIG    1       22.754 -31.219   9.958  0.00  0.00    +0.168 C 
ATOM     14  O   LIG    1       22.703 -32.112   8.903  0.00  0.00    -0.486 OA
ATOM     15  C   LIG    1       26.354 -30.234  10.081  0.00  0.00    +0.105 C 
ATOM     16  C   LIG    1       23.691 -31.819   7.918  0.00  0.00    +0.254 C 
ENDROOT
BRANCH  12  17
ATOM     17  N   LIG    1       20.373 -31.723  10.322  0.00  0.00    -0.322 NA
ATOM     18  C   LIG    1       19.194 -30.827  10.250  0.00  0.00    +0.120 C 
ATOM     19  C   LIG    1       17.958 -31.573   9.682  0.00  0.00    +0.103 C 
ATOM     20  N   LIG    1       17.620 -32.852  10.348  0.00  0.00    -0.302 NA
ATOM     21  C   LIG    1       17.082 -32.631  11.690  0.00  0.00    +0.105 C 
ATOM     22  C   LIG    1       18.841 -33.692  10.376  0.00  0.00    +0.103 C 
ATOM     23  C   LIG    1       20.087 -33.011  10.991  0.00  0.00    +0.120 C 
ENDBRANCH  12  17
BRANCH   7  24
ATOM     24  C   LIG    1       27.784 -28.857  11.491  0.00  0.00    +0.342 C 
ATOM     25  O   LIG    1       28.819 -29.503  11.375  0.00  0.00    -0.245 OA
BRANCH  24  26
ATOM     26  O   LIG    1       27.775 -27.588  11.949  0.00  0.00    -0.477 OA
ATOM     27  H   LIG    1       27.098 -27.420  12.649  0.00  0.00    +0.295 HD
ENDBRANCH  24  26
ENDBRANCH   7  24
TORSDOF 3
ENDMDL
MODEL 4
REMARK VINA RESULT:      -5.1      3.430      4.955
REMARK  Name = *****
REMARK                            x       y       z     vdW  Elec       q    Type
REMARK                         _______ _______ _______ _____ _____    ______ ____
ROOT
ATOM      1  C   LIG    1       27.058 -29.903  10.256  0.00  0.00    +0.034 C 
ATOM      2  C   LIG    1       25.843 -30.172  11.151  0.00  0.00    +0.122 C 
ATOM      3  N   LIG    1       25.360 -28.946  11.829  0.00  0.00    -0.337 NA
ATOM      4  C   LIG    1       23.979 -28.966  12.170  0.00  0.00    +0.097 C 
ATOM      5  C   LIG    1       23.440 -27.911  12.925  0.00  0.00    +0.052 C 
ATOM      6  C   LIG    1       24.315 -26.791  13.343  0.00  0.00    +0.204 C 
ATOM      7  C   LIG    1       25.766 -26.916  13.106  0.00  0.00    +0.122 C 
ATOM      8  O   LIG    1       23.862 -25.782  13.881  0.00  0.00    -0.286 OA
ATOM      9  C   LIG    1       22.099 -27.903  13.298  0.00  0.00    +0.054 C 
ATOM     10  C   LIG    1       21.272 -28.956  12.921  0.00  0.00    +0.149 C 
ATOM     11  F   LIG    1       19.988 -28.869  13.297  0.00  0.00    -0.203 F 
ATOM     12  C   LIG    1       21.735 -30.045  12.156  0.00  0.00    +0.110 C 
ATOM     13  C   LIG    1       23.108 -30.015  11.783  0.00  0.00    +0.168 C 
ATOM     14  O   LIG    1       23.582 -31.098  11.065  0.00  0.00    -0.486 OA
ATOM     15  C   LIG    1       26.175 -27.974  12.391  0.00  0.00    +0.105 C 
ATOM     16  C   LIG    1       24.721 -30.751  10.281  0.00  0.00    +0.254 C 
ENDROOT
BRANCH  12  17
ATOM     17  N   LIG    1       20.912 -31.126  11.748  0.00  0.00    -0.322 NA
ATOM     18  C   LIG    1       19.984 -30.757  10.652  0.00  0.00    +0.120 C 
ATOM     19  C   LIG    1       19.213 -31.998  10.130  0.00  0.00    +0.103 C 
ATOM     20  N   LIG    1       18.527 -32.806  11.163  0.00  0.00    -0.302 NA
ATOM     21  C   LIG    1       17.367 -32.103  11.710  0.00  0.00    +0.105 C 
ATOM     22  C   LIG    1       19.514 -33.140  12.217  0.00  0.00    +0.103 C 
ATOM     23  C   LIG    1       20.268 -31.926  12.813  0.00  0.00    +0.120 C 
ENDBRANCH  12  17
BRANCH   7  24
ATOM     24  C   LIG    1       26.760 -25.940  13.594  0.00  0.00    +0.342 C 
ATOM     25  O   LIG    1       27.704 -26.244  14.313  0.00  0.00    -0.245 OA
BRANCH  24  26
ATOM     26  O   LIG    1       26.567 -24.679  13.154  0.00  0.00    -0.477 OA
ATOM     27  H   LIG    1       27.383 -24.252  12.793  0.00  0.00    +0.295 HD
ENDBRANCH  24  26
ENDBRANCH   7  24
TORSDOF 3
ENDMDL
MODEL 5
REMARK VINA RESULT:      -5.1      3.179      5.347
REMARK  Name = *****
REMARK                            x       y       z     vdW  Elec       q    Type
REMARK                         _______ _______ _______ _____ _____    ______ ____
ROOT
ATOM      1  C   LIG    1       26.784 -27.082  12.209  0.00  0.00    +0.034 C 
ATOM      2  C   LIG    1       26.435 -28.454  11.622  0.00  0.00    +0.122 C 
ATOM      3  N   LIG    1       24.996 -28.779  11.764  0.00  0.00    -0.337 NA
ATOM      4  C   LIG    1       24.496 -29.681  10.786  0.00  0.00    +0.097 C 
ATOM      5  C   LIG    1       23.177 -30.156  10.895  0.00  0.00    +0.052 C 
ATOM      6  C   LIG    1       22.329 -29.700  12.020  0.00  0.00    +0.204 C 
ATOM      7  C   LIG    1       22.960 -28.904  13.090  0.00  0.00    +0.122 C 
ATOM      8  O   LIG    1       21.132 -29.976  12.080  0.00  0.00    -0.286 OA
ATOM      9  C   LIG    1       22.656 -31.057   9.971  0.00  0.00    +0.054 C 
ATOM     10  C   LIG    1       23.449 -31.501   8.918  0.00  0.00    +0.149 C 
ATOM     11  F   LIG    1       22.873 -32.350   8.055  0.00  0.00    -0.203 F 
ATOM     12  C   LIG    1       24.777 -31.065   8.734  0.00  0.00    +0.110 C 
ATOM     13  C   LIG    1       25.273 -30.136   9.691  0.00  0.00    +0.168 C 
ATOM     14  O   LIG    1       26.587 -29.731   9.541  0.00  0.00    -0.486 OA
ATOM     15  C   LIG    1       24.230 -28.521  12.892  0.00  0.00    +0.105 C 
ATOM     16  C   LIG    1       26.815 -28.455  10.136  0.00  0.00    +0.254 C 
ENDROOT
BRANCH  12  17
ATOM     17  N   LIG    1       25.604 -31.492   7.663  0.00  0.00    -0.322 NA
ATOM     18  C   LIG    1       25.055 -31.126   6.335  0.00  0.00    +0.120 C 
ATOM     19  C   LIG    1       26.056 -31.471   5.202  0.00  0.00    +0.103 C 
ATOM     20  N   LIG    1       26.574 -32.858   5.206  0.00  0.00    -0.302 NA
ATOM     21  C   LIG    1       25.541 -33.817   4.815  0.00  0.00    +0.105 C 
ATOM     22  C   LIG    1       27.109 -33.146   6.557  0.00  0.00    +0.103 C 
ATOM     23  C   LIG    1       26.123 -32.876   7.720  0.00  0.00    +0.120 C 
ENDBRANCH  12  17
BRANCH   7  24
ATOM     24  C   LIG    1       22.265 -28.504  14.329  0.00  0.00    +0.342 C 
ATOM     25  O   LIG    1       22.258 -27.355  14.755  0.00  0.00    -0.245 OA
BRANCH  24  26
ATOM     26  O   LIG    1       21.600 -29.504  14.945  0.00  0.00    -0.477 OA
ATOM     27  H   LIG    1       21.863 -29.638  15.889  0.00  0.00    +0.295 HD
ENDBRANCH  24  26
ENDBRANCH   7  24
TORSDOF 3
ENDMDL
MODEL 6
REMARK VINA RESULT:      -5.1      8.925     11.335
REMARK  Name = *****
REMARK                            x       y       z     vdW  Elec       q    Type
REMARK                         _______ _______ _______ _____ _____    ______ ____
ROOT
ATOM      1  C   LIG    1       24.577 -20.073   3.438  0.00  0.00    +0.034 C 
ATOM      2  C   LIG    1       25.298 -19.935   4.783  0.00  0.00    +0.122 C 
ATOM      3  N   LIG    1       25.403 -21.226   5.502  0.00  0.00    -0.337 NA
ATOM      4  C   LIG    1       26.503 -21.314   6.399  0.00  0.00    +0.097 C 
ATOM      5  C   LIG    1       26.631 -22.444   7.225  0.00  0.00    +0.052 C 
ATOM      6  C   LIG    1       25.625 -23.527   7.141  0.00  0.00    +0.204 C 
ATOM      7  C   LIG    1       24.421 -23.296   6.319  0.00  0.00    +0.122 C 
ATOM      8  O   LIG    1       25.770 -24.592   7.738  0.00  0.00    -0.286 OA
ATOM      9  C   LIG    1       27.681 -22.559   8.133  0.00  0.00    +0.054 C 
ATOM     10  C   LIG    1       28.624 -21.540   8.229  0.00  0.00    +0.149 C 
ATOM     11  F   LIG    1       29.618 -21.731   9.108  0.00  0.00    -0.203 F 
ATOM     12  C   LIG    1       28.569 -20.381   7.429  0.00  0.00    +0.110 C 
ATOM     13  C   LIG    1       27.490 -20.302   6.505  0.00  0.00    +0.168 C 
ATOM     14  O   LIG    1       27.406 -19.151   5.743  0.00  0.00    -0.486 OA
ATOM     15  C   LIG    1       24.394 -22.175   5.584  0.00  0.00    +0.105 C 
ATOM     16  C   LIG    1       26.703 -19.379   4.523  0.00  0.00    +0.254 C 
ENDROOT
BRANCH  12  17
ATOM     17  N   LIG    1       29.523 -19.333   7.497  0.00  0.00    -0.322 NA
ATOM     18  C   LIG    1       30.919 -19.822   7.394  0.00  0.00    +0.120 C 
ATOM     19  C   LIG    1       31.922 -18.640   7.317  0.00  0.00    +0.103 C 
ATOM     20  N   LIG    1       31.789 -17.619   8.381  0.00  0.00    -0.302 NA
ATOM     21  C   LIG    1       32.232 -18.134   9.676  0.00  0.00    +0.105 C 
ATOM     22  C   LIG    1       30.375 -17.176   8.420  0.00  0.00    +0.103 C 
ATOM     23  C   LIG    1       29.338 -18.317   8.557  0.00  0.00    +0.120 C 
ENDBRANCH  12  17
BRANCH   7  24
ATOM     24  C   LIG    1       23.283 -24.234   6.258  0.00  0.00    +0.342 C 
ATOM     25  O   LIG    1       22.160 -23.955   6.662  0.00  0.00    -0.245 OA
BRANCH  24  26
ATOM     26  O   LIG    1       23.567 -25.422   5.684  0.00  0.00    -0.477 OA
ATOM     27  H   LIG    1       22.900 -26.127   5.870  0.00  0.00    +0.295 HD
ENDBRANCH  24  26
ENDBRANCH   7  24
TORSDOF 3
ENDMDL
MODEL 7
REMARK VINA RESULT:      -5.1      3.122      7.248
REMARK  Name = *****
REMARK                            x       y       z     vdW  Elec       q    Type
REMARK                         _______ _______ _______ _____ _____    ______ ____
ROOT
ATOM      1  C   LIG    1       21.043 -31.857  11.259  0.00  0.00    +0.034 C 
ATOM      2  C   LIG    1       22.483 -31.428  11.558  0.00  0.00    +0.122 C 
ATOM      3  N   LIG    1       23.229 -31.062  10.331  0.00  0.00    -0.337 NA
ATOM      4  C   LIG    1       24.291 -30.139  10.540  0.00  0.00    +0.097 C 
ATOM      5  C   LIG    1       25.143 -29.815   9.470  0.00  0.00    +0.052 C 
ATOM      6  C   LIG    1       24.916 -30.432   8.144  0.00  0.00    +0.204 C 
ATOM      7  C   LIG    1       23.910 -31.507   8.039  0.00  0.00    +0.122 C 
ATOM      8  O   LIG    1       25.544 -30.075   7.148  0.00  0.00    -0.286 OA
ATOM      9  C   LIG    1       26.208 -28.933   9.638  0.00  0.00    +0.054 C 
ATOM     10  C   LIG    1       26.438 -28.359  10.884  0.00  0.00    +0.149 C 
ATOM     11  F   LIG    1       27.466 -27.502  10.964  0.00  0.00    -0.203 F 
ATOM     12  C   LIG    1       25.622 -28.626  12.002  0.00  0.00    +0.110 C 
ATOM     13  C   LIG    1       24.538 -29.522  11.793  0.00  0.00    +0.168 C 
ATOM     14  O   LIG    1       23.755 -29.820  12.893  0.00  0.00    -0.486 OA
ATOM     15  C   LIG    1       23.164 -31.746   9.127  0.00  0.00    +0.105 C 
ATOM     16  C   LIG    1       22.442 -30.225  12.510  0.00  0.00    +0.254 C 
ENDROOT
BRANCH  12  17
ATOM     17  N   LIG    1       25.826 -28.045  13.280  0.00  0.00    -0.322 NA
ATOM     18  C   LIG    1       25.449 -26.611  13.325  0.00  0.00    +0.120 C 
ATOM     19  C   LIG    1       25.540 -26.054  14.770  0.00  0.00    +0.103 C 
ATOM     20  N   LIG    1       26.823 -26.293  15.469  0.00  0.00    -0.302 NA
ATOM     21  C   LIG    1       27.899 -25.479  14.905  0.00  0.00    +0.105 C 
ATOM     22  C   LIG    1       27.129 -27.741  15.388  0.00  0.00    +0.103 C 
ATOM     23  C   LIG    1       27.110 -28.331  13.957  0.00  0.00    +0.120 C 
ENDBRANCH  12  17
BRANCH   7  24
ATOM     24  C   LIG    1       23.682 -32.295   6.812  0.00  0.00    +0.342 C 
ATOM     25  O   LIG    1       23.815 -33.511   6.760  0.00  0.00    -0.245 OA
BRANCH  24  26
ATOM     26  O   LIG    1       23.277 -31.569   5.748  0.00  0.00    -0.477 OA
ATOM     27  H   LIG    1       24.018 -31.207   5.204  0.00  0.00    +0.295 HD
ENDBRANCH  24  26
ENDBRANCH   7  24
TORSDOF 3
ENDMDL
MODEL 8
REMARK VINA RESULT:      -5.1      9.870     11.977
REMARK  Name = *****
REMARK                            x       y       z     vdW  Elec       q    Type
REMARK                         _______ _______ _______ _____ _____    ______ ____
ROOT
ATOM      1  C   LIG    1       23.851 -22.164   8.032  0.00  0.00    +0.034 C 
ATOM      2  C   LIG    1       25.298 -21.882   7.615  0.00  0.00    +0.122 C 
ATOM      3  N   LIG    1       25.382 -21.070   6.379  0.00  0.00    -0.337 NA
ATOM      4  C   LIG    1       26.570 -20.298   6.260  0.00  0.00    +0.097 C 
ATOM      5  C   LIG    1       26.813 -19.585   5.073  0.00  0.00    +0.052 C 
ATOM      6  C   LIG    1       25.825 -19.642   3.972  0.00  0.00    +0.204 C 
ATOM      7  C   LIG    1       24.703 -20.594   4.092  0.00  0.00    +0.122 C 
ATOM      8  O   LIG    1       25.924 -18.928   2.976  0.00  0.00    -0.286 OA
ATOM      9  C   LIG    1       27.975 -18.835   4.907  0.00  0.00    +0.054 C 
ATOM     10  C   LIG    1       28.916 -18.786   5.930  0.00  0.00    +0.149 C 
ATOM     11  F   LIG    1       29.998 -18.026   5.708  0.00  0.00    -0.203 F 
ATOM     12  C   LIG    1       28.740 -19.466   7.153  0.00  0.00    +0.110 C 
ATOM     13  C   LIG    1       27.538 -20.213   7.292  0.00  0.00    +0.168 C 
ATOM     14  O   LIG    1       27.374 -20.914   8.473  0.00  0.00    -0.486 OA
ATOM     15  C   LIG    1       24.576 -21.236   5.262  0.00  0.00    +0.105 C 
ATOM     16  C   LIG    1       25.996 -21.141   8.763  0.00  0.00    +0.254 C 
ENDROOT
BRANCH  12  17
ATOM     17  N   LIG    1       29.678 -19.423   8.217  0.00  0.00    -0.322 NA
ATOM     18  C   LIG    1       29.552 -18.198   9.043  0.00  0.00    +0.120 C 
ATOM     19  C   LIG    1       30.484 -18.260  10.281  0.00  0.00    +0.103 C 
ATOM     20  N   LIG    1       31.904 -18.573   9.999  0.00  0.00    -0.302 NA
ATOM     21  C   LIG    1       32.577 -17.457   9.335  0.00  0.00    +0.105 C 
ATOM     22  C   LIG    1       31.948 -19.807   9.179  0.00  0.00    +0.103 C 
ATOM     23  C   LIG    1       31.080 -19.771   7.898  0.00  0.00    +0.120 C 
ENDBRANCH  12  17
BRANCH   7  24
ATOM     24  C   LIG    1       23.728 -20.847   3.013  0.00  0.00    +0.342 C 
ATOM     25  O   LIG    1       22.981 -19.984   2.566  0.00  0.00    -0.245 OA
BRANCH  24  26
ATOM     26  O   LIG    1       23.747 -22.106   2.526  0.00  0.00    -0.477 OA
ATOM     27  H   LIG    1       22.867 -22.428   2.214  0.00  0.00    +0.295 HD
ENDBRANCH  24  26
ENDBRANCH   7  24
TORSDOF 3
ENDMDL
MODEL 9
REMARK VINA RESULT:      -5.0      3.559      7.409
REMARK  Name = *****
REMARK                            x       y       z     vdW  Elec       q    Type
REMARK                         _______ _______ _______ _____ _____    ______ ____
ROOT
ATOM      1  C   LIG    1       28.034 -29.322  11.375  0.00  0.00    +0.034 C 
ATOM      2  C   LIG    1       26.555 -28.942  11.250  0.00  0.00    +0.122 C 
ATOM      3  N   LIG    1       25.812 -29.853  10.349  0.00  0.00    -0.337 NA
ATOM      4  C   LIG    1       24.420 -29.949  10.625  0.00  0.00    +0.097 C 
ATOM      5  C   LIG    1       23.595 -30.687   9.760  0.00  0.00    +0.052 C 
ATOM      6  C   LIG    1       24.189 -31.361   8.583  0.00  0.00    +0.204 C 
ATOM      7  C   LIG    1       25.601 -31.080   8.259  0.00  0.00    +0.122 C 
ATOM      8  O   LIG    1       23.536 -32.130   7.879  0.00  0.00    -0.286 OA
ATOM      9  C   LIG    1       22.224 -30.788   9.981  0.00  0.00    +0.054 C 
ATOM     10  C   LIG    1       21.654 -30.149  11.077  0.00  0.00    +0.149 C 
ATOM     11  F   LIG    1       20.333 -30.309  11.240  0.00  0.00    -0.203 F 
ATOM     12  C   LIG    1       22.415 -29.398  11.996  0.00  0.00    +0.110 C 
ATOM     13  C   LIG    1       23.814 -29.325  11.745  0.00  0.00    +0.168 C 
ATOM     14  O   LIG    1       24.564 -28.559  12.618  0.00  0.00    -0.486 OA
ATOM     15  C   LIG    1       26.292 -30.347   9.145  0.00  0.00    +0.105 C 
ATOM     16  C   LIG    1       25.926 -28.979  12.649  0.00  0.00    +0.254 C 
ENDROOT
BRANCH  12  17
ATOM     17  N   LIG    1       21.862 -28.746  13.128  0.00  0.00    -0.322 NA
ATOM     18  C   LIG    1       21.257 -29.692  14.095  0.00  0.00    +0.120 C 
ATOM     19  C   LIG    1       20.803 -28.960  15.385  0.00  0.00    +0.103 C 
ATOM     20  N   LIG    1       19.937 -27.777  15.178  0.00  0.00    -0.302 NA
ATOM     21  C   LIG    1       18.601 -28.164  14.724  0.00  0.00    +0.105 C 
ATOM     22  C   LIG    1       20.608 -26.879  14.209  0.00  0.00    +0.103 C 
ATOM     23  C   LIG    1       21.026 -27.551  12.879  0.00  0.00    +0.120 C 
ENDBRANCH  12  17
BRANCH   7  24
ATOM     24  C   LIG    1       26.275 -31.575   7.043  0.00  0.00    +0.342 C 
ATOM     25  O   LIG    1       27.119 -32.463   7.057  0.00  0.00    -0.245 OA
BRANCH  24  26
ATOM     26  O   LIG    1       25.860 -30.994   5.898  0.00  0.00    -0.477 OA
ATOM     27  H   LIG    1       26.532 -31.010   5.174  0.00  0.00    +0.295 HD
ENDBRANCH  24  26
ENDBRANCH   7  24
TORSDOF 3
ENDMDL
