MODEL 1
REMARK VINA RESULT:     -10.1      0.000      0.000
REMARK  Name = *****
REMARK                            x       y       z     vdW  Elec       q    Type
REMARK                         _______ _______ _______ _____ _____    ______ ____
ROOT
ATOM      1  O   LIG    1       26.117 -21.027   9.353  0.00  0.00    -0.291 OA
ATOM      2  C   LIG    1       26.289 -20.767   8.175  0.00  0.00    +0.179 C 
ATOM      3  C   LIG    1       25.335 -21.010   7.015  0.00  0.00    +0.161 C 
ATOM      4  C   LIG    1       26.115 -20.475   5.820  0.00  0.00    +0.179 C 
ATOM      5  O   LIG    1       25.757 -20.422   4.656  0.00  0.00    -0.291 OA
ATOM      6  C   LIG    1       27.405 -19.974   6.288  0.00  0.00    +0.029 A 
ATOM      7  C   LIG    1       28.428 -19.407   5.549  0.00  0.00    +0.012 A 
ATOM      8  C   LIG    1       29.574 -19.001   6.238  0.00  0.00    +0.001 A 
ATOM      9  C   LIG    1       29.675 -19.168   7.633  0.00  0.00    +0.001 A 
ATOM     10  C   LIG    1       28.630 -19.745   8.362  0.00  0.00    +0.012 A 
ATOM     11  C   LIG    1       27.505 -20.140   7.661  0.00  0.00    +0.029 A 
ENDROOT
BRANCH   3  12
ATOM     12  C   LIG    1       24.883 -22.442   6.821  0.00  0.00    -0.029 A 
ATOM     13  C   LIG    1       25.860 -23.445   6.677  0.00  0.00    +0.007 A 
ATOM     14  C   LIG    1       25.494 -24.783   6.519  0.00  0.00    +0.038 A 
ATOM     15  C   LIG    1       24.149 -25.128   6.508  0.00  0.00    +0.123 A 
ATOM     16  F   LIG    1       23.796 -26.411   6.356  0.00  0.00    -0.205 F 
ATOM     17  C   LIG    1       23.165 -24.160   6.657  0.00  0.00    +0.038 A 
ATOM     18  C   LIG    1       23.530 -22.820   6.817  0.00  0.00    +0.007 A 
ENDBRANCH   3  12
TORSDOF 1
ENDMDL
MODEL 2
REMARK VINA RESULT:      -9.2      4.161      7.172
REMARK  Name = *****
REMARK                            x       y       z     vdW  Elec       q    Type
REMARK                         _______ _______ _______ _____ _____    ______ ____
ROOT
ATOM      1  O   LIG    1       30.071 -21.608   8.894  0.00  0.00    -0.291 OA
ATOM      2  C   LIG    1       29.706 -20.837   8.025  0.00  0.00    +0.179 C 
ATOM      3  C   LIG    1       30.451 -19.632   7.469  0.00  0.00    +0.161 C 
ATOM      4  C   LIG    1       29.485 -19.091   6.423  0.00  0.00    +0.179 C 
ATOM      5  O   LIG    1       29.643 -18.137   5.681  0.00  0.00    -0.291 OA
ATOM      6  C   LIG    1       28.292 -19.935   6.404  0.00  0.00    +0.029 A 
ATOM      7  C   LIG    1       27.163 -19.812   5.615  0.00  0.00    +0.012 A 
ATOM      8  C   LIG    1       26.149 -20.759   5.786  0.00  0.00    +0.001 A 
ATOM      9  C   LIG    1       26.283 -21.796   6.730  0.00  0.00    +0.001 A 
ATOM     10  C   LIG    1       27.433 -21.903   7.518  0.00  0.00    +0.012 A 
ATOM     11  C   LIG    1       28.423 -20.955   7.334  0.00  0.00    +0.029 A 
ENDROOT
BRANCH   3  12
ATOM     12  C   LIG    1       30.860 -18.584   8.483  0.00  0.00    -0.029 A 
ATOM     13  C   LIG    1       29.942 -18.224   9.490  0.00  0.00    +0.007 A 
ATOM     14  C   LIG    1       30.280 -17.279  10.460  0.00  0.00    +0.038 A 
ATOM     15  C   LIG    1       31.537 -16.692  10.435  0.00  0.00    +0.123 A 
ATOM     16  F   LIG    1       31.862 -15.786  11.366  0.00  0.00    -0.205 F 
ATOM     17  C   LIG    1       32.464 -17.035   9.460  0.00  0.00    +0.038 A 
ATOM     18  C   LIG    1       32.129 -17.981   8.488  0.00  0.00    +0.007 A 
ENDBRANCH   3  12
TORSDOF 1
ENDMDL
MODEL 3
REMARK VINA RESULT:      -9.2      4.129      7.064
REMARK  Name = *****
REMARK                            x       y       z     vdW  Elec       q    Type
REMARK                         _______ _______ _______ _____ _____    ______ ____
ROOT
ATOM      1  O   LIG    1       29.849 -21.611   8.860  0.00  0.00    -0.291 OA
ATOM      2  C   LIG    1       29.536 -20.838   7.972  0.00  0.00    +0.179 C 
ATOM      3  C   LIG    1       30.336 -19.664   7.428  0.00  0.00    +0.161 C 
ATOM      4  C   LIG    1       29.421 -19.103   6.348  0.00  0.00    +0.179 C 
ATOM      5  O   LIG    1       29.632 -18.163   5.602  0.00  0.00    -0.291 OA
ATOM      6  C   LIG    1       28.202 -19.909   6.300  0.00  0.00    +0.029 A 
ATOM      7  C   LIG    1       27.102 -19.758   5.476  0.00  0.00    +0.012 A 
ATOM      8  C   LIG    1       26.053 -20.670   5.625  0.00  0.00    +0.001 A 
ATOM      9  C   LIG    1       26.125 -21.701   6.582  0.00  0.00    +0.001 A 
ATOM     10  C   LIG    1       27.246 -21.836   7.407  0.00  0.00    +0.012 A 
ATOM     11  C   LIG    1       28.272 -20.923   7.244  0.00  0.00    +0.029 A 
ENDROOT
BRANCH   3  12
ATOM     12  C   LIG    1       30.748 -18.619   8.444  0.00  0.00    -0.029 A 
ATOM     13  C   LIG    1       32.040 -18.066   8.359  0.00  0.00    +0.007 A 
ATOM     14  C   LIG    1       32.459 -17.084   9.259  0.00  0.00    +0.038 A 
ATOM     15  C   LIG    1       31.589 -16.644  10.245  0.00  0.00    +0.123 A 
ATOM     16  F   LIG    1       31.989 -15.702  11.109  0.00  0.00    -0.205 F 
ATOM     17  C   LIG    1       30.306 -17.165  10.346  0.00  0.00    +0.038 A 
ATOM     18  C   LIG    1       29.883 -18.147   9.447  0.00  0.00    +0.007 A 
ENDBRANCH   3  12
TORSDOF 1
ENDMDL
MODEL 4
REMARK VINA RESULT:      -9.2      3.644      5.730
REMARK  Name = *****
REMARK                            x       y       z     vdW  Elec       q    Type
REMARK                         _______ _______ _______ _____ _____    ______ ____
ROOT
ATOM      1  O   LIG    1       22.196 -24.042   6.673  0.00  0.00    -0.291 OA
ATOM      2  C   LIG    1       23.411 -23.948   6.680  0.00  0.00    +0.179 C 
ATOM      3  C   LIG    1       24.253 -22.707   6.940  0.00  0.00    +0.161 C 
ATOM      4  C   LIG    1       25.676 -23.232   6.811  0.00  0.00    +0.179 C 
ATOM      5  O   LIG    1       26.718 -22.617   6.961  0.00  0.00    -0.291 OA
ATOM      6  C   LIG    1       25.624 -24.660   6.501  0.00  0.00    +0.029 A 
ATOM      7  C   LIG    1       26.675 -25.535   6.296  0.00  0.00    +0.012 A 
ATOM      8  C   LIG    1       26.361 -26.867   6.013  0.00  0.00    +0.001 A 
ATOM      9  C   LIG    1       25.020 -27.292   5.941  0.00  0.00    +0.001 A 
ATOM     10  C   LIG    1       23.971 -26.391   6.151  0.00  0.00    +0.012 A 
ATOM     11  C   LIG    1       24.304 -25.077   6.429  0.00  0.00    +0.029 A 
ENDROOT
BRANCH   3  12
ATOM     12  C   LIG    1       23.983 -21.525   6.032  0.00  0.00    -0.029 A 
ATOM     13  C   LIG    1       24.754 -21.381   4.863  0.00  0.00    +0.007 A 
ATOM     14  C   LIG    1       24.529 -20.320   3.984  0.00  0.00    +0.038 A 
ATOM     15  C   LIG    1       23.529 -19.400   4.264  0.00  0.00    +0.123 A 
ATOM     16  F   LIG    1       23.312 -18.382   3.421  0.00  0.00    -0.205 F 
ATOM     17  C   LIG    1       22.747 -19.524   5.404  0.00  0.00    +0.038 A 
ATOM     18  C   LIG    1       22.970 -20.585   6.286  0.00  0.00    +0.007 A 
ENDBRANCH   3  12
TORSDOF 1
ENDMDL
MODEL 5
REMARK VINA RESULT:      -8.7      2.883      4.320
REMARK  Name = *****
REMARK                            x       y       z     vdW  Elec       q    Type
REMARK                         _______ _______ _______ _____ _____    ______ ____
ROOT
ATOM      1  O   LIG    1       26.638 -21.840   6.354  0.00  0.00    -0.291 OA
ATOM      2  C   LIG    1       25.441 -22.063   6.315  0.00  0.00    +0.179 C 
ATOM      3  C   LIG    1       24.693 -23.258   6.886  0.00  0.00    +0.161 C 
ATOM      4  C   LIG    1       23.246 -22.958   6.518  0.00  0.00    +0.179 C 
ATOM      5  O   LIG    1       22.254 -23.615   6.783  0.00  0.00    -0.291 OA
ATOM      6  C   LIG    1       23.200 -21.690   5.793  0.00  0.00    +0.029 A 
ATOM      7  C   LIG    1       22.098 -21.038   5.269  0.00  0.00    +0.012 A 
ATOM      8  C   LIG    1       22.318 -19.822   4.615  0.00  0.00    +0.001 A 
ATOM      9  C   LIG    1       23.617 -19.290   4.500  0.00  0.00    +0.001 A 
ATOM     10  C   LIG    1       24.718 -19.965   5.037  0.00  0.00    +0.012 A 
ATOM     11  C   LIG    1       24.478 -21.166   5.679  0.00  0.00    +0.029 A 
ENDROOT
BRANCH   3  12
ATOM     12  C   LIG    1       25.149 -24.618   6.399  0.00  0.00    -0.029 A 
ATOM     13  C   LIG    1       25.011 -24.926   5.032  0.00  0.00    +0.007 A 
ATOM     14  C   LIG    1       25.437 -26.157   4.529  0.00  0.00    +0.038 A 
ATOM     15  C   LIG    1       26.007 -27.086   5.388  0.00  0.00    +0.123 A 
ATOM     16  F   LIG    1       26.416 -28.267   4.908  0.00  0.00    -0.205 F 
ATOM     17  C   LIG    1       26.164 -26.804   6.739  0.00  0.00    +0.038 A 
ATOM     18  C   LIG    1       25.740 -25.572   7.244  0.00  0.00    +0.007 A 
ENDBRANCH   3  12
TORSDOF 1
ENDMDL
MODEL 6
REMARK VINA RESULT:      -8.0      3.468      5.833
REMARK  Name = *****
REMARK                            x       y       z     vdW  Elec       q    Type
REMARK                         _______ _______ _______ _____ _____    ______ ____
ROOT
ATOM      1  O   LIG    1       26.687 -22.165   9.044  0.00  0.00    -0.291 OA
ATOM      2  C   LIG    1       26.747 -21.601   7.965  0.00  0.00    +0.179 C 
ATOM      3  C   LIG    1       27.988 -21.272   7.148  0.00  0.00    +0.161 C 
ATOM      4  C   LIG    1       27.411 -20.578   5.922  0.00  0.00    +0.179 C 
ATOM      5  O   LIG    1       28.012 -20.147   4.953  0.00  0.00    -0.291 OA
ATOM      6  C   LIG    1       25.956 -20.527   6.053  0.00  0.00    +0.029 A 
ATOM      7  C   LIG    1       25.031 -19.986   5.178  0.00  0.00    +0.012 A 
ATOM      8  C   LIG    1       23.682 -20.065   5.534  0.00  0.00    +0.001 A 
ATOM      9  C   LIG    1       23.289 -20.675   6.741  0.00  0.00    +0.001 A 
ATOM     10  C   LIG    1       24.240 -21.216   7.612  0.00  0.00    +0.012 A 
ATOM     11  C   LIG    1       25.569 -21.126   7.242  0.00  0.00    +0.029 A 
ENDROOT
BRANCH   3  12
ATOM     12  C   LIG    1       29.038 -20.436   7.850  0.00  0.00    -0.029 A 
ATOM     13  C   LIG    1       30.226 -21.063   8.275  0.00  0.00    +0.007 A 
ATOM     14  C   LIG    1       31.234 -20.331   8.907  0.00  0.00    +0.038 A 
ATOM     15  C   LIG    1       31.063 -18.970   9.114  0.00  0.00    +0.123 A 
ATOM     16  F   LIG    1       32.029 -18.267   9.720  0.00  0.00    -0.205 F 
ATOM     17  C   LIG    1       29.906 -18.326   8.697  0.00  0.00    +0.038 A 
ATOM     18  C   LIG    1       28.897 -19.055   8.063  0.00  0.00    +0.007 A 
ENDBRANCH   3  12
TORSDOF 1
ENDMDL
MODEL 7
REMARK VINA RESULT:      -7.5      2.764      6.053
REMARK  Name = *****
REMARK                            x       y       z     vdW  Elec       q    Type
REMARK                         _______ _______ _______ _____ _____    ______ ____
ROOT
ATOM      1  O   LIG    1       24.964 -21.202   4.561  0.00  0.00    -0.291 OA
ATOM      2  C   LIG    1       25.268 -21.816   5.568  0.00  0.00    +0.179 C 
ATOM      3  C   LIG    1       25.799 -21.259   6.881  0.00  0.00    +0.161 C 
ATOM      4  C   LIG    1       25.981 -22.510   7.730  0.00  0.00    +0.179 C 
ATOM      5  O   LIG    1       26.364 -22.582   8.885  0.00  0.00    -0.291 OA
ATOM      6  C   LIG    1       25.580 -23.674   6.943  0.00  0.00    +0.029 A 
ATOM      7  C   LIG    1       25.584 -25.006   7.313  0.00  0.00    +0.012 A 
ATOM      8  C   LIG    1       25.146 -25.941   6.370  0.00  0.00    +0.001 A 
ATOM      9  C   LIG    1       24.718 -25.529   5.093  0.00  0.00    +0.001 A 
ATOM     10  C   LIG    1       24.722 -24.177   4.737  0.00  0.00    +0.012 A 
ATOM     11  C   LIG    1       25.160 -23.269   5.685  0.00  0.00    +0.029 A 
ENDROOT
BRANCH   3  12
ATOM     12  C   LIG    1       27.065 -20.432   6.782  0.00  0.00    -0.029 A 
ATOM     13  C   LIG    1       27.851 -20.261   7.938  0.00  0.00    +0.007 A 
ATOM     14  C   LIG    1       29.037 -19.526   7.893  0.00  0.00    +0.038 A 
ATOM     15  C   LIG    1       29.448 -18.962   6.694  0.00  0.00    +0.123 A 
ATOM     16  F   LIG    1       30.586 -18.257   6.650  0.00  0.00    -0.205 F 
ATOM     17  C   LIG    1       28.697 -19.123   5.537  0.00  0.00    +0.038 A 
ATOM     18  C   LIG    1       27.509 -19.859   5.579  0.00  0.00    +0.007 A 
ENDBRANCH   3  12
TORSDOF 1
ENDMDL
MODEL 8
REMARK VINA RESULT:      -7.5      2.831      3.890
REMARK  Name = *****
REMARK                            x       y       z     vdW  Elec       q    Type
REMARK                         _______ _______ _______ _____ _____    ______ ____
ROOT
ATOM      1  O   LIG    1       28.629 -18.145   5.119  0.00  0.00    -0.291 OA
ATOM      2  C   LIG    1       28.796 -19.097   5.860  0.00  0.00    +0.179 C 
ATOM      3  C   LIG    1       28.093 -20.447   5.824  0.00  0.00    +0.161 C 
ATOM      4  C   LIG    1       28.731 -21.191   6.990  0.00  0.00    +0.179 C 
ATOM      5  O   LIG    1       28.517 -22.334   7.355  0.00  0.00    -0.291 OA
ATOM      6  C   LIG    1       29.713 -20.315   7.625  0.00  0.00    +0.029 A 
ATOM      7  C   LIG    1       30.521 -20.577   8.717  0.00  0.00    +0.012 A 
ATOM      8  C   LIG    1       31.389 -19.564   9.135  0.00  0.00    +0.001 A 
ATOM      9  C   LIG    1       31.432 -18.327   8.463  0.00  0.00    +0.001 A 
ATOM     10  C   LIG    1       30.606 -18.082   7.361  0.00  0.00    +0.012 A 
ATOM     11  C   LIG    1       29.754 -19.097   6.964  0.00  0.00    +0.029 A 
ENDROOT
BRANCH   3  12
ATOM     12  C   LIG    1       26.582 -20.406   5.914  0.00  0.00    -0.029 A 
ATOM     13  C   LIG    1       25.842 -20.171   4.739  0.00  0.00    +0.007 A 
ATOM     14  C   LIG    1       24.446 -20.147   4.766  0.00  0.00    +0.038 A 
ATOM     15  C   LIG    1       23.781 -20.361   5.965  0.00  0.00    +0.123 A 
ATOM     16  F   LIG    1       22.443 -20.339   5.992  0.00  0.00    -0.205 F 
ATOM     17  C   LIG    1       24.486 -20.605   7.136  0.00  0.00    +0.038 A 
ATOM     18  C   LIG    1       25.883 -20.631   7.111  0.00  0.00    +0.007 A 
ENDBRANCH   3  12
TORSDOF 1
ENDMDL
MODEL 9
REMARK VINA RESULT:      -7.5      2.874      5.890
REMARK  Name = *****
REMARK                            x       y       z     vdW  Elec       q    Type
REMARK                         _______ _______ _______ _____ _____    ______ ____
ROOT
ATOM      1  O   LIG    1       27.198 -19.915   4.962  0.00  0.00    -0.291 OA
ATOM      2  C   LIG    1       26.650 -20.235   6.002  0.00  0.00    +0.179 C 
ATOM      3  C   LIG    1       27.036 -19.847   7.422  0.00  0.00    +0.161 C 
ATOM      4  C   LIG    1       25.979 -20.551   8.263  0.00  0.00    +0.179 C 
ATOM      5  O   LIG    1       25.845 -20.523   9.474  0.00  0.00    -0.291 OA
ATOM      6  C   LIG    1       25.076 -21.276   7.371  0.00  0.00    +0.029 A 
ATOM      7  C   LIG    1       23.980 -22.052   7.702  0.00  0.00    +0.012 A 
ATOM      8  C   LIG    1       23.269 -22.645   6.655  0.00  0.00    +0.001 A 
ATOM      9  C   LIG    1       23.663 -22.453   5.316  0.00  0.00    +0.001 A 
ATOM     10  C   LIG    1       24.774 -21.665   5.003  0.00  0.00    +0.012 A 
ATOM     11  C   LIG    1       25.464 -21.088   6.054  0.00  0.00    +0.029 A 
ENDROOT
BRANCH   3  12
ATOM     12  C   LIG    1       28.447 -20.202   7.842  0.00  0.00    -0.029 A 
ATOM     13  C   LIG    1       29.352 -19.158   8.115  0.00  0.00    +0.007 A 
ATOM     14  C   LIG    1       30.658 -19.433   8.527  0.00  0.00    +0.038 A 
ATOM     15  C   LIG    1       31.065 -20.751   8.674  0.00  0.00    +0.123 A 
ATOM     16  F   LIG    1       32.317 -21.016   9.070  0.00  0.00    -0.205 F 
ATOM     17  C   LIG    1       30.190 -21.799   8.421  0.00  0.00    +0.038 A 
ATOM     18  C   LIG    1       28.883 -21.527   8.010  0.00  0.00    +0.007 A 
ENDBRANCH   3  12
TORSDOF 1
ENDMDL
