MODEL 1
REMARK VINA RESULT:      -8.2      0.000      0.000
REMARK  Name = *****
REMARK                            x       y       z     vdW  Elec       q    Type
REMARK                         _______ _______ _______ _____ _____    ______ ____
ROOT
ATOM      1  C   LIG    1       24.387 -26.691   6.466  0.00  0.00    +0.105 C 
ATOM      2  N   LIG    1       25.201 -25.907   5.539  0.00  0.00    -0.305 NA
ATOM      3  C   LIG    1       24.413 -24.877   4.845  0.00  0.00    +0.088 C 
ATOM      4  C   LIG    1       23.987 -23.685   5.719  0.00  0.00    +0.047 C 
ATOM      5  C   LIG    1       25.166 -23.044   6.446  0.00  0.00    -0.056 C 
ATOM      6  C   LIG    1       25.428 -21.709   6.458  0.00  0.00    +0.024 C 
ATOM      7  C   LIG    1       24.530 -20.768   5.740  0.00  0.00    -0.011 A 
ATOM      8  C   LIG    1       25.018 -20.089   4.611  0.00  0.00    -0.038 A 
ATOM      9  C   LIG    1       24.183 -19.199   3.925  0.00  0.00    +0.004 A 
ATOM     10  C   LIG    1       22.879 -18.974   4.370  0.00  0.00    +0.000 A 
ATOM     11  C   LIG    1       22.404 -19.627   5.506  0.00  0.00    +0.001 A 
ATOM     12  C   LIG    1       26.449 -20.299   4.190  0.00  0.00    +0.057 C 
ATOM     13  C   LIG    1       27.427 -19.736   5.223  0.00  0.00    +0.128 C 
ATOM     14  N   LIG    1       27.446 -20.304   6.566  0.00  0.00    -0.321 N 
ATOM     15  C   LIG    1       28.403 -19.968   7.515  0.00  0.00    +0.101 A 
ATOM     16  C   LIG    1       28.074 -20.717   8.622  0.00  0.00    +0.142 A 
ATOM     17  N   LIG    1       26.960 -21.469   8.394  0.00  0.00    -0.235 NA
ATOM     18  C   LIG    1       23.229 -20.516   6.194  0.00  0.00    +0.009 A 
ATOM     19  C   LIG    1       26.576 -21.209   7.155  0.00  0.00    +0.142 A 
ATOM     20  C   LIG    1       26.016 -24.106   7.138  0.00  0.00    +0.047 C 
ATOM     21  C   LIG    1       26.355 -25.286   6.209  0.00  0.00    +0.088 C 
ENDROOT
BRANCH  15  22
ATOM     22  C   LIG    1       29.490 -19.034   7.378  0.00  0.00    +0.278 C 
ATOM     23  O   LIG    1       30.565 -19.274   6.836  0.00  0.00    -0.294 OA
ENDBRANCH  15  22
TORSDOF 1
ENDMDL
MODEL 2
REMARK VINA RESULT:      -7.0      2.569      4.740
REMARK  Name = *****
REMARK                            x       y       z     vdW  Elec       q    Type
REMARK                         _______ _______ _______ _____ _____    ______ ____
ROOT
ATOM      1  C   LIG    1       25.823 -27.434   5.337  0.00  0.00    +0.105 C 
ATOM      2  N   LIG    1       24.890 -26.658   6.152  0.00  0.00    -0.305 NA
ATOM      3  C   LIG    1       25.583 -25.832   7.153  0.00  0.00    +0.088 C 
ATOM      4  C   LIG    1       26.337 -24.618   6.585  0.00  0.00    +0.047 C 
ATOM      5  C   LIG    1       25.451 -23.741   5.704  0.00  0.00    -0.056 C 
ATOM      6  C   LIG    1       25.342 -22.391   5.825  0.00  0.00    +0.024 C 
ATOM      7  C   LIG    1       26.126 -21.671   6.861  0.00  0.00    -0.011 A 
ATOM      8  C   LIG    1       25.446 -21.065   7.931  0.00  0.00    -0.038 A 
ATOM      9  C   LIG    1       26.172 -20.383   8.915  0.00  0.00    +0.004 A 
ATOM     10  C   LIG    1       27.562 -20.290   8.824  0.00  0.00    +0.000 A 
ATOM     11  C   LIG    1       28.234 -20.867   7.748  0.00  0.00    +0.001 A 
ATOM     12  C   LIG    1       23.941 -21.125   7.971  0.00  0.00    +0.057 C 
ATOM     13  C   LIG    1       23.317 -20.317   6.830  0.00  0.00    +0.128 C 
ATOM     14  N   LIG    1       23.575 -20.719   5.452  0.00  0.00    -0.321 N 
ATOM     15  C   LIG    1       22.926 -20.147   4.365  0.00  0.00    +0.101 A 
ATOM     16  C   LIG    1       23.441 -20.803   3.269  0.00  0.00    +0.142 A 
ATOM     17  N   LIG    1       24.377 -21.721   3.640  0.00  0.00    -0.235 NA
ATOM     18  C   LIG    1       27.519 -21.550   6.765  0.00  0.00    +0.009 A 
ATOM     19  C   LIG    1       24.464 -21.660   4.958  0.00  0.00    +0.142 A 
ATOM     20  C   LIG    1       24.694 -24.590   4.685  0.00  0.00    +0.047 C 
ATOM     21  C   LIG    1       24.012 -25.811   5.328  0.00  0.00    +0.088 C 
ENDROOT
BRANCH  15  22
ATOM     22  C   LIG    1       21.944 -19.095   4.378  0.00  0.00    +0.278 C 
ATOM     23  O   LIG    1       22.184 -17.904   4.551  0.00  0.00    -0.294 OA
ENDBRANCH  15  22
TORSDOF 1
ENDMDL
MODEL 3
REMARK VINA RESULT:      -6.4      6.499      9.343
REMARK  Name = *****
REMARK                            x       y       z     vdW  Elec       q    Type
REMARK                         _______ _______ _______ _____ _____    ______ ____
ROOT
ATOM      1  C   LIG    1       24.922 -33.813   4.130  0.00  0.00    +0.105 C 
ATOM      2  N   LIG    1       25.871 -33.305   5.119  0.00  0.00    -0.305 NA
ATOM      3  C   LIG    1       26.229 -31.900   4.871  0.00  0.00    +0.088 C 
ATOM      4  C   LIG    1       25.119 -30.881   5.186  0.00  0.00    +0.047 C 
ATOM      5  C   LIG    1       24.565 -31.042   6.599  0.00  0.00    -0.056 C 
ATOM      6  C   LIG    1       24.411 -30.020   7.485  0.00  0.00    +0.024 C 
ATOM      7  C   LIG    1       24.782 -28.636   7.096  0.00  0.00    -0.011 A 
ATOM      8  C   LIG    1       25.874 -28.020   7.730  0.00  0.00    -0.038 A 
ATOM      9  C   LIG    1       26.235 -26.715   7.374  0.00  0.00    +0.004 A 
ATOM     10  C   LIG    1       25.503 -26.023   6.407  0.00  0.00    +0.000 A 
ATOM     11  C   LIG    1       24.403 -26.623   5.798  0.00  0.00    +0.001 A 
ATOM     12  C   LIG    1       26.607 -28.765   8.815  0.00  0.00    +0.057 C 
ATOM     13  C   LIG    1       25.726 -28.969  10.049  0.00  0.00    +0.128 C 
ATOM     14  N   LIG    1       24.514 -29.771   9.932  0.00  0.00    -0.321 N 
ATOM     15  C   LIG    1       23.743 -30.141  11.026  0.00  0.00    +0.101 A 
ATOM     16  C   LIG    1       22.715 -30.885  10.492  0.00  0.00    +0.142 A 
ATOM     17  N   LIG    1       22.817 -30.964   9.136  0.00  0.00    -0.235 NA
ATOM     18  C   LIG    1       24.038 -27.923   6.146  0.00  0.00    +0.009 A 
ATOM     19  C   LIG    1       23.899 -30.280   8.799  0.00  0.00    +0.142 A 
ATOM     20  C   LIG    1       24.226 -32.503   6.884  0.00  0.00    +0.047 C 
ATOM     21  C   LIG    1       25.369 -33.458   6.494  0.00  0.00    +0.088 C 
ENDROOT
BRANCH  15  22
ATOM     22  C   LIG    1       23.962 -29.811  12.410  0.00  0.00    +0.278 C 
ATOM     23  O   LIG    1       23.668 -28.742  12.938  0.00  0.00    -0.294 OA
ENDBRANCH  15  22
TORSDOF 1
ENDMDL
MODEL 4
REMARK VINA RESULT:      -5.9      6.272      9.787
REMARK  Name = *****
REMARK                            x       y       z     vdW  Elec       q    Type
REMARK                         _______ _______ _______ _____ _____    ______ ____
ROOT
ATOM      1  C   LIG    1       25.701 -26.692   4.370  0.00  0.00    +0.105 C 
ATOM      2  N   LIG    1       24.641 -26.841   5.366  0.00  0.00    -0.305 NA
ATOM      3  C   LIG    1       24.103 -28.210   5.401  0.00  0.00    +0.088 C 
ATOM      4  C   LIG    1       25.041 -29.261   6.019  0.00  0.00    +0.047 C 
ATOM      5  C   LIG    1       25.540 -28.856   7.403  0.00  0.00    -0.056 C 
ATOM      6  C   LIG    1       25.504 -29.662   8.499  0.00  0.00    +0.024 C 
ATOM      7  C   LIG    1       24.962 -31.041   8.391  0.00  0.00    -0.011 A 
ATOM      8  C   LIG    1       23.764 -31.355   9.053  0.00  0.00    -0.038 A 
ATOM      9  C   LIG    1       23.242 -32.651   8.960  0.00  0.00    +0.004 A 
ATOM     10  C   LIG    1       23.918 -33.630   8.230  0.00  0.00    +0.000 A 
ATOM     11  C   LIG    1       25.121 -33.326   7.596  0.00  0.00    +0.001 A 
ATOM     12  C   LIG    1       23.088 -30.299   9.888  0.00  0.00    +0.057 C 
ATOM     13  C   LIG    1       23.925 -29.933  11.115  0.00  0.00    +0.128 C 
ATOM     14  N   LIG    1       25.242 -29.337  10.925  0.00  0.00    -0.321 N 
ATOM     15  C   LIG    1       26.000 -28.829  11.971  0.00  0.00    +0.101 A 
ATOM     16  C   LIG    1       27.148 -28.360  11.374  0.00  0.00    +0.142 A 
ATOM     17  N   LIG    1       27.127 -28.577  10.029  0.00  0.00    -0.235 NA
ATOM     18  C   LIG    1       25.647 -32.037   7.682  0.00  0.00    +0.009 A 
ATOM     19  C   LIG    1       25.980 -29.178   9.762  0.00  0.00    +0.142 A 
ATOM     20  C   LIG    1       26.065 -27.423   7.390  0.00  0.00    +0.047 C 
ATOM     21  C   LIG    1       25.089 -26.445   6.711  0.00  0.00    +0.088 C 
ENDROOT
BRANCH  15  22
ATOM     22  C   LIG    1       25.667 -28.807  13.372  0.00  0.00    +0.278 C 
ATOM     23  O   LIG    1       25.076 -27.897  13.945  0.00  0.00    -0.294 OA
ENDBRANCH  15  22
TORSDOF 1
ENDMDL
MODEL 5
REMARK VINA RESULT:      -5.9      7.395     10.355
REMARK  Name = *****
REMARK                            x       y       z     vdW  Elec       q    Type
REMARK                         _______ _______ _______ _____ _____    ______ ____
ROOT
ATOM      1  C   LIG    1       23.971 -31.167  13.089  0.00  0.00    +0.105 C 
ATOM      2  N   LIG    1       23.303 -31.491  11.830  0.00  0.00    -0.305 NA
ATOM      3  C   LIG    1       23.101 -30.301  10.989  0.00  0.00    +0.088 C 
ATOM      4  C   LIG    1       24.379 -29.738  10.343  0.00  0.00    +0.047 C 
ATOM      5  C   LIG    1       25.161 -30.800   9.574  0.00  0.00    -0.056 C 
ATOM      6  C   LIG    1       25.616 -30.647   8.301  0.00  0.00    +0.024 C 
ATOM      7  C   LIG    1       25.373 -29.377   7.570  0.00  0.00    -0.011 A 
ATOM      8  C   LIG    1       24.513 -29.386   6.459  0.00  0.00    -0.038 A 
ATOM      9  C   LIG    1       24.274 -28.196   5.760  0.00  0.00    +0.004 A 
ATOM     10  C   LIG    1       24.901 -27.012   6.155  0.00  0.00    +0.000 A 
ATOM     11  C   LIG    1       25.775 -27.010   7.240  0.00  0.00    +0.001 A 
ATOM     12  C   LIG    1       23.901 -30.689   6.015  0.00  0.00    +0.057 C 
ATOM     13  C   LIG    1       24.961 -31.652   5.478  0.00  0.00    +0.128 C 
ATOM     14  N   LIG    1       26.008 -32.128   6.375  0.00  0.00    -0.321 N 
ATOM     15  C   LIG    1       26.912 -33.122   6.021  0.00  0.00    +0.101 A 
ATOM     16  C   LIG    1       27.710 -33.278   7.132  0.00  0.00    +0.142 A 
ATOM     17  N   LIG    1       27.346 -32.417   8.124  0.00  0.00    -0.235 NA
ATOM     18  C   LIG    1       26.017 -28.190   7.942  0.00  0.00    +0.009 A 
ATOM     19  C   LIG    1       26.325 -31.716   7.660  0.00  0.00    +0.142 A 
ATOM     20  C   LIG    1       25.343 -32.056  10.422  0.00  0.00    +0.047 C 
ATOM     21  C   LIG    1       24.027 -32.523  11.072  0.00  0.00    +0.088 C 
ENDROOT
BRANCH  15  22
ATOM     22  C   LIG    1       27.003 -33.825   4.768  0.00  0.00    +0.278 C 
ATOM     23  O   LIG    1       27.781 -33.553   3.858  0.00  0.00    -0.294 OA
ENDBRANCH  15  22
TORSDOF 1
ENDMDL
MODEL 6
REMARK VINA RESULT:      -5.7      8.415     10.033
REMARK  Name = *****
REMARK                            x       y       z     vdW  Elec       q    Type
REMARK                         _______ _______ _______ _____ _____    ______ ____
ROOT
ATOM      1  C   LIG    1       26.843 -30.713   9.211  0.00  0.00    +0.105 C 
ATOM      2  N   LIG    1       25.887 -29.610   9.295  0.00  0.00    -0.305 NA
ATOM      3  C   LIG    1       24.696 -29.969  10.080  0.00  0.00    +0.088 C 
ATOM      4  C   LIG    1       24.928 -30.087  11.597  0.00  0.00    +0.047 C 
ATOM      5  C   LIG    1       25.590 -28.843  12.184  0.00  0.00    -0.056 C 
ATOM      6  C   LIG    1       25.143 -28.183  13.286  0.00  0.00    +0.024 C 
ATOM      7  C   LIG    1       23.941 -28.670  14.010  0.00  0.00    -0.011 A 
ATOM      8  C   LIG    1       22.774 -27.888  13.995  0.00  0.00    -0.038 A 
ATOM      9  C   LIG    1       21.634 -28.336  14.674  0.00  0.00    +0.004 A 
ATOM     10  C   LIG    1       21.662 -29.542  15.375  0.00  0.00    +0.000 A 
ATOM     11  C   LIG    1       22.828 -30.305  15.413  0.00  0.00    +0.001 A 
ATOM     12  C   LIG    1       22.790 -26.560  13.285  0.00  0.00    +0.057 C 
ATOM     13  C   LIG    1       23.713 -25.561  13.986  0.00  0.00    +0.128 C 
ATOM     14  N   LIG    1       25.140 -25.849  14.068  0.00  0.00    -0.321 N 
ATOM     15  C   LIG    1       26.070 -24.932  14.540  0.00  0.00    +0.101 A 
ATOM     16  C   LIG    1       27.279 -25.583  14.446  0.00  0.00    +0.142 A 
ATOM     17  N   LIG    1       27.121 -26.847  13.962  0.00  0.00    -0.235 NA
ATOM     18  C   LIG    1       23.968 -29.867  14.738  0.00  0.00    +0.009 A 
ATOM     19  C   LIG    1       25.827 -27.009  13.746  0.00  0.00    +0.142 A 
ATOM     20  C   LIG    1       26.806 -28.436  11.355  0.00  0.00    +0.047 C 
ATOM     21  C   LIG    1       26.500 -28.392   9.846  0.00  0.00    +0.088 C 
ENDROOT
BRANCH  15  22
ATOM     22  C   LIG    1       25.825 -23.601  15.030  0.00  0.00    +0.278 C 
ATOM     23  O   LIG    1       25.498 -22.640  14.339  0.00  0.00    -0.294 OA
ENDBRANCH  15  22
TORSDOF 1
ENDMDL
MODEL 7
REMARK VINA RESULT:      -5.5      9.614     12.096
REMARK  Name = *****
REMARK                            x       y       z     vdW  Elec       q    Type
REMARK                         _______ _______ _______ _____ _____    ______ ____
ROOT
ATOM      1  C   LIG    1       26.453 -25.894  13.363  0.00  0.00    +0.105 C 
ATOM      2  N   LIG    1       25.816 -26.873  14.243  0.00  0.00    -0.305 NA
ATOM      3  C   LIG    1       24.531 -26.388  14.770  0.00  0.00    +0.088 C 
ATOM      4  C   LIG    1       23.385 -26.336  13.744  0.00  0.00    +0.047 C 
ATOM      5  C   LIG    1       23.189 -27.665  13.021  0.00  0.00    -0.056 C 
ATOM      6  C   LIG    1       21.990 -28.291  12.875  0.00  0.00    +0.024 C 
ATOM      7  C   LIG    1       20.757 -27.676  13.430  0.00  0.00    -0.011 A 
ATOM      8  C   LIG    1       20.104 -28.307  14.502  0.00  0.00    -0.038 A 
ATOM      9  C   LIG    1       18.941 -27.738  15.034  0.00  0.00    +0.004 A 
ATOM     10  C   LIG    1       18.422 -26.561  14.491  0.00  0.00    +0.000 A 
ATOM     11  C   LIG    1       19.054 -25.950  13.410  0.00  0.00    +0.001 A 
ATOM     12  C   LIG    1       20.648 -29.610  15.027  0.00  0.00    +0.057 C 
ATOM     13  C   LIG    1       20.508 -30.732  13.995  0.00  0.00    +0.128 C 
ATOM     14  N   LIG    1       21.220 -30.624  12.728  0.00  0.00    -0.321 N 
ATOM     15  C   LIG    1       21.281 -31.660  11.804  0.00  0.00    +0.101 A 
ATOM     16  C   LIG    1       22.042 -31.162  10.772  0.00  0.00    +0.142 A 
ATOM     17  N   LIG    1       22.423 -29.876  11.017  0.00  0.00    -0.235 NA
ATOM     18  C   LIG    1       20.215 -26.509  12.875  0.00  0.00    +0.009 A 
ATOM     19  C   LIG    1       21.916 -29.551  12.194  0.00  0.00    +0.142 A 
ATOM     20  C   LIG    1       24.522 -28.200  12.502  0.00  0.00    +0.047 C 
ATOM     21  C   LIG    1       25.625 -28.170  13.576  0.00  0.00    +0.088 C 
ENDROOT
BRANCH  15  22
ATOM     22  C   LIG    1       20.674 -32.962  11.900  0.00  0.00    +0.278 C 
ATOM     23  O   LIG    1       19.497 -33.214  11.657  0.00  0.00    -0.294 OA
ENDBRANCH  15  22
TORSDOF 1
ENDMDL
MODEL 8
REMARK VINA RESULT:      -5.2      9.394     11.378
REMARK  Name = *****
REMARK                            x       y       z     vdW  Elec       q    Type
REMARK                         _______ _______ _______ _____ _____    ______ ____
ROOT
ATOM      1  C   LIG    1       27.535 -24.429  14.511  0.00  0.00    +0.105 C 
ATOM      2  N   LIG    1       27.170 -25.694  15.147  0.00  0.00    -0.305 NA
ATOM      3  C   LIG    1       25.742 -25.747  15.495  0.00  0.00    +0.088 C 
ATOM      4  C   LIG    1       24.787 -25.897  14.298  0.00  0.00    +0.047 C 
ATOM      5  C   LIG    1       25.154 -27.076  13.403  0.00  0.00    -0.056 C 
ATOM      6  C   LIG    1       24.273 -28.023  12.979  0.00  0.00    +0.024 C 
ATOM      7  C   LIG    1       22.844 -27.942  13.377  0.00  0.00    -0.011 A 
ATOM      8  C   LIG    1       22.322 -28.921  14.239  0.00  0.00    -0.038 A 
ATOM      9  C   LIG    1       20.977 -28.857  14.623  0.00  0.00    +0.004 A 
ATOM     10  C   LIG    1       20.156 -27.838  14.138  0.00  0.00    +0.000 A 
ATOM     11  C   LIG    1       20.667 -26.882  13.261  0.00  0.00    +0.001 A 
ATOM     12  C   LIG    1       23.212 -30.047  14.696  0.00  0.00    +0.057 C 
ATOM     13  C   LIG    1       23.599 -30.964  13.533  0.00  0.00    +0.128 C 
ATOM     14  N   LIG    1       24.382 -30.420  12.430  0.00  0.00    -0.321 N 
ATOM     15  C   LIG    1       24.912 -31.210  11.418  0.00  0.00    +0.101 A 
ATOM     16  C   LIG    1       25.576 -30.326  10.598  0.00  0.00    +0.142 A 
ATOM     17  N   LIG    1       25.456 -29.047  11.053  0.00  0.00    -0.235 NA
ATOM     18  C   LIG    1       22.006 -26.938  12.876  0.00  0.00    +0.009 A 
ATOM     19  C   LIG    1       24.725 -29.105  12.154  0.00  0.00    +0.142 A 
ATOM     20  C   LIG    1       26.643 -27.056  13.066  0.00  0.00    +0.047 C 
ATOM     21  C   LIG    1       27.524 -26.853  14.311  0.00  0.00    +0.088 C 
ENDROOT
BRANCH  15  22
ATOM     22  C   LIG    1       24.785 -32.634  11.254  0.00  0.00    +0.278 C 
ATOM     23  O   LIG    1       25.718 -33.432  11.244  0.00  0.00    -0.294 OA
ENDBRANCH  15  22
TORSDOF 1
ENDMDL
