MODEL 1
REMARK VINA RESULT:      -7.0      0.000      0.000
REMARK  Name = *****
REMARK                            x       y       z     vdW  Elec       q    Type
REMARK                         _______ _______ _______ _____ _____    ______ ____
ROOT
ATOM      1  C   LIG    1       21.890 -31.836  10.371  0.00  0.00    +0.086 C 
ATOM      2  C   LIG    1       23.335 -31.871   9.987  0.00  0.00    +0.103 C 
ATOM      3  O   LIG    1       23.695 -30.929   9.044  0.00  0.00    -0.464 OA
ATOM      4  C   LIG    1       25.108 -30.596   8.982  0.00  0.00    +0.235 C 
ATOM      5  N   LIG    1       25.889 -31.823   9.058  0.00  0.00    -0.243 N 
ATOM      6  C   LIG    1       26.968 -32.066   8.123  0.00  0.00    +0.208 C 
ATOM      7  C   LIG    1       26.320 -32.684   6.898  0.00  0.00    +0.237 C 
ATOM      8  O   LIG    1       26.668 -33.802   6.506  0.00  0.00    -0.274 OA
ATOM      9  N   LIG    1       25.379 -31.917   6.206  0.00  0.00    -0.273 N 
ATOM     10  C   LIG    1       24.779 -32.558   5.042  0.00  0.00    +0.138 C 
ATOM     11  C   LIG    1       25.242 -30.501   6.369  0.00  0.00    +0.045 A 
ATOM     12  C   LIG    1       25.150 -29.724   5.190  0.00  0.00    +0.025 A 
ATOM     13  C   LIG    1       25.078 -28.332   5.219  0.00  0.00    +0.022 A 
ATOM     14  C   LIG    1       25.086 -27.685   6.438  0.00  0.00    +0.042 A 
ATOM     15 CL   LIG    1       24.995 -25.969   6.499  0.00  0.00    -0.084 Cl
ATOM     16  C   LIG    1       25.150 -28.423   7.619  0.00  0.00    +0.031 A 
ATOM     17  C   LIG    1       25.563 -32.808   9.958  0.00  0.00    +0.246 C 
ATOM     18  O   LIG    1       26.279 -33.763  10.241  0.00  0.00    -0.270 OA
ATOM     19  C   LIG    1       25.229 -29.844   7.627  0.00  0.00    +0.042 A 
ATOM     20  C   LIG    1       24.209 -32.731  10.521  0.00  0.00    +0.108 C 
ENDROOT
BRANCH   4  21
ATOM     21  C   LIG    1       25.494 -29.692  10.200  0.00  0.00    +0.019 A 
ATOM     22  C   LIG    1       26.799 -29.177  10.334  0.00  0.00    +0.009 A 
ATOM     23  C   LIG    1       27.143 -28.351  11.408  0.00  0.00    +0.001 A 
ATOM     24  C   LIG    1       26.190 -28.015  12.365  0.00  0.00    +0.000 A 
ATOM     25  C   LIG    1       24.891 -28.500  12.250  0.00  0.00    +0.001 A 
ATOM     26  C   LIG    1       24.545 -29.327  11.179  0.00  0.00    +0.009 A 
ENDBRANCH   4  21
TORSDOF 1
ENDMDL
MODEL 2
REMARK VINA RESULT:      -6.5      2.974      5.952
REMARK  Name = *****
REMARK                            x       y       z     vdW  Elec       q    Type
REMARK                         _______ _______ _______ _____ _____    ______ ____
ROOT
ATOM      1  C   LIG    1       24.146 -30.278   7.776  0.00  0.00    +0.086 C 
ATOM      2  C   LIG    1       24.332 -30.696   9.200  0.00  0.00    +0.103 C 
ATOM      3  O   LIG    1       23.853 -29.790  10.126  0.00  0.00    -0.464 OA
ATOM      4  C   LIG    1       23.572 -30.320  11.449  0.00  0.00    +0.235 C 
ATOM      5  N   LIG    1       24.663 -31.198  11.851  0.00  0.00    -0.243 N 
ATOM      6  C   LIG    1       25.261 -31.071  13.163  0.00  0.00    +0.208 C 
ATOM      7  C   LIG    1       26.324 -29.995  13.029  0.00  0.00    +0.237 C 
ATOM      8  O   LIG    1       27.505 -30.249  13.287  0.00  0.00    -0.274 OA
ATOM      9  N   LIG    1       25.904 -28.710  12.674  0.00  0.00    -0.273 N 
ATOM     10  C   LIG    1       26.962 -27.715  12.549  0.00  0.00    +0.138 C 
ATOM     11  C   LIG    1       24.543 -28.273  12.762  0.00  0.00    +0.045 A 
ATOM     12  C   LIG    1       24.310 -27.015  13.368  0.00  0.00    +0.025 A 
ATOM     13  C   LIG    1       23.025 -26.512  13.569  0.00  0.00    +0.022 A 
ATOM     14  C   LIG    1       21.940 -27.258  13.155  0.00  0.00    +0.042 A 
ATOM     15 CL   LIG    1       20.346 -26.656  13.389  0.00  0.00    -0.084 Cl
ATOM     16  C   LIG    1       22.137 -28.489  12.532  0.00  0.00    +0.031 A 
ATOM     17  C   LIG    1       25.199 -32.101  10.966  0.00  0.00    +0.246 C 
ATOM     18  O   LIG    1       25.957 -33.015  11.272  0.00  0.00    -0.270 OA
ATOM     19  C   LIG    1       23.433 -29.036  12.315  0.00  0.00    +0.042 A 
ATOM     20  C   LIG    1       24.901 -31.855   9.549  0.00  0.00    +0.108 C 
ENDROOT
BRANCH   4  21
ATOM     21  C   LIG    1       22.252 -31.160  11.416  0.00  0.00    +0.019 A 
ATOM     22  C   LIG    1       21.999 -32.149  12.388  0.00  0.00    +0.009 A 
ATOM     23  C   LIG    1       20.812 -32.887  12.376  0.00  0.00    +0.001 A 
ATOM     24  C   LIG    1       19.849 -32.647  11.399  0.00  0.00    +0.000 A 
ATOM     25  C   LIG    1       20.068 -31.668  10.436  0.00  0.00    +0.001 A 
ATOM     26  C   LIG    1       21.254 -30.930  10.445  0.00  0.00    +0.009 A 
ENDBRANCH   4  21
TORSDOF 1
ENDMDL
MODEL 3
REMARK VINA RESULT:      -6.2      3.686      5.428
REMARK  Name = *****
REMARK                            x       y       z     vdW  Elec       q    Type
REMARK                         _______ _______ _______ _____ _____    ______ ____
ROOT
ATOM      1  C   LIG    1       24.652 -32.950  14.790  0.00  0.00    +0.086 C 
ATOM      2  C   LIG    1       24.370 -32.351  13.449  0.00  0.00    +0.103 C 
ATOM      3  O   LIG    1       23.986 -31.026  13.487  0.00  0.00    -0.464 OA
ATOM      4  C   LIG    1       24.158 -30.276  12.255  0.00  0.00    +0.235 C 
ATOM      5  N   LIG    1       23.701 -31.090  11.136  0.00  0.00    -0.243 N 
ATOM      6  C   LIG    1       22.817 -30.530  10.135  0.00  0.00    +0.208 C 
ATOM      7  C   LIG    1       21.413 -30.697  10.686  0.00  0.00    +0.237 C 
ATOM      8  O   LIG    1       20.569 -31.344  10.058  0.00  0.00    -0.274 OA
ATOM      9  N   LIG    1       21.103 -30.039  11.880  0.00  0.00    -0.273 N 
ATOM     10  C   LIG    1       19.746 -30.237  12.373  0.00  0.00    +0.138 C 
ATOM     11  C   LIG    1       21.893 -28.974  12.421  0.00  0.00    +0.045 A 
ATOM     12  C   LIG    1       21.200 -27.821  12.862  0.00  0.00    +0.025 A 
ATOM     13  C   LIG    1       21.863 -26.694  13.347  0.00  0.00    +0.022 A 
ATOM     14  C   LIG    1       23.242 -26.703  13.412  0.00  0.00    +0.042 A 
ATOM     15 CL   LIG    1       24.081 -25.326  14.010  0.00  0.00    -0.084 Cl
ATOM     16  C   LIG    1       23.952 -27.833  13.008  0.00  0.00    +0.031 A 
ATOM     17  C   LIG    1       24.029 -32.421  11.056  0.00  0.00    +0.246 C 
ATOM     18  O   LIG    1       23.877 -33.121  10.062  0.00  0.00    -0.270 OA
ATOM     19  C   LIG    1       23.310 -28.998  12.504  0.00  0.00    +0.042 A 
ATOM     20  C   LIG    1       24.493 -33.036  12.307  0.00  0.00    +0.108 C 
ENDROOT
BRANCH   4  21
ATOM     21  C   LIG    1       25.674 -29.951  12.038  0.00  0.00    +0.019 A 
ATOM     22  C   LIG    1       26.163 -29.596  10.765  0.00  0.00    +0.009 A 
ATOM     23  C   LIG    1       27.511 -29.282  10.570  0.00  0.00    +0.001 A 
ATOM     24  C   LIG    1       28.397 -29.308  11.644  0.00  0.00    +0.000 A 
ATOM     25  C   LIG    1       27.937 -29.643  12.914  0.00  0.00    +0.001 A 
ATOM     26  C   LIG    1       26.591 -29.958  13.110  0.00  0.00    +0.009 A 
ENDBRANCH   4  21
TORSDOF 1
ENDMDL
MODEL 4
REMARK VINA RESULT:      -6.1      3.445      5.471
REMARK  Name = *****
REMARK                            x       y       z     vdW  Elec       q    Type
REMARK                         _______ _______ _______ _____ _____    ______ ____
ROOT
ATOM      1  C   LIG    1       27.155 -30.929  15.500  0.00  0.00    +0.086 C 
ATOM      2  C   LIG    1       27.039 -30.230  14.183  0.00  0.00    +0.103 C 
ATOM      3  O   LIG    1       25.766 -29.785  13.886  0.00  0.00    -0.464 OA
ATOM      4  C   LIG    1       25.676 -28.723  12.898  0.00  0.00    +0.235 C 
ATOM      5  N   LIG    1       26.570 -29.029  11.789  0.00  0.00    -0.243 N 
ATOM      6  C   LIG    1       26.106 -28.927  10.422  0.00  0.00    +0.208 C 
ATOM      7  C   LIG    1       25.446 -30.258  10.111  0.00  0.00    +0.237 C 
ATOM      8  O   LIG    1       25.857 -30.956   9.179  0.00  0.00    -0.274 OA
ATOM      9  N   LIG    1       24.328 -30.619  10.869  0.00  0.00    -0.273 N 
ATOM     10  C   LIG    1       23.735 -31.909  10.538  0.00  0.00    +0.138 C 
ATOM     11  C   LIG    1       23.580 -29.692  11.663  0.00  0.00    +0.045 A 
ATOM     12  C   LIG    1       22.170 -29.733  11.542  0.00  0.00    +0.025 A 
ATOM     13  C   LIG    1       21.339 -28.838  12.214  0.00  0.00    +0.022 A 
ATOM     14  C   LIG    1       21.904 -27.883  13.035  0.00  0.00    +0.042 A 
ATOM     15 CL   LIG    1       20.899 -26.771  13.877  0.00  0.00    -0.084 Cl
ATOM     16  C   LIG    1       23.288 -27.832  13.194  0.00  0.00    +0.031 A 
ATOM     17  C   LIG    1       27.839 -29.501  12.021  0.00  0.00    +0.246 C 
ATOM     18  O   LIG    1       28.723 -29.577  11.175  0.00  0.00    -0.270 OA
ATOM     19  C   LIG    1       24.168 -28.726  12.521  0.00  0.00    +0.042 A 
ATOM     20  C   LIG    1       28.081 -30.039  13.367  0.00  0.00    +0.108 C 
ENDROOT
BRANCH   4  21
ATOM     21  C   LIG    1       26.128 -27.366  13.534  0.00  0.00    +0.019 A 
ATOM     22  C   LIG    1       26.029 -27.151  14.923  0.00  0.00    +0.009 A 
ATOM     23  C   LIG    1       26.452 -25.949  15.499  0.00  0.00    +0.001 A 
ATOM     24  C   LIG    1       26.990 -24.943  14.702  0.00  0.00    +0.000 A 
ATOM     25  C   LIG    1       27.110 -25.135  13.330  0.00  0.00    +0.001 A 
ATOM     26  C   LIG    1       26.687 -26.334  12.751  0.00  0.00    +0.009 A 
ENDBRANCH   4  21
TORSDOF 1
ENDMDL
MODEL 5
REMARK VINA RESULT:      -6.0      3.865      6.774
REMARK  Name = *****
REMARK                            x       y       z     vdW  Elec       q    Type
REMARK                         _______ _______ _______ _____ _____    ______ ____
ROOT
ATOM      1  C   LIG    1       26.626 -28.681   8.824  0.00  0.00    +0.086 C 
ATOM      2  C   LIG    1       26.694 -28.931  10.297  0.00  0.00    +0.103 C 
ATOM      3  O   LIG    1       25.576 -28.520  10.996  0.00  0.00    -0.464 OA
ATOM      4  C   LIG    1       25.372 -29.139  12.294  0.00  0.00    +0.235 C 
ATOM      5  N   LIG    1       26.645 -29.184  13.003  0.00  0.00    -0.243 N 
ATOM      6  C   LIG    1       26.733 -28.748  14.381  0.00  0.00    +0.208 C 
ATOM      7  C   LIG    1       26.945 -27.246  14.324  0.00  0.00    +0.237 C 
ATOM      8  O   LIG    1       27.949 -26.737  14.834  0.00  0.00    -0.274 OA
ATOM      9  N   LIG    1       25.938 -26.471  13.741  0.00  0.00    -0.273 N 
ATOM     10  C   LIG    1       26.192 -25.036  13.703  0.00  0.00    +0.138 C 
ATOM     11  C   LIG    1       24.608 -26.950  13.511  0.00  0.00    +0.045 A 
ATOM     12  C   LIG    1       23.544 -26.103  13.903  0.00  0.00    +0.025 A 
ATOM     13  C   LIG    1       22.208 -26.486  13.789  0.00  0.00    +0.022 A 
ATOM     14  C   LIG    1       21.907 -27.728  13.267  0.00  0.00    +0.042 A 
ATOM     15 CL   LIG    1       20.267 -28.220  13.115  0.00  0.00    -0.084 Cl
ATOM     16  C   LIG    1       22.932 -28.575  12.849  0.00  0.00    +0.031 A 
ATOM     17  C   LIG    1       27.796 -29.559  12.355  0.00  0.00    +0.246 C 
ATOM     18  O   LIG    1       28.854 -29.833  12.910  0.00  0.00    -0.270 OA
ATOM     19  C   LIG    1       24.306 -28.220  12.954  0.00  0.00    +0.042 A 
ATOM     20  C   LIG    1       27.742 -29.514  10.887  0.00  0.00    +0.108 C 
ENDROOT
BRANCH   4  21
ATOM     21  C   LIG    1       24.861 -30.606  12.109  0.00  0.00    +0.019 A 
ATOM     22  C   LIG    1       24.949 -31.541  13.160  0.00  0.00    +0.009 A 
ATOM     23  C   LIG    1       24.473 -32.846  13.008  0.00  0.00    +0.001 A 
ATOM     24  C   LIG    1       23.890 -33.242  11.807  0.00  0.00    +0.000 A 
ATOM     25  C   LIG    1       23.780 -32.335  10.758  0.00  0.00    +0.001 A 
ATOM     26  C   LIG    1       24.256 -31.031  10.907  0.00  0.00    +0.009 A 
ENDBRANCH   4  21
TORSDOF 1
ENDMDL
MODEL 6
REMARK VINA RESULT:      -5.6      2.901      5.993
REMARK  Name = *****
REMARK                            x       y       z     vdW  Elec       q    Type
REMARK                         _______ _______ _______ _____ _____    ______ ____
ROOT
ATOM      1  C   LIG    1       25.743 -27.761   7.542  0.00  0.00    +0.086 C 
ATOM      2  C   LIG    1       25.867 -28.673   8.722  0.00  0.00    +0.103 C 
ATOM      3  O   LIG    1       24.664 -29.011   9.308  0.00  0.00    -0.464 OA
ATOM      4  C   LIG    1       24.665 -30.219  10.116  0.00  0.00    +0.235 C 
ATOM      5  N   LIG    1       25.860 -30.230  10.950  0.00  0.00    -0.243 N 
ATOM      6  C   LIG    1       25.766 -30.527  12.364  0.00  0.00    +0.208 C 
ATOM      7  C   LIG    1       25.442 -29.208  13.040  0.00  0.00    +0.237 C 
ATOM      8  O   LIG    1       26.196 -28.747  13.904  0.00  0.00    -0.274 OA
ATOM      9  N   LIG    1       24.239 -28.583  12.700  0.00  0.00    -0.273 N 
ATOM     10  C   LIG    1       23.977 -27.315  13.370  0.00  0.00    +0.138 C 
ATOM     11  C   LIG    1       23.164 -29.253  12.032  0.00  0.00    +0.045 A 
ATOM     12  C   LIG    1       21.864 -29.068  12.560  0.00  0.00    +0.025 A 
ATOM     13  C   LIG    1       20.748 -29.719  12.037  0.00  0.00    +0.022 A 
ATOM     14  C   LIG    1       20.908 -30.566  10.959  0.00  0.00    +0.042 A 
ATOM     15 CL   LIG    1       19.546 -31.377  10.295  0.00  0.00    -0.084 Cl
ATOM     16  C   LIG    1       22.172 -30.750  10.400  0.00  0.00    +0.031 A 
ATOM     17  C   LIG    1       27.082 -29.878  10.430  0.00  0.00    +0.246 C 
ATOM     18  O   LIG    1       28.159 -30.064  10.985  0.00  0.00    -0.270 OA
ATOM     19  C   LIG    1       23.334 -30.107  10.911  0.00  0.00    +0.042 A 
ATOM     20  C   LIG    1       27.042 -29.133   9.164  0.00  0.00    +0.108 C 
ENDROOT
BRANCH   4  21
ATOM     21  C   LIG    1       24.701 -31.479   9.189  0.00  0.00    +0.019 A 
ATOM     22  C   LIG    1       24.251 -31.407   7.855  0.00  0.00    +0.009 A 
ATOM     23  C   LIG    1       24.301 -32.524   7.015  0.00  0.00    +0.001 A 
ATOM     24  C   LIG    1       24.810 -33.731   7.487  0.00  0.00    +0.000 A 
ATOM     25  C   LIG    1       25.272 -33.825   8.796  0.00  0.00    +0.001 A 
ATOM     26  C   LIG    1       25.221 -32.711   9.637  0.00  0.00    +0.009 A 
ENDBRANCH   4  21
TORSDOF 1
ENDMDL
MODEL 7
REMARK VINA RESULT:      -5.5      4.163      6.270
REMARK  Name = *****
REMARK                            x       y       z     vdW  Elec       q    Type
REMARK                         _______ _______ _______ _____ _____    ______ ____
ROOT
ATOM      1  C   LIG    1       23.351 -30.210   9.714  0.00  0.00    +0.086 C 
ATOM      2  C   LIG    1       23.715 -30.337  11.159  0.00  0.00    +0.103 C 
ATOM      3  O   LIG    1       24.284 -29.203  11.704  0.00  0.00    -0.464 OA
ATOM      4  C   LIG    1       24.221 -29.090  13.151  0.00  0.00    +0.235 C 
ATOM      5  N   LIG    1       24.558 -30.377  13.743  0.00  0.00    -0.243 N 
ATOM      6  C   LIG    1       25.513 -30.459  14.828  0.00  0.00    +0.208 C 
ATOM      7  C   LIG    1       26.879 -30.529  14.170  0.00  0.00    +0.237 C 
ATOM      8  O   LIG    1       27.623 -31.493  14.378  0.00  0.00    -0.274 OA
ATOM      9  N   LIG    1       27.279 -29.440  13.390  0.00  0.00    -0.273 N 
ATOM     10  C   LIG    1       28.594 -29.558  12.773  0.00  0.00    +0.138 C 
ATOM     11  C   LIG    1       26.649 -28.155  13.447  0.00  0.00    +0.045 A 
ATOM     12  C   LIG    1       27.498 -27.027  13.535  0.00  0.00    +0.025 A 
ATOM     13  C   LIG    1       27.003 -25.729  13.662  0.00  0.00    +0.022 A 
ATOM     14  C   LIG    1       25.637 -25.533  13.692  0.00  0.00    +0.042 A 
ATOM     15 CL   LIG    1       25.002 -23.942  13.843  0.00  0.00    -0.084 Cl
ATOM     16  C   LIG    1       24.773 -26.622  13.581  0.00  0.00    +0.031 A 
ATOM     17  C   LIG    1       24.044 -31.543  13.228  0.00  0.00    +0.246 C 
ATOM     18  O   LIG    1       24.095 -32.635  13.782  0.00  0.00    -0.270 OA
ATOM     19  C   LIG    1       25.243 -27.959  13.456  0.00  0.00    +0.042 A 
ATOM     20  C   LIG    1       23.496 -31.449  11.868  0.00  0.00    +0.108 C 
ENDROOT
BRANCH   4  21
ATOM     21  C   LIG    1       22.767 -28.712  13.591  0.00  0.00    +0.019 A 
ATOM     22  C   LIG    1       22.306 -29.003  14.890  0.00  0.00    +0.009 A 
ATOM     23  C   LIG    1       21.017 -28.648  15.296  0.00  0.00    +0.001 A 
ATOM     24  C   LIG    1       20.164 -27.987  14.416  0.00  0.00    +0.000 A 
ATOM     25  C   LIG    1       20.599 -27.677  13.131  0.00  0.00    +0.001 A 
ATOM     26  C   LIG    1       21.887 -28.032  12.723  0.00  0.00    +0.009 A 
ENDBRANCH   4  21
TORSDOF 1
ENDMDL
MODEL 8
REMARK VINA RESULT:      -5.5      2.807      5.868
REMARK  Name = *****
REMARK                            x       y       z     vdW  Elec       q    Type
REMARK                         _______ _______ _______ _____ _____    ______ ____
ROOT
ATOM      1  C   LIG    1       25.083 -27.833   6.928  0.00  0.00    +0.086 C 
ATOM      2  C   LIG    1       25.447 -28.626   8.143  0.00  0.00    +0.103 C 
ATOM      3  O   LIG    1       24.447 -29.463   8.597  0.00  0.00    -0.464 OA
ATOM      4  C   LIG    1       24.872 -30.567   9.439  0.00  0.00    +0.235 C 
ATOM      5  N   LIG    1       25.848 -30.080  10.405  0.00  0.00    -0.243 N 
ATOM      6  C   LIG    1       25.724 -30.417  11.807  0.00  0.00    +0.208 C 
ATOM      7  C   LIG    1       24.786 -29.381  12.398  0.00  0.00    +0.237 C 
ATOM      8  O   LIG    1       25.160 -28.658  13.328  0.00  0.00    -0.274 OA
ATOM      9  N   LIG    1       23.481 -29.330  11.901  0.00  0.00    -0.273 N 
ATOM     10  C   LIG    1       22.621 -28.313  12.494  0.00  0.00    +0.138 C 
ATOM     11  C   LIG    1       22.887 -30.384  11.135  0.00  0.00    +0.045 A 
ATOM     12  C   LIG    1       21.581 -30.789  11.504  0.00  0.00    +0.025 A 
ATOM     13  C   LIG    1       20.925 -31.847  10.877  0.00  0.00    +0.022 A 
ATOM     14  C   LIG    1       21.561 -32.519   9.853  0.00  0.00    +0.042 A 
ATOM     15 CL   LIG    1       20.770 -33.825   9.062  0.00  0.00    -0.084 Cl
ATOM     16  C   LIG    1       22.837 -32.129   9.450  0.00  0.00    +0.031 A 
ATOM     17  C   LIG    1       26.850 -29.224  10.019  0.00  0.00    +0.246 C 
ATOM     18  O   LIG    1       27.829 -28.938  10.700  0.00  0.00    -0.270 OA
ATOM     19  C   LIG    1       23.539 -31.058  10.070  0.00  0.00    +0.042 A 
ATOM     20  C   LIG    1       26.644 -28.543   8.733  0.00  0.00    +0.108 C 
ENDROOT
BRANCH   4  21
ATOM     21  C   LIG    1       25.556 -31.669   8.563  0.00  0.00    +0.019 A 
ATOM     22  C   LIG    1       25.363 -31.708   7.168  0.00  0.00    +0.009 A 
ATOM     23  C   LIG    1       25.989 -32.676   6.377  0.00  0.00    +0.001 A 
ATOM     24  C   LIG    1       26.829 -33.620   6.963  0.00  0.00    +0.000 A 
ATOM     25  C   LIG    1       27.046 -33.597   8.337  0.00  0.00    +0.001 A 
ATOM     26  C   LIG    1       26.421 -32.631   9.128  0.00  0.00    +0.009 A 
ENDBRANCH   4  21
TORSDOF 1
ENDMDL
MODEL 9
REMARK VINA RESULT:      -5.2      4.648      7.613
REMARK  Name = *****
REMARK                            x       y       z     vdW  Elec       q    Type
REMARK                         _______ _______ _______ _____ _____    ______ ____
ROOT
ATOM      1  C   LIG    1       26.702 -28.233   9.813  0.00  0.00    +0.086 C 
ATOM      2  C   LIG    1       26.975 -28.546  11.249  0.00  0.00    +0.103 C 
ATOM      3  O   LIG    1       26.144 -27.898  12.141  0.00  0.00    -0.464 OA
ATOM      4  C   LIG    1       26.035 -28.495  13.461  0.00  0.00    +0.235 C 
ATOM      5  N   LIG    1       27.364 -28.881  13.919  0.00  0.00    -0.243 N 
ATOM      6  C   LIG    1       27.811 -28.532  15.251  0.00  0.00    +0.208 C 
ATOM      7  C   LIG    1       28.378 -27.129  15.140  0.00  0.00    +0.237 C 
ATOM      8  O   LIG    1       29.553 -26.904  15.448  0.00  0.00    -0.274 OA
ATOM      9  N   LIG    1       27.507 -26.107  14.749  0.00  0.00    -0.273 N 
ATOM     10  C   LIG    1       28.101 -24.779  14.649  0.00  0.00    +0.138 C 
ATOM     11  C   LIG    1       26.081 -26.233  14.777  0.00  0.00    +0.045 A 
ATOM     12  C   LIG    1       25.354 -25.164  15.354  0.00  0.00    +0.025 A 
ATOM     13  C   LIG    1       23.967 -25.199  15.497  0.00  0.00    +0.022 A 
ATOM     14  C   LIG    1       23.274 -26.307  15.053  0.00  0.00    +0.042 A 
ATOM     15 CL   LIG    1       21.564 -26.371  15.216  0.00  0.00    -0.084 Cl
ATOM     16  C   LIG    1       23.959 -27.365  14.458  0.00  0.00    +0.031 A 
ATOM     17  C   LIG    1       28.245 -29.505  13.070  0.00  0.00    +0.246 C 
ATOM     18  O   LIG    1       29.284 -30.054  13.419  0.00  0.00    -0.270 OA
ATOM     19  C   LIG    1       25.374 -27.367  14.300  0.00  0.00    +0.042 A 
ATOM     20  C   LIG    1       27.934 -29.394  11.638  0.00  0.00    +0.108 C 
ENDROOT
BRANCH   4  21
ATOM     21  C   LIG    1       25.147 -29.782  13.390  0.00  0.00    +0.019 A 
ATOM     22  C   LIG    1       24.219 -29.963  12.345  0.00  0.00    +0.009 A 
ATOM     23  C   LIG    1       23.440 -31.121  12.264  0.00  0.00    +0.001 A 
ATOM     24  C   LIG    1       23.577 -32.125  13.219  0.00  0.00    +0.000 A 
ATOM     25  C   LIG    1       24.494 -31.976  14.254  0.00  0.00    +0.001 A 
ATOM     26  C   LIG    1       25.273 -30.820  14.338  0.00  0.00    +0.009 A 
ENDBRANCH   4  21
TORSDOF 1
ENDMDL
