MODEL 1
REMARK VINA RESULT:      -0.9      0.000      0.000
REMARK  Name = *****
REMARK                            x       y       z     vdW  Elec       q    Type
REMARK                         _______ _______ _______ _____ _____    ______ ____
ROOT
ATOM      1  C   LIG    1       29.474 -18.743   6.840  0.00  0.00    +0.105 C 
ATOM      2  N   LIG    1       29.140 -19.253   5.506  0.00  0.00    -0.302 NA
ENDROOT
BRANCH   2   3
ATOM      3  C   LIG    1       28.511 -18.207   4.678  0.00  0.00    +0.089 C 
BRANCH   3   4
ATOM      4  C   LIG    1       28.665 -16.778   5.240  0.00  0.00    +0.050 C 
BRANCH   4   5
ATOM      5  C   LIG    1       27.883 -15.722   4.493  0.00  0.00    -0.046 A 
ATOM      6  C   LIG    1       26.786 -16.109   3.709  0.00  0.00    +0.005 A 
ATOM      7  C   LIG    1       26.073 -15.163   2.971  0.00  0.00    +0.025 A 
ATOM      8  C   LIG    1       26.450 -13.823   3.019  0.00  0.00    +0.048 A 
ATOM      9  C   LIG    1       27.558 -13.430   3.760  0.00  0.00    +0.025 A 
ATOM     10  C   LIG    1       28.275 -14.376   4.486  0.00  0.00    +0.005 A 
BRANCH   8  11
ATOM     11  N   LIG    1       25.737 -12.850   2.262  0.00  0.00    -0.221 N 
ATOM     12  H   LIG    1       26.237 -11.974   2.111  0.00  0.00    +0.173 HD
BRANCH  11  13
ATOM     13  S   LIG    1       24.153 -12.507   2.741  0.00  0.00    +0.040 S 
ATOM     14  O   LIG    1       23.522 -13.804   2.911  0.00  0.00    -0.155 OA
ATOM     15  O   LIG    1       23.576 -11.505   1.882  0.00  0.00    -0.155 OA
ATOM     16  C   LIG    1       24.407 -11.822   4.365  0.00  0.00    +0.218 C 
ENDBRANCH  11  13
ENDBRANCH   8  11
ENDBRANCH   4   5
ENDBRANCH   3   4
ENDBRANCH   2   3
BRANCH   2  17
ATOM     17  C   LIG    1       28.223 -20.415   5.595  0.00  0.00    +0.125 C 
BRANCH  17  18
ATOM     18  C   LIG    1       27.876 -20.791   7.041  0.00  0.00    +0.244 C 
BRANCH  18  19
ATOM     19  O   LIG    1       26.673 -21.564   7.058  0.00  0.00    -0.491 OA
BRANCH  19  20
ATOM     20  C   LIG    1       25.648 -21.101   6.284  0.00  0.00    +0.121 A 
ATOM     21  C   LIG    1       24.395 -21.115   6.893  0.00  0.00    +0.047 A 
ATOM     22  C   LIG    1       23.286 -20.597   6.226  0.00  0.00    +0.028 A 
ATOM     23  C   LIG    1       23.426 -20.094   4.933  0.00  0.00    +0.048 A 
ATOM     24  C   LIG    1       24.660 -20.139   4.292  0.00  0.00    +0.028 A 
ATOM     25  C   LIG    1       25.769 -20.649   4.967  0.00  0.00    +0.047 A 
BRANCH  23  26
ATOM     26  N   LIG    1       22.275 -19.677   4.213  0.00  0.00    -0.221 N 
ATOM     27  H   LIG    1       22.173 -20.065   3.270  0.00  0.00    +0.173 HD
BRANCH  26  28
ATOM     28  S   LIG    1       21.935 -18.018   4.201  0.00  0.00    +0.040 S 
ATOM     29  O   LIG    1       22.922 -17.325   3.373  0.00  0.00    -0.155 OA
ATOM     30  O   LIG    1       21.714 -17.655   5.582  0.00  0.00    -0.155 OA
ATOM     31  C   LIG    1       20.370 -17.985   3.359  0.00  0.00    +0.218 C 
ENDBRANCH  26  28
ENDBRANCH  23  26
ENDBRANCH  19  20
ENDBRANCH  18  19
ENDBRANCH  17  18
ENDBRANCH   2  17
TORSDOF 11
ENDMDL
MODEL 2
REMARK VINA RESULT:      -0.8      2.320      5.464
REMARK  Name = *****
REMARK                            x       y       z     vdW  Elec       q    Type
REMARK                         _______ _______ _______ _____ _____    ______ ____
ROOT
ATOM      1  C   LIG    1       23.923 -20.865   6.942  0.00  0.00    +0.105 C 
ATOM      2  N   LIG    1       23.453 -21.336   5.635  0.00  0.00    -0.302 NA
ENDROOT
BRANCH   2   3
ATOM      3  C   LIG    1       24.498 -21.178   4.606  0.00  0.00    +0.089 C 
BRANCH   3   4
ATOM      4  C   LIG    1       25.930 -21.072   5.170  0.00  0.00    +0.050 C 
BRANCH   4   5
ATOM      5  C   LIG    1       26.629 -19.766   4.867  0.00  0.00    -0.046 A 
ATOM      6  C   LIG    1       27.801 -19.439   5.567  0.00  0.00    +0.005 A 
ATOM      7  C   LIG    1       28.443 -18.220   5.344  0.00  0.00    +0.025 A 
ATOM      8  C   LIG    1       27.920 -17.324   4.414  0.00  0.00    +0.048 A 
ATOM      9  C   LIG    1       26.739 -17.616   3.744  0.00  0.00    +0.025 A 
ATOM     10  C   LIG    1       26.093 -18.827   3.976  0.00  0.00    +0.005 A 
BRANCH   8  11
ATOM     11  N   LIG    1       28.560 -16.073   4.186  0.00  0.00    -0.221 N 
ATOM     12  H   LIG    1       29.270 -15.824   4.875  0.00  0.00    +0.173 HD
BRANCH  11  13
ATOM     13  S   LIG    1       27.565 -14.735   3.909  0.00  0.00    +0.040 S 
ATOM     14  O   LIG    1       26.883 -14.507   5.171  0.00  0.00    -0.155 OA
ATOM     15  O   LIG    1       26.828 -14.904   2.683  0.00  0.00    -0.155 OA
ATOM     16  C   LIG    1       28.761 -13.430   3.707  0.00  0.00    +0.218 C 
ENDBRANCH  11  13
ENDBRANCH   8  11
ENDBRANCH   4   5
ENDBRANCH   3   4
ENDBRANCH   2   3
BRANCH   2  17
ATOM     17  C   LIG    1       22.240 -20.597   5.209  0.00  0.00    +0.125 C 
BRANCH  17  18
ATOM     18  C   LIG    1       22.560 -19.381   4.329  0.00  0.00    +0.244 C 
BRANCH  18  19
ATOM     19  O   LIG    1       21.743 -18.276   4.726  0.00  0.00    -0.491 OA
BRANCH  19  20
ATOM     20  C   LIG    1       22.339 -17.049   4.708  0.00  0.00    +0.121 A 
ATOM     21  C   LIG    1       23.298 -16.872   3.712  0.00  0.00    +0.047 A 
ATOM     22  C   LIG    1       23.919 -15.636   3.550  0.00  0.00    +0.028 A 
ATOM     23  C   LIG    1       23.605 -14.582   4.407  0.00  0.00    +0.048 A 
ATOM     24  C   LIG    1       22.699 -14.770   5.447  0.00  0.00    +0.028 A 
ATOM     25  C   LIG    1       22.071 -16.006   5.599  0.00  0.00    +0.047 A 
BRANCH  23  26
ATOM     26  N   LIG    1       24.325 -13.361   4.315  0.00  0.00    -0.221 N 
ATOM     27  H   LIG    1       24.196 -12.707   5.094  0.00  0.00    +0.173 HD
BRANCH  26  28
ATOM     28  S   LIG    1       24.252 -12.535   2.839  0.00  0.00    +0.040 S 
ATOM     29  O   LIG    1       23.279 -11.447   2.938  0.00  0.00    -0.155 OA
ATOM     30  O   LIG    1       24.146 -13.558   1.824  0.00  0.00    -0.155 OA
ATOM     31  C   LIG    1       25.881 -11.828   2.750  0.00  0.00    +0.218 C 
ENDBRANCH  26  28
ENDBRANCH  23  26
ENDBRANCH  19  20
ENDBRANCH  18  19
ENDBRANCH  17  18
ENDBRANCH   2  17
TORSDOF 11
ENDMDL
MODEL 3
REMARK VINA RESULT:       0.2      2.774      7.913
REMARK  Name = *****
REMARK                            x       y       z     vdW  Elec       q    Type
REMARK                         _______ _______ _______ _____ _____    ______ ____
ROOT
ATOM      1  C   LIG    1       20.114 -18.268   3.309  0.00  0.00    +0.105 C 
ATOM      2  N   LIG    1       21.427 -18.819   3.661  0.00  0.00    -0.302 NA
ENDROOT
BRANCH   2   3
ATOM      3  C   LIG    1       21.299 -19.904   4.653  0.00  0.00    +0.089 C 
BRANCH   3   4
ATOM      4  C   LIG    1       22.306 -21.057   4.461  0.00  0.00    +0.050 C 
BRANCH   4   5
ATOM      5  C   LIG    1       23.633 -20.854   5.156  0.00  0.00    -0.046 A 
ATOM      6  C   LIG    1       24.691 -20.258   4.453  0.00  0.00    +0.005 A 
ATOM      7  C   LIG    1       25.941 -20.100   5.052  0.00  0.00    +0.025 A 
ATOM      8  C   LIG    1       26.139 -20.531   6.362  0.00  0.00    +0.048 A 
ATOM      9  C   LIG    1       25.113 -21.158   7.057  0.00  0.00    +0.025 A 
ATOM     10  C   LIG    1       23.870 -21.326   6.454  0.00  0.00    +0.005 A 
BRANCH   8  11
ATOM     11  N   LIG    1       27.413 -20.384   6.980  0.00  0.00    -0.221 N 
ATOM     12  H   LIG    1       27.393 -19.963   7.908  0.00  0.00    +0.173 HD
BRANCH  11  13
ATOM     13  S   LIG    1       28.635 -19.654   6.068  0.00  0.00    +0.040 S 
ATOM     14  O   LIG    1       29.193 -20.724   5.262  0.00  0.00    -0.155 OA
ATOM     15  O   LIG    1       29.473 -18.842   6.914  0.00  0.00    -0.155 OA
ATOM     16  C   LIG    1       27.695 -18.602   4.981  0.00  0.00    +0.218 C 
ENDBRANCH  11  13
ENDBRANCH   8  11
ENDBRANCH   4   5
ENDBRANCH   3   4
ENDBRANCH   2   3
BRANCH   2  17
ATOM     17  C   LIG    1       22.316 -17.766   4.209  0.00  0.00    +0.125 C 
BRANCH  17  18
ATOM     18  C   LIG    1       21.756 -16.352   4.014  0.00  0.00    +0.244 C 
BRANCH  18  19
ATOM     19  O   LIG    1       22.416 -15.450   4.907  0.00  0.00    -0.491 OA
BRANCH  19  20
ATOM     20  C   LIG    1       23.459 -14.741   4.387  0.00  0.00    +0.121 A 
ATOM     21  C   LIG    1       24.714 -15.085   4.887  0.00  0.00    +0.047 A 
ATOM     22  C   LIG    1       25.861 -14.480   4.375  0.00  0.00    +0.028 A 
ATOM     23  C   LIG    1       25.750 -13.506   3.384  0.00  0.00    +0.048 A 
ATOM     24  C   LIG    1       24.496 -13.109   2.928  0.00  0.00    +0.028 A 
ATOM     25  C   LIG    1       23.352 -13.724   3.435  0.00  0.00    +0.047 A 
BRANCH  23  26
ATOM     26  N   LIG    1       26.908 -12.808   2.950  0.00  0.00    -0.221 N 
ATOM     27  H   LIG    1       26.991 -12.665   1.938  0.00  0.00    +0.173 HD
BRANCH  26  28
ATOM     28  S   LIG    1       28.393 -13.308   3.593  0.00  0.00    +0.040 S 
ATOM     29  O   LIG    1       29.475 -12.879   2.708  0.00  0.00    -0.155 OA
ATOM     30  O   LIG    1       28.213 -14.695   3.955  0.00  0.00    -0.155 OA
ATOM     31  C   LIG    1       28.471 -12.347   5.087  0.00  0.00    +0.218 C 
ENDBRANCH  26  28
ENDBRANCH  23  26
ENDBRANCH  19  20
ENDBRANCH  18  19
ENDBRANCH  17  18
ENDBRANCH   2  17
TORSDOF 11
ENDMDL
MODEL 4
REMARK VINA RESULT:       0.5      2.420      5.130
REMARK  Name = *****
REMARK                            x       y       z     vdW  Elec       q    Type
REMARK                         _______ _______ _______ _____ _____    ______ ____
ROOT
ATOM      1  C   LIG    1       21.611 -21.484   4.933  0.00  0.00    +0.105 C 
ATOM      2  N   LIG    1       22.930 -20.846   5.007  0.00  0.00    -0.302 NA
ENDROOT
BRANCH   2   3
ATOM      3  C   LIG    1       22.836 -19.499   5.600  0.00  0.00    +0.089 C 
BRANCH   3   4
ATOM      4  C   LIG    1       21.907 -18.534   4.835  0.00  0.00    +0.050 C 
BRANCH   4   5
ATOM      5  C   LIG    1       22.434 -17.123   4.707  0.00  0.00    -0.046 A 
ATOM      6  C   LIG    1       23.341 -16.822   3.679  0.00  0.00    +0.005 A 
ATOM      7  C   LIG    1       23.881 -15.541   3.563  0.00  0.00    +0.025 A 
ATOM      8  C   LIG    1       23.512 -14.551   4.471  0.00  0.00    +0.048 A 
ATOM      9  C   LIG    1       22.647 -14.844   5.517  0.00  0.00    +0.025 A 
ATOM     10  C   LIG    1       22.118 -16.125   5.639  0.00  0.00    +0.005 A 
BRANCH   8  11
ATOM     11  N   LIG    1       24.066 -13.243   4.369  0.00  0.00    -0.221 N 
ATOM     12  H   LIG    1       23.661 -12.556   5.005  0.00  0.00    +0.173 HD
BRANCH  11  13
ATOM     13  S   LIG    1       24.174 -12.568   2.823  0.00  0.00    +0.040 S 
ATOM     14  O   LIG    1       23.250 -11.448   2.837  0.00  0.00    -0.155 OA
ATOM     15  O   LIG    1       24.081 -13.598   1.820  0.00  0.00    -0.155 OA
ATOM     16  C   LIG    1       25.824 -11.898   2.835  0.00  0.00    +0.218 C 
ENDBRANCH  11  13
ENDBRANCH   8  11
ENDBRANCH   4   5
ENDBRANCH   3   4
ENDBRANCH   2   3
BRANCH   2  17
ATOM     17  C   LIG    1       23.544 -20.739   3.661  0.00  0.00    +0.125 C 
BRANCH  17  18
ATOM     18  C   LIG    1       24.980 -21.277   3.617  0.00  0.00    +0.244 C 
BRANCH  18  19
ATOM     19  O   LIG    1       25.685 -20.851   4.787  0.00  0.00    -0.491 OA
BRANCH  19  20
ATOM     20  C   LIG    1       26.437 -19.719   4.659  0.00  0.00    +0.121 A 
ATOM     21  C   LIG    1       25.965 -18.799   3.724  0.00  0.00    +0.047 A 
ATOM     22  C   LIG    1       26.608 -17.574   3.561  0.00  0.00    +0.028 A 
ATOM     23  C   LIG    1       27.747 -17.281   4.311  0.00  0.00    +0.048 A 
ATOM     24  C   LIG    1       28.263 -18.222   5.197  0.00  0.00    +0.028 A 
ATOM     25  C   LIG    1       27.610 -19.442   5.365  0.00  0.00    +0.047 A 
BRANCH  23  26
ATOM     26  N   LIG    1       28.468 -16.084   4.058  0.00  0.00    -0.221 N 
ATOM     27  H   LIG    1       29.290 -15.924   4.649  0.00  0.00    +0.173 HD
BRANCH  26  28
ATOM     28  S   LIG    1       27.565 -14.659   3.915  0.00  0.00    +0.040 S 
ATOM     29  O   LIG    1       26.705 -14.507   5.088  0.00  0.00    -0.155 OA
ATOM     30  O   LIG    1       27.025 -14.673   2.574  0.00  0.00    -0.155 OA
ATOM     31  C   LIG    1       28.842 -13.424   3.988  0.00  0.00    +0.218 C 
ENDBRANCH  26  28
ENDBRANCH  23  26
ENDBRANCH  19  20
ENDBRANCH  18  19
ENDBRANCH  17  18
ENDBRANCH   2  17
TORSDOF 11
ENDMDL
MODEL 5
REMARK VINA RESULT:       2.0      1.677      6.210
REMARK  Name = *****
REMARK                            x       y       z     vdW  Elec       q    Type
REMARK                         _______ _______ _______ _____ _____    ______ ____
ROOT
ATOM      1  C   LIG    1       28.868 -20.999   6.982  0.00  0.00    +0.105 C 
ATOM      2  N   LIG    1       28.380 -19.761   6.365  0.00  0.00    -0.302 NA
ENDROOT
BRANCH   2   3
ATOM      3  C   LIG    1       27.292 -20.037   5.408  0.00  0.00    +0.089 C 
BRANCH   3   4
ATOM      4  C   LIG    1       26.203 -20.989   5.946  0.00  0.00    +0.050 C 
BRANCH   4   5
ATOM      5  C   LIG    1       24.823 -20.747   5.379  0.00  0.00    -0.046 A 
ATOM      6  C   LIG    1       23.847 -20.144   6.187  0.00  0.00    +0.005 A 
ATOM      7  C   LIG    1       22.550 -19.951   5.708  0.00  0.00    +0.025 A 
ATOM      8  C   LIG    1       22.225 -20.353   4.415  0.00  0.00    +0.048 A 
ATOM      9  C   LIG    1       23.169 -20.988   3.617  0.00  0.00    +0.025 A 
ATOM     10  C   LIG    1       24.458 -21.191   4.100  0.00  0.00    +0.005 A 
BRANCH   8  11
ATOM     11  N   LIG    1       20.902 -20.171   3.920  0.00  0.00    -0.221 N 
ATOM     12  H   LIG    1       20.648 -20.781   3.142  0.00  0.00    +0.173 HD
BRANCH  11  13
ATOM     13  S   LIG    1       20.422 -18.591   3.562  0.00  0.00    +0.040 S 
ATOM     14  O   LIG    1       20.190 -17.967   4.852  0.00  0.00    -0.155 OA
ATOM     15  O   LIG    1       19.404 -18.595   2.542  0.00  0.00    -0.155 OA
ATOM     16  C   LIG    1       21.923 -17.898   2.898  0.00  0.00    +0.218 C 
ENDBRANCH  11  13
ENDBRANCH   8  11
ENDBRANCH   4   5
ENDBRANCH   3   4
ENDBRANCH   2   3
BRANCH   2  17
ATOM     17  C   LIG    1       29.475 -19.051   5.661  0.00  0.00    +0.125 C 
BRANCH  17  18
ATOM     18  C   LIG    1       29.078 -17.639   5.213  0.00  0.00    +0.244 C 
BRANCH  18  19
ATOM     19  O   LIG    1       27.876 -17.703   4.440  0.00  0.00    -0.491 OA
BRANCH  19  20
ATOM     20  C   LIG    1       27.325 -16.507   4.081  0.00  0.00    +0.121 A 
ATOM     21  C   LIG    1       27.724 -15.418   4.854  0.00  0.00    +0.047 A 
ATOM     22  C   LIG    1       27.285 -14.135   4.534  0.00  0.00    +0.028 A 
ATOM     23  C   LIG    1       26.418 -13.944   3.458  0.00  0.00    +0.048 A 
ATOM     24  C   LIG    1       25.961 -15.035   2.725  0.00  0.00    +0.028 A 
ATOM     25  C   LIG    1       26.412 -16.316   3.041  0.00  0.00    +0.047 A 
BRANCH  23  26
ATOM     26  N   LIG    1       25.879 -12.654   3.209  0.00  0.00    -0.221 N 
ATOM     27  H   LIG    1       26.385 -11.869   3.630  0.00  0.00    +0.173 HD
BRANCH  26  28
ATOM     28  S   LIG    1       24.212 -12.461   3.429  0.00  0.00    +0.040 S 
ATOM     29  O   LIG    1       23.968 -11.695   4.651  0.00  0.00    -0.155 OA
ATOM     30  O   LIG    1       23.637 -13.772   3.229  0.00  0.00    -0.155 OA
ATOM     31  C   LIG    1       23.786 -11.447   2.033  0.00  0.00    +0.218 C 
ENDBRANCH  26  28
ENDBRANCH  23  26
ENDBRANCH  19  20
ENDBRANCH  18  19
ENDBRANCH  17  18
ENDBRANCH   2  17
TORSDOF 11
ENDMDL
