MODEL 1
REMARK VINA RESULT:       4.8      0.000      0.000
REMARK  Name = *****
REMARK                            x       y       z     vdW  Elec       q    Type
REMARK                         _______ _______ _______ _____ _____    ______ ____
ROOT
ATOM      1  C   LIG    1       23.130 -18.766   3.657  0.00  0.00    +0.001 C 
ATOM      2  C   LIG    1       24.323 -17.975   4.321  0.00  0.00    +0.000 C 
ATOM      3  C   LIG    1       24.720 -18.627   5.673  0.00  0.00    +0.014 C 
ATOM      4  C   LIG    1       23.700 -16.557   4.615  0.00  0.00    +0.001 C 
ATOM      5  C   LIG    1       23.696 -15.568   3.417  0.00  0.00    -0.004 C 
ATOM      6  C   LIG    1       25.064 -15.438   2.722  0.00  0.00    +0.001 C 
ATOM      7  C   LIG    1       25.555 -16.828   2.326  0.00  0.00    +0.036 C 
ATOM      8  C   LIG    1       26.101 -14.433   3.396  0.00  0.00    -0.026 C 
ATOM      9  C   LIG    1       26.457 -13.395   2.289  0.00  0.00    +0.012 C 
ATOM     10  C   LIG    1       25.487 -13.732   4.644  0.00  0.00    -0.002 C 
ATOM     11  C   LIG    1       26.415 -12.663   5.247  0.00  0.00    +0.035 C 
ATOM     12  C   LIG    1       27.768 -13.260   5.640  0.00  0.00    +0.115 C 
ATOM     13  C   LIG    1       28.406 -14.083   4.524  0.00  0.00    +0.032 C 
ATOM     14  C   LIG    1       24.086 -13.180   4.404  0.00  0.00    +0.004 C 
ATOM     15  C   LIG    1       27.429 -15.077   3.886  0.00  0.00    +0.009 C 
ATOM     16  C   LIG    1       23.139 -14.159   3.709  0.00  0.00    +0.004 C 
ATOM     17  C   LIG    1       22.276 -16.884   5.064  0.00  0.00    +0.005 C 
ATOM     18  C   LIG    1       25.620 -17.834   3.470  0.00  0.00    +0.121 C 
ATOM     19  C   LIG    1       21.869 -18.143   4.315  0.00  0.00    +0.005 C 
ENDROOT
BRANCH   1  21
ATOM     20  C   LIG    1       22.021 -20.867   4.788  0.00  0.00    +0.008 C 
ATOM     21  C   LIG    1       23.026 -20.333   3.767  0.00  0.00    -0.010 C 
BRANCH  21  22
ATOM     22  C   LIG    1       24.401 -21.014   4.044  0.00  0.00    +0.015 C 
BRANCH  22  23
ATOM     23  C   LIG    1       24.591 -21.530   5.469  0.00  0.00    +0.121 C 
BRANCH  23  24
ATOM     24  C   LIG    1       26.000 -21.286   5.939  0.00  0.00    +0.305 C 
ATOM     25  O   LIG    1       26.402 -21.567   7.062  0.00  0.00    -0.251 OA
BRANCH  24  26
ATOM     26  O   LIG    1       26.785 -20.692   5.017  0.00  0.00    -0.481 OA
ATOM     27  H   LIG    1       27.564 -20.239   5.393  0.00  0.00    +0.295 HD
ENDBRANCH  24  26
ENDBRANCH  23  24
ENDBRANCH  22  23
ENDBRANCH  21  22
ENDBRANCH   1  21
BRANCH  12  28
ATOM     28  O   LIG    1       28.667 -12.217   6.002  0.00  0.00    -0.392 OA
ATOM     29  H   LIG    1       28.510 -11.469   5.401  0.00  0.00    +0.210 HD
ENDBRANCH  12  28
BRANCH  18  30
ATOM     30  O   LIG    1       26.036 -19.075   2.916  0.00  0.00    -0.391 OA
ATOM     31  H   LIG    1       26.556 -18.891   2.115  0.00  0.00    +0.210 HD
ENDBRANCH  18  30
TORSDOF 7
ENDMDL
MODEL 2
REMARK VINA RESULT:       7.5      2.337      7.159
REMARK  Name = *****
REMARK                            x       y       z     vdW  Elec       q    Type
REMARK                         _______ _______ _______ _____ _____    ______ ____
ROOT
ATOM      1  C   LIG    1       27.370 -14.821   3.338  0.00  0.00    +0.001 C 
ATOM      2  C   LIG    1       26.251 -15.607   4.124  0.00  0.00    +0.000 C 
ATOM      3  C   LIG    1       25.624 -14.707   5.223  0.00  0.00    +0.014 C 
ATOM      4  C   LIG    1       27.049 -16.770   4.827  0.00  0.00    +0.001 C 
ATOM      5  C   LIG    1       27.325 -18.019   3.946  0.00  0.00    -0.004 C 
ATOM      6  C   LIG    1       26.071 -18.561   3.237  0.00  0.00    +0.001 C 
ATOM      7  C   LIG    1       25.415 -17.429   2.451  0.00  0.00    +0.036 C 
ATOM      8  C   LIG    1       25.136 -19.522   4.100  0.00  0.00    -0.026 C 
ATOM      9  C   LIG    1       25.055 -20.857   3.299  0.00  0.00    +0.012 C 
ATOM     10  C   LIG    1       25.721 -19.758   5.524  0.00  0.00    -0.002 C 
ATOM     11  C   LIG    1       24.911 -20.779   6.342  0.00  0.00    +0.035 C 
ATOM     12  C   LIG    1       23.450 -20.345   6.481  0.00  0.00    +0.115 C 
ATOM     13  C   LIG    1       22.809 -19.963   5.148  0.00  0.00    +0.032 C 
ATOM     14  C   LIG    1       27.207 -20.100   5.522  0.00  0.00    +0.004 C 
ATOM     15  C   LIG    1       23.683 -19.013   4.320  0.00  0.00    +0.009 C 
ATOM     16  C   LIG    1       28.058 -19.186   4.642  0.00  0.00    +0.004 C 
ATOM     17  C   LIG    1       28.354 -16.096   5.250  0.00  0.00    +0.005 C 
ATOM     18  C   LIG    1       25.083 -16.188   3.272  0.00  0.00    +0.121 C 
ATOM     19  C   LIG    1       28.639 -15.023   4.210  0.00  0.00    +0.005 C 
ENDROOT
BRANCH   1  21
ATOM     20  C   LIG    1       27.270 -12.347   4.230  0.00  0.00    +0.008 C 
ATOM     21  C   LIG    1       27.222 -13.286   3.023  0.00  0.00    -0.010 C 
BRANCH  21  22
ATOM     22  C   LIG    1       25.935 -12.955   2.207  0.00  0.00    +0.015 C 
BRANCH  22  23
ATOM     23  C   LIG    1       25.199 -11.691   2.646  0.00  0.00    +0.121 C 
BRANCH  23  24
ATOM     24  C   LIG    1       23.956 -12.042   3.419  0.00  0.00    +0.305 C 
ATOM     25  O   LIG    1       23.651 -11.529   4.489  0.00  0.00    -0.251 OA
BRANCH  24  26
ATOM     26  O   LIG    1       23.211 -13.006   2.841  0.00  0.00    -0.481 OA
ATOM     27  H   LIG    1       23.549 -13.301   1.974  0.00  0.00    +0.295 HD
ENDBRANCH  24  26
ENDBRANCH  23  24
ENDBRANCH  22  23
ENDBRANCH  21  22
ENDBRANCH   1  21
BRANCH  12  28
ATOM     28  O   LIG    1       22.689 -21.398   7.062  0.00  0.00    -0.392 OA
ATOM     29  H   LIG    1       21.756 -21.251   6.833  0.00  0.00    +0.210 HD
ENDBRANCH  12  28
BRANCH  18  30
ATOM     30  O   LIG    1       24.541 -15.225   2.378  0.00  0.00    -0.391 OA
ATOM     31  H   LIG    1       25.263 -14.883   1.825  0.00  0.00    +0.210 HD
ENDBRANCH  18  30
TORSDOF 7
ENDMDL
