MODEL 1
REMARK VINA RESULT:      -9.4      0.000      0.000
REMARK  Name = *****
REMARK                            x       y       z     vdW  Elec       q    Type
REMARK                         _______ _______ _______ _____ _____    ______ ____
ROOT
ATOM      1  N   LIG    1       25.447 -21.686   8.743  0.00  0.00    -0.297 NA
ATOM      2  C   LIG    1       26.386 -22.726   8.264  0.00  0.00    +0.100 C 
ATOM      3  C   LIG    1       27.197 -22.364   6.997  0.00  0.00    +0.100 C 
ATOM      4  N   LIG    1       27.971 -21.114   7.117  0.00  0.00    -0.299 NA
ATOM      5  C   LIG    1       27.004 -20.051   7.473  0.00  0.00    +0.100 C 
ATOM      6  C   LIG    1       26.114 -20.363   8.705  0.00  0.00    +0.100 C 
ENDROOT
BRANCH   1   7
ATOM      7  C   LIG    1       24.149 -21.714   8.026  0.00  0.00    +0.120 C 
BRANCH   7   8
ATOM      8  C   LIG    1       24.181 -22.268   6.551  0.00  0.00    +0.162 C 
BRANCH   8   9
ATOM      9  C   LIG    1       23.890 -21.134   5.575  0.00  0.00    -0.018 A 
ATOM     10  C   LIG    1       24.791 -20.839   4.537  0.00  0.00    +0.006 A 
ATOM     11  C   LIG    1       24.578 -19.755   3.691  0.00  0.00    +0.000 A 
ATOM     12  C   LIG    1       23.438 -18.973   3.845  0.00  0.00    +0.000 A 
ATOM     13  C   LIG    1       22.516 -19.273   4.849  0.00  0.00    +0.000 A 
ATOM     14  C   LIG    1       22.740 -20.345   5.715  0.00  0.00    +0.006 A 
ENDBRANCH   8   9
BRANCH   8  15
ATOM     15  O   LIG    1       23.207 -23.312   6.357  0.00  0.00    -0.371 OA
BRANCH  15  17
ATOM     16  C   LIG    1       24.856 -24.815   5.491  0.00  0.00    +0.034 C 
ATOM     17  C   LIG    1       23.727 -24.634   6.491  0.00  0.00    +0.157 C 
ENDBRANCH  15  17
ENDBRANCH   8  15
ENDBRANCH   7   8
ENDBRANCH   1   7
BRANCH   4  18
ATOM     18  C   LIG    1       29.086 -21.180   8.100  0.00  0.00    +0.095 C 
BRANCH  18  19
ATOM     19  C   LIG    1       30.418 -20.561   7.603  0.00  0.00    +0.071 C 
ATOM     20  C   LIG    1       30.167 -19.339   6.720  0.00  0.00    +0.017 C 
BRANCH  19  21
ATOM     21  C   LIG    1       31.330 -20.196   8.775  0.00  0.00    +0.167 C 
ATOM     22  O   LIG    1       32.080 -21.034   9.297  0.00  0.00    -0.292 OA
BRANCH  21  23
ATOM     23  C   LIG    1       31.361 -18.787   9.292  0.00  0.00    +0.018 A 
ATOM     24  C   LIG    1       32.227 -17.799   8.800  0.00  0.00    +0.011 A 
ATOM     25  C   LIG    1       32.188 -16.498   9.326  0.00  0.00    +0.001 A 
ATOM     26  C   LIG    1       31.279 -16.168  10.332  0.00  0.00    +0.000 A 
ATOM     27  C   LIG    1       30.397 -17.136  10.808  0.00  0.00    +0.001 A 
ATOM     28  C   LIG    1       30.430 -18.430  10.283  0.00  0.00    +0.011 A 
ENDBRANCH  21  23
ENDBRANCH  19  21
ENDBRANCH  18  19
ENDBRANCH   4  18
TORSDOF 9
ENDMDL
MODEL 2
REMARK VINA RESULT:      -8.9      4.287      8.637
REMARK  Name = *****
REMARK                            x       y       z     vdW  Elec       q    Type
REMARK                         _______ _______ _______ _____ _____    ______ ____
ROOT
ATOM      1  N   LIG    1       24.879 -24.134   6.734  0.00  0.00    -0.297 NA
ATOM      2  C   LIG    1       23.738 -25.017   6.400  0.00  0.00    +0.100 C 
ATOM      3  C   LIG    1       24.034 -26.133   5.370  0.00  0.00    +0.100 C 
ATOM      4  N   LIG    1       25.159 -27.012   5.745  0.00  0.00    -0.299 NA
ATOM      5  C   LIG    1       26.331 -26.132   5.954  0.00  0.00    +0.100 C 
ATOM      6  C   LIG    1       26.096 -24.953   6.935  0.00  0.00    +0.100 C 
ENDROOT
BRANCH   1   7
ATOM      7  C   LIG    1       25.061 -23.039   5.749  0.00  0.00    +0.120 C 
BRANCH   7   8
ATOM      8  C   LIG    1       25.201 -21.586   6.342  0.00  0.00    +0.162 C 
BRANCH   8   9
ATOM      9  C   LIG    1       24.401 -20.608   5.488  0.00  0.00    -0.018 A 
ATOM     10  C   LIG    1       24.974 -20.036   4.338  0.00  0.00    +0.006 A 
ATOM     11  C   LIG    1       24.285 -19.080   3.598  0.00  0.00    +0.000 A 
ATOM     12  C   LIG    1       22.997 -18.712   3.973  0.00  0.00    +0.000 A 
ATOM     13  C   LIG    1       22.402 -19.296   5.091  0.00  0.00    +0.000 A 
ATOM     14  C   LIG    1       23.100 -20.237   5.851  0.00  0.00    +0.006 A 
ENDBRANCH   8   9
BRANCH   8  15
ATOM     15  O   LIG    1       26.577 -21.158   6.375  0.00  0.00    -0.371 OA
BRANCH  15  17
ATOM     16  C   LIG    1       25.972 -20.702   8.645  0.00  0.00    +0.034 C 
ATOM     17  C   LIG    1       26.917 -20.359   7.507  0.00  0.00    +0.157 C 
ENDBRANCH  15  17
ENDBRANCH   8  15
ENDBRANCH   7   8
ENDBRANCH   1   7
BRANCH   4  18
ATOM     18  C   LIG    1       24.898 -27.857   6.941  0.00  0.00    +0.095 C 
BRANCH  18  19
ATOM     19  C   LIG    1       24.613 -29.348   6.624  0.00  0.00    +0.071 C 
ATOM     20  C   LIG    1       25.251 -29.766   5.300  0.00  0.00    +0.017 C 
BRANCH  19  21
ATOM     21  C   LIG    1       25.090 -30.256   7.758  0.00  0.00    +0.167 C 
ATOM     22  O   LIG    1       25.912 -31.162   7.560  0.00  0.00    -0.292 OA
BRANCH  21  23
ATOM     23  C   LIG    1       24.594 -30.033   9.157  0.00  0.00    +0.018 A 
ATOM     24  C   LIG    1       23.290 -30.338   9.576  0.00  0.00    +0.011 A 
ATOM     25  C   LIG    1       22.903 -30.114  10.907  0.00  0.00    +0.001 A 
ATOM     26  C   LIG    1       23.813 -29.600  11.832  0.00  0.00    +0.000 A 
ATOM     27  C   LIG    1       25.117 -29.319  11.432  0.00  0.00    +0.001 A 
ATOM     28  C   LIG    1       25.507 -29.546  10.109  0.00  0.00    +0.011 A 
ENDBRANCH  21  23
ENDBRANCH  19  21
ENDBRANCH  18  19
ENDBRANCH   4  18
TORSDOF 9
ENDMDL
MODEL 3
REMARK VINA RESULT:      -8.8      1.660      8.406
REMARK  Name = *****
REMARK                            x       y       z     vdW  Elec       q    Type
REMARK                         _______ _______ _______ _____ _____    ______ ____
ROOT
ATOM      1  N   LIG    1       28.900 -20.827   7.020  0.00  0.00    -0.297 NA
ATOM      2  C   LIG    1       27.921 -21.272   8.038  0.00  0.00    +0.100 C 
ATOM      3  C   LIG    1       26.576 -20.509   8.052  0.00  0.00    +0.100 C 
ATOM      4  N   LIG    1       25.872 -20.510   6.755  0.00  0.00    -0.299 NA
ATOM      5  C   LIG    1       26.814 -19.944   5.763  0.00  0.00    +0.100 C 
ATOM      6  C   LIG    1       28.209 -20.624   5.726  0.00  0.00    +0.100 C 
ENDROOT
BRANCH   1   7
ATOM      7  C   LIG    1       29.687 -19.649   7.461  0.00  0.00    +0.120 C 
BRANCH   7   8
ATOM      8  C   LIG    1       30.582 -19.850   8.742  0.00  0.00    +0.162 C 
BRANCH   8   9
ATOM      9  C   LIG    1       30.979 -18.490   9.304  0.00  0.00    -0.018 A 
ATOM     10  C   LIG    1       32.037 -17.764   8.728  0.00  0.00    +0.006 A 
ATOM     11  C   LIG    1       32.463 -16.561   9.282  0.00  0.00    +0.000 A 
ATOM     12  C   LIG    1       31.810 -16.045  10.398  0.00  0.00    +0.000 A 
ATOM     13  C   LIG    1       30.737 -16.737  10.961  0.00  0.00    +0.000 A 
ATOM     14  C   LIG    1       30.324 -17.957  10.421  0.00  0.00    +0.006 A 
ENDBRANCH   8   9
BRANCH   8  15
ATOM     15  O   LIG    1       31.778 -20.596   8.440  0.00  0.00    -0.371 OA
BRANCH  15  17
ATOM     16  C   LIG    1       30.779 -22.174   9.938  0.00  0.00    +0.034 C 
ATOM     17  C   LIG    1       31.692 -21.990   8.738  0.00  0.00    +0.157 C 
ENDBRANCH  15  17
ENDBRANCH   8  15
ENDBRANCH   7   8
ENDBRANCH   1   7
BRANCH   4  18
ATOM     18  C   LIG    1       25.380 -21.848   6.330  0.00  0.00    +0.095 C 
BRANCH  18  19
ATOM     19  C   LIG    1       24.342 -22.486   7.291  0.00  0.00    +0.071 C 
ATOM     20  C   LIG    1       23.202 -21.515   7.598  0.00  0.00    +0.017 C 
BRANCH  19  21
ATOM     21  C   LIG    1       23.794 -23.794   6.723  0.00  0.00    +0.167 C 
ATOM     22  O   LIG    1       22.575 -23.993   6.616  0.00  0.00    -0.292 OA
BRANCH  21  23
ATOM     23  C   LIG    1       24.737 -24.857   6.240  0.00  0.00    +0.018 A 
ATOM     24  C   LIG    1       25.671 -25.500   7.066  0.00  0.00    +0.011 A 
ATOM     25  C   LIG    1       26.512 -26.496   6.545  0.00  0.00    +0.001 A 
ATOM     26  C   LIG    1       26.419 -26.869   5.203  0.00  0.00    +0.000 A 
ATOM     27  C   LIG    1       25.477 -26.255   4.381  0.00  0.00    +0.001 A 
ATOM     28  C   LIG    1       24.636 -25.268   4.899  0.00  0.00    +0.011 A 
ENDBRANCH  21  23
ENDBRANCH  19  21
ENDBRANCH  18  19
ENDBRANCH   4  18
TORSDOF 9
ENDMDL
MODEL 4
REMARK VINA RESULT:      -8.7      4.728      9.472
REMARK  Name = *****
REMARK                            x       y       z     vdW  Elec       q    Type
REMARK                         _______ _______ _______ _____ _____    ______ ____
ROOT
ATOM      1  N   LIG    1       24.779 -24.257   6.693  0.00  0.00    -0.297 NA
ATOM      2  C   LIG    1       23.676 -25.090   6.160  0.00  0.00    +0.100 C 
ATOM      3  C   LIG    1       24.096 -26.204   5.172  0.00  0.00    +0.100 C 
ATOM      4  N   LIG    1       25.109 -27.132   5.710  0.00  0.00    -0.299 NA
ATOM      5  C   LIG    1       26.263 -26.303   6.125  0.00  0.00    +0.100 C 
ATOM      6  C   LIG    1       25.915 -25.128   7.076  0.00  0.00    +0.100 C 
ENDROOT
BRANCH   1   7
ATOM      7  C   LIG    1       25.162 -23.159   5.772  0.00  0.00    +0.120 C 
BRANCH   7   8
ATOM      8  C   LIG    1       25.244 -21.718   6.404  0.00  0.00    +0.162 C 
BRANCH   8   9
ATOM      9  C   LIG    1       24.454 -20.739   5.542  0.00  0.00    -0.018 A 
ATOM     10  C   LIG    1       25.036 -20.170   4.396  0.00  0.00    +0.006 A 
ATOM     11  C   LIG    1       24.357 -19.213   3.648  0.00  0.00    +0.000 A 
ATOM     12  C   LIG    1       23.067 -18.840   4.014  0.00  0.00    +0.000 A 
ATOM     13  C   LIG    1       22.462 -19.420   5.130  0.00  0.00    +0.000 A 
ATOM     14  C   LIG    1       23.152 -20.362   5.896  0.00  0.00    +0.006 A 
ENDBRANCH   8   9
BRANCH   8  15
ATOM     15  O   LIG    1       26.607 -21.259   6.500  0.00  0.00    -0.371 OA
BRANCH  15  17
ATOM     16  C   LIG    1       26.108 -20.627   8.754  0.00  0.00    +0.034 C 
ATOM     17  C   LIG    1       27.134 -21.255   7.827  0.00  0.00    +0.157 C 
ENDBRANCH  15  17
ENDBRANCH   8  15
ENDBRANCH   7   8
ENDBRANCH   1   7
BRANCH   4  18
ATOM     18  C   LIG    1       24.624 -27.981   6.831  0.00  0.00    +0.095 C 
BRANCH  18  19
ATOM     19  C   LIG    1       25.517 -29.211   7.139  0.00  0.00    +0.071 C 
ATOM     20  C   LIG    1       25.731 -29.379   8.644  0.00  0.00    +0.017 C 
BRANCH  19  21
ATOM     21  C   LIG    1       24.928 -30.487   6.536  0.00  0.00    +0.167 C 
ATOM     22  O   LIG    1       23.704 -30.669   6.478  0.00  0.00    -0.292 OA
BRANCH  21  23
ATOM     23  C   LIG    1       25.836 -31.534   5.960  0.00  0.00    +0.018 A 
ATOM     24  C   LIG    1       26.776 -32.248   6.718  0.00  0.00    +0.011 A 
ATOM     25  C   LIG    1       27.582 -33.224   6.110  0.00  0.00    +0.001 A 
ATOM     26  C   LIG    1       27.448 -33.505   4.750  0.00  0.00    +0.000 A 
ATOM     27  C   LIG    1       26.500 -32.819   3.995  0.00  0.00    +0.001 A 
ATOM     28  C   LIG    1       25.693 -31.852   4.598  0.00  0.00    +0.011 A 
ENDBRANCH  21  23
ENDBRANCH  19  21
ENDBRANCH  18  19
ENDBRANCH   4  18
TORSDOF 9
ENDMDL
MODEL 5
REMARK VINA RESULT:      -8.7      5.277      9.246
REMARK  Name = *****
REMARK                            x       y       z     vdW  Elec       q    Type
REMARK                         _______ _______ _______ _____ _____    ______ ____
ROOT
ATOM      1  N   LIG    1       24.806 -28.111   6.436  0.00  0.00    -0.297 NA
ATOM      2  C   LIG    1       25.975 -27.526   7.131  0.00  0.00    +0.100 C 
ATOM      3  C   LIG    1       26.854 -26.579   6.281  0.00  0.00    +0.100 C 
ATOM      4  N   LIG    1       26.113 -25.456   5.674  0.00  0.00    -0.299 NA
ATOM      5  C   LIG    1       25.020 -26.055   4.875  0.00  0.00    +0.100 C 
ATOM      6  C   LIG    1       24.124 -27.061   5.645  0.00  0.00    +0.100 C 
ENDROOT
BRANCH   1   7
ATOM      7  C   LIG    1       25.158 -29.313   5.641  0.00  0.00    +0.120 C 
BRANCH   7   8
ATOM      8  C   LIG    1       25.068 -30.695   6.392  0.00  0.00    +0.162 C 
BRANCH   8   9
ATOM      9  C   LIG    1       25.985 -31.706   5.712  0.00  0.00    -0.018 A 
ATOM     10  C   LIG    1       25.823 -32.007   4.348  0.00  0.00    +0.006 A 
ATOM     11  C   LIG    1       26.598 -32.987   3.735  0.00  0.00    +0.000 A 
ATOM     12  C   LIG    1       27.576 -33.652   4.469  0.00  0.00    +0.000 A 
ATOM     13  C   LIG    1       27.772 -33.340   5.815  0.00  0.00    +0.000 A 
ATOM     14  C   LIG    1       26.978 -32.375   6.438  0.00  0.00    +0.006 A 
ENDBRANCH   8   9
BRANCH   8  15
ATOM     15  O   LIG    1       23.723 -31.212   6.390  0.00  0.00    -0.371 OA
BRANCH  15  17
ATOM     16  C   LIG    1       22.951 -33.478   6.440  0.00  0.00    +0.034 C 
ATOM     17  C   LIG    1       23.521 -32.330   7.255  0.00  0.00    +0.157 C 
ENDBRANCH  15  17
ENDBRANCH   8  15
ENDBRANCH   7   8
ENDBRANCH   1   7
BRANCH   4  18
ATOM     18  C   LIG    1       25.586 -24.472   6.656  0.00  0.00    +0.095 C 
BRANCH  18  19
ATOM     19  C   LIG    1       24.556 -23.469   6.073  0.00  0.00    +0.071 C 
ATOM     20  C   LIG    1       23.213 -23.571   6.795  0.00  0.00    +0.017 C 
BRANCH  19  21
ATOM     21  C   LIG    1       25.087 -22.037   6.126  0.00  0.00    +0.167 C 
ATOM     22  O   LIG    1       26.146 -21.760   6.707  0.00  0.00    -0.292 OA
BRANCH  21  23
ATOM     23  C   LIG    1       24.343 -20.934   5.430  0.00  0.00    +0.018 A 
ATOM     24  C   LIG    1       23.097 -20.450   5.855  0.00  0.00    +0.011 A 
ATOM     25  C   LIG    1       22.468 -19.405   5.160  0.00  0.00    +0.001 A 
ATOM     26  C   LIG    1       23.081 -18.826   4.048  0.00  0.00    +0.000 A 
ATOM     27  C   LIG    1       24.330 -19.282   3.634  0.00  0.00    +0.001 A 
ATOM     28  C   LIG    1       24.960 -20.318   4.327  0.00  0.00    +0.011 A 
ENDBRANCH  21  23
ENDBRANCH  19  21
ENDBRANCH  18  19
ENDBRANCH   4  18
TORSDOF 9
ENDMDL
MODEL 6
REMARK VINA RESULT:      -8.5      2.032      8.711
REMARK  Name = *****
REMARK                            x       y       z     vdW  Elec       q    Type
REMARK                         _______ _______ _______ _____ _____    ______ ____
ROOT
ATOM      1  N   LIG    1       28.500 -20.625   6.839  0.00  0.00    -0.297 NA
ATOM      2  C   LIG    1       27.995 -21.789   7.602  0.00  0.00    +0.100 C 
ATOM      3  C   LIG    1       26.518 -21.703   8.055  0.00  0.00    +0.100 C 
ATOM      4  N   LIG    1       25.565 -21.469   6.952  0.00  0.00    -0.299 NA
ATOM      5  C   LIG    1       26.004 -20.230   6.271  0.00  0.00    +0.100 C 
ATOM      6  C   LIG    1       27.492 -20.218   5.833  0.00  0.00    +0.100 C 
ENDROOT
BRANCH   1   7
ATOM      7  C   LIG    1       28.939 -19.513   7.718  0.00  0.00    +0.120 C 
BRANCH   7   8
ATOM      8  C   LIG    1       30.159 -19.817   8.667  0.00  0.00    +0.162 C 
BRANCH   8   9
ATOM      9  C   LIG    1       30.703 -18.509   9.231  0.00  0.00    -0.018 A 
ATOM     10  C   LIG    1       31.828 -17.897   8.650  0.00  0.00    +0.006 A 
ATOM     11  C   LIG    1       32.383 -16.749   9.206  0.00  0.00    +0.000 A 
ATOM     12  C   LIG    1       31.798 -16.172  10.329  0.00  0.00    +0.000 A 
ATOM     13  C   LIG    1       30.661 -16.749  10.897  0.00  0.00    +0.000 A 
ATOM     14  C   LIG    1       30.116 -17.915  10.356  0.00  0.00    +0.006 A 
ENDBRANCH   8   9
BRANCH   8  15
ATOM     15  O   LIG    1       31.219 -20.497   7.965  0.00  0.00    -0.371 OA
BRANCH  15  17
ATOM     16  C   LIG    1       30.816 -22.137   9.662  0.00  0.00    +0.034 C 
ATOM     17  C   LIG    1       31.841 -21.543   8.710  0.00  0.00    +0.157 C 
ENDBRANCH  15  17
ENDBRANCH   8  15
ENDBRANCH   7   8
ENDBRANCH   1   7
BRANCH   4  18
ATOM     18  C   LIG    1       25.453 -22.601   5.994  0.00  0.00    +0.095 C 
BRANCH  18  19
ATOM     19  C   LIG    1       24.745 -23.858   6.564  0.00  0.00    +0.071 C 
ATOM     20  C   LIG    1       23.261 -23.593   6.816  0.00  0.00    +0.017 C 
BRANCH  19  21
ATOM     21  C   LIG    1       24.926 -25.062   5.640  0.00  0.00    +0.167 C 
ATOM     22  O   LIG    1       25.056 -24.924   4.415  0.00  0.00    -0.292 OA
BRANCH  21  23
ATOM     23  C   LIG    1       24.990 -26.447   6.215  0.00  0.00    +0.018 A 
ATOM     24  C   LIG    1       24.223 -27.521   5.739  0.00  0.00    +0.011 A 
ATOM     25  C   LIG    1       24.348 -28.793   6.320  0.00  0.00    +0.001 A 
ATOM     26  C   LIG    1       25.246 -29.008   7.366  0.00  0.00    +0.000 A 
ATOM     27  C   LIG    1       26.032 -27.954   7.827  0.00  0.00    +0.001 A 
ATOM     28  C   LIG    1       25.913 -26.689   7.248  0.00  0.00    +0.011 A 
ENDBRANCH  21  23
ENDBRANCH  19  21
ENDBRANCH  18  19
ENDBRANCH   4  18
TORSDOF 9
ENDMDL
MODEL 7
REMARK VINA RESULT:      -8.4      1.878      8.602
REMARK  Name = *****
REMARK                            x       y       z     vdW  Elec       q    Type
REMARK                         _______ _______ _______ _____ _____    ______ ____
ROOT
ATOM      1  N   LIG    1       29.343 -18.607   7.358  0.00  0.00    -0.297 NA
ATOM      2  C   LIG    1       29.020 -18.995   5.966  0.00  0.00    +0.100 C 
ATOM      3  C   LIG    1       28.761 -20.503   5.735  0.00  0.00    +0.100 C 
ATOM      4  N   LIG    1       27.701 -21.068   6.593  0.00  0.00    -0.299 NA
ATOM      5  C   LIG    1       28.096 -20.787   7.991  0.00  0.00    +0.100 C 
ATOM      6  C   LIG    1       28.425 -19.300   8.291  0.00  0.00    +0.100 C 
ENDROOT
BRANCH   1   7
ATOM      7  C   LIG    1       30.777 -18.801   7.687  0.00  0.00    +0.120 C 
BRANCH   7   8
ATOM      8  C   LIG    1       31.103 -19.165   9.185  0.00  0.00    +0.162 C 
BRANCH   8   9
ATOM      9  C   LIG    1       31.664 -17.939   9.896  0.00  0.00    -0.018 A 
ATOM     10  C   LIG    1       31.286 -17.649  11.219  0.00  0.00    +0.006 A 
ATOM     11  C   LIG    1       31.725 -16.490  11.850  0.00  0.00    +0.000 A 
ATOM     12  C   LIG    1       32.583 -15.622  11.181  0.00  0.00    +0.000 A 
ATOM     13  C   LIG    1       32.994 -15.912   9.880  0.00  0.00    +0.000 A 
ATOM     14  C   LIG    1       32.535 -17.063   9.235  0.00  0.00    +0.006 A 
ENDBRANCH   8   9
BRANCH   8  15
ATOM     15  O   LIG    1       32.066 -20.235   9.271  0.00  0.00    -0.371 OA
BRANCH  15  17
ATOM     16  C   LIG    1       30.896 -22.268   9.743  0.00  0.00    +0.034 C 
ATOM     17  C   LIG    1       31.634 -21.464   8.688  0.00  0.00    +0.157 C 
ENDBRANCH  15  17
ENDBRANCH   8  15
ENDBRANCH   7   8
ENDBRANCH   1   7
BRANCH   4  18
ATOM     18  C   LIG    1       26.339 -20.547   6.301  0.00  0.00    +0.095 C 
BRANCH  18  19
ATOM     19  C   LIG    1       25.187 -21.522   6.659  0.00  0.00    +0.071 C 
ATOM     20  C   LIG    1       23.922 -20.763   7.060  0.00  0.00    +0.017 C 
BRANCH  19  21
ATOM     21  C   LIG    1       24.894 -22.480   5.504  0.00  0.00    +0.167 C 
ATOM     22  O   LIG    1       24.487 -22.067   4.408  0.00  0.00    -0.292 OA
BRANCH  21  23
ATOM     23  C   LIG    1       25.137 -23.952   5.669  0.00  0.00    +0.018 A 
ATOM     24  C   LIG    1       24.958 -24.888   4.640  0.00  0.00    +0.011 A 
ATOM     25  C   LIG    1       25.219 -26.248   4.866  0.00  0.00    +0.001 A 
ATOM     26  C   LIG    1       25.673 -26.684   6.112  0.00  0.00    +0.000 A 
ATOM     27  C   LIG    1       25.878 -25.758   7.132  0.00  0.00    +0.001 A 
ATOM     28  C   LIG    1       25.624 -24.403   6.908  0.00  0.00    +0.011 A 
ENDBRANCH  21  23
ENDBRANCH  19  21
ENDBRANCH  18  19
ENDBRANCH   4  18
TORSDOF 9
ENDMDL
MODEL 8
REMARK VINA RESULT:      -8.4      1.333      8.271
REMARK  Name = *****
REMARK                            x       y       z     vdW  Elec       q    Type
REMARK                         _______ _______ _______ _____ _____    ______ ____
ROOT
ATOM      1  N   LIG    1       29.175 -18.905   7.409  0.00  0.00    -0.297 NA
ATOM      2  C   LIG    1       28.860 -19.535   6.106  0.00  0.00    +0.100 C 
ATOM      3  C   LIG    1       28.780 -21.080   6.111  0.00  0.00    +0.100 C 
ATOM      4  N   LIG    1       27.823 -21.628   7.092  0.00  0.00    -0.299 NA
ATOM      5  C   LIG    1       28.222 -21.095   8.414  0.00  0.00    +0.100 C 
ATOM      6  C   LIG    1       28.377 -19.552   8.476  0.00  0.00    +0.100 C 
ENDROOT
BRANCH   1   7
ATOM      7  C   LIG    1       30.631 -18.880   7.694  0.00  0.00    +0.120 C 
BRANCH   7   8
ATOM      8  C   LIG    1       31.058 -19.245   9.166  0.00  0.00    +0.162 C 
BRANCH   8   9
ATOM      9  C   LIG    1       31.512 -17.984   9.892  0.00  0.00    -0.018 A 
ATOM     10  C   LIG    1       32.415 -17.097   9.280  0.00  0.00    +0.006 A 
ATOM     11  C   LIG    1       32.901 -15.987   9.964  0.00  0.00    +0.000 A 
ATOM     12  C   LIG    1       32.459 -15.724  11.257  0.00  0.00    +0.000 A 
ATOM     13  C   LIG    1       31.536 -16.576  11.865  0.00  0.00    +0.000 A 
ATOM     14  C   LIG    1       31.066 -17.705  11.190  0.00  0.00    +0.006 A 
ENDBRANCH   8   9
BRANCH   8  15
ATOM     15  O   LIG    1       32.134 -20.204   9.182  0.00  0.00    -0.371 OA
BRANCH  15  17
ATOM     16  C   LIG    1       30.933 -22.198   9.742  0.00  0.00    +0.034 C 
ATOM     17  C   LIG    1       31.777 -21.497   8.692  0.00  0.00    +0.157 C 
ENDBRANCH  15  17
ENDBRANCH   8  15
ENDBRANCH   7   8
ENDBRANCH   1   7
BRANCH   4  18
ATOM     18  C   LIG    1       26.399 -21.318   6.793  0.00  0.00    +0.095 C 
BRANCH  18  19
ATOM     19  C   LIG    1       25.575 -22.525   6.274  0.00  0.00    +0.071 C 
ATOM     20  C   LIG    1       25.660 -23.710   7.236  0.00  0.00    +0.017 C 
BRANCH  19  21
ATOM     21  C   LIG    1       24.117 -22.136   6.031  0.00  0.00    +0.167 C 
ATOM     22  O   LIG    1       23.182 -22.803   6.498  0.00  0.00    -0.292 OA
BRANCH  21  23
ATOM     23  C   LIG    1       23.791 -20.899   5.246  0.00  0.00    +0.018 A 
ATOM     24  C   LIG    1       24.479 -20.511   4.087  0.00  0.00    +0.011 A 
ATOM     25  C   LIG    1       24.107 -19.345   3.398  0.00  0.00    +0.001 A 
ATOM     26  C   LIG    1       23.039 -18.568   3.849  0.00  0.00    +0.000 A 
ATOM     27  C   LIG    1       22.333 -18.959   4.984  0.00  0.00    +0.001 A 
ATOM     28  C   LIG    1       22.698 -20.121   5.668  0.00  0.00    +0.011 A 
ENDBRANCH  21  23
ENDBRANCH  19  21
ENDBRANCH  18  19
ENDBRANCH   4  18
TORSDOF 9
ENDMDL
MODEL 9
REMARK VINA RESULT:      -8.3      5.082      8.812
REMARK  Name = *****
REMARK                            x       y       z     vdW  Elec       q    Type
REMARK                         _______ _______ _______ _____ _____    ______ ____
ROOT
ATOM      1  N   LIG    1       24.860 -27.918   6.748  0.00  0.00    -0.297 NA
ATOM      2  C   LIG    1       26.128 -27.292   7.191  0.00  0.00    +0.100 C 
ATOM      3  C   LIG    1       26.853 -26.428   6.132  0.00  0.00    +0.100 C 
ATOM      4  N   LIG    1       26.020 -25.350   5.565  0.00  0.00    -0.299 NA
ATOM      5  C   LIG    1       24.810 -25.999   5.009  0.00  0.00    +0.100 C 
ATOM      6  C   LIG    1       24.055 -26.927   5.998  0.00  0.00    +0.100 C 
ENDROOT
BRANCH   1   7
ATOM      7  C   LIG    1       25.077 -29.185   6.008  0.00  0.00    +0.120 C 
BRANCH   7   8
ATOM      8  C   LIG    1       24.398 -30.471   6.615  0.00  0.00    +0.162 C 
BRANCH   8   9
ATOM      9  C   LIG    1       24.706 -30.555   8.106  0.00  0.00    -0.018 A 
ATOM     10  C   LIG    1       23.715 -30.249   9.055  0.00  0.00    +0.006 A 
ATOM     11  C   LIG    1       24.007 -30.241  10.416  0.00  0.00    +0.000 A 
ATOM     12  C   LIG    1       25.286 -30.578  10.849  0.00  0.00    +0.000 A 
ATOM     13  C   LIG    1       26.271 -30.917   9.921  0.00  0.00    +0.000 A 
ATOM     14  C   LIG    1       25.987 -30.901   8.554  0.00  0.00    +0.006 A 
ENDBRANCH   8   9
BRANCH   8  15
ATOM     15  O   LIG    1       24.870 -31.672   5.973  0.00  0.00    -0.371 OA
BRANCH  15  17
ATOM     16  C   LIG    1       25.843 -32.698   4.042  0.00  0.00    +0.034 C 
ATOM     17  C   LIG    1       25.780 -31.445   4.897  0.00  0.00    +0.157 C 
ENDBRANCH  15  17
ENDBRANCH   8  15
ENDBRANCH   7   8
ENDBRANCH   1   7
BRANCH   4  18
ATOM     18  C   LIG    1       25.662 -24.282   6.537  0.00  0.00    +0.095 C 
BRANCH  18  19
ATOM     19  C   LIG    1       24.567 -23.302   6.040  0.00  0.00    +0.071 C 
ATOM     20  C   LIG    1       23.261 -23.492   6.811  0.00  0.00    +0.017 C 
BRANCH  19  21
ATOM     21  C   LIG    1       25.039 -21.852   6.134  0.00  0.00    +0.167 C 
ATOM     22  O   LIG    1       26.055 -21.542   6.773  0.00  0.00    -0.292 OA
BRANCH  21  23
ATOM     23  C   LIG    1       24.292 -20.770   5.409  0.00  0.00    +0.018 A 
ATOM     24  C   LIG    1       23.045 -20.279   5.820  0.00  0.00    +0.011 A 
ATOM     25  C   LIG    1       22.413 -19.254   5.096  0.00  0.00    +0.001 A 
ATOM     26  C   LIG    1       23.024 -18.703   3.970  0.00  0.00    +0.000 A 
ATOM     27  C   LIG    1       24.275 -19.167   3.569  0.00  0.00    +0.001 A 
ATOM     28  C   LIG    1       24.908 -20.182   4.289  0.00  0.00    +0.011 A 
ENDBRANCH  21  23
ENDBRANCH  19  21
ENDBRANCH  18  19
ENDBRANCH   4  18
TORSDOF 9
ENDMDL
