MODEL 1
REMARK VINA RESULT:      -7.4      0.000      0.000
REMARK  Name = *****
REMARK                            x       y       z     vdW  Elec       q    Type
REMARK                         _______ _______ _______ _____ _____    ______ ____
ROOT
ATOM      1  N   LIG    1       29.540 -20.073   6.876  0.00  0.00    -0.313 N 
ATOM      2  H   LIG    1       30.057 -20.551   7.599  0.00  0.00    +0.146 HD
ATOM      3  H   LIG    1       29.993 -20.068   5.968  0.00  0.00    +0.146 HD
ATOM      4  C   LIG    1       28.193 -20.246   6.791  0.00  0.00    +0.303 C 
ATOM      5  N   LIG    1       27.589 -20.373   8.013  0.00  0.00    -0.240 N 
ATOM      6  H   LIG    1       28.159 -20.243   8.831  0.00  0.00    +0.159 HD
ATOM      7  C   LIG    1       26.253 -20.534   8.311  0.00  0.00    +0.225 C 
ATOM      8  O   LIG    1       25.939 -20.565   9.503  0.00  0.00    -0.275 OA
ATOM      9  O   LIG    1       27.645 -20.259   5.702  0.00  0.00    -0.253 OA
ENDROOT
BRANCH   7  10
ATOM     10  C   LIG    1       25.258 -20.655   7.164  0.00  0.00    +0.131 C 
BRANCH  10  11
ATOM     11  C   LIG    1       24.731 -22.060   6.973  0.00  0.00    -0.039 A 
ATOM     12  C   LIG    1       23.352 -22.305   6.962  0.00  0.00    +0.004 A 
ATOM     13  C   LIG    1       22.864 -23.596   6.758  0.00  0.00    +0.000 A 
ATOM     14  C   LIG    1       23.750 -24.654   6.562  0.00  0.00    +0.000 A 
ATOM     15  C   LIG    1       25.124 -24.420   6.567  0.00  0.00    +0.000 A 
ATOM     16  C   LIG    1       25.614 -23.129   6.766  0.00  0.00    +0.004 A 
ENDBRANCH  10  11
ENDBRANCH   7  10
TORSDOF 2
ENDMDL
MODEL 2
REMARK VINA RESULT:      -7.4      3.531      4.531
REMARK  Name = *****
REMARK                            x       y       z     vdW  Elec       q    Type
REMARK                         _______ _______ _______ _____ _____    ______ ____
ROOT
ATOM      1  N   LIG    1       26.185 -25.606   6.346  0.00  0.00    -0.313 N 
ATOM      2  H   LIG    1       25.757 -26.202   5.653  0.00  0.00    +0.146 HD
ATOM      3  H   LIG    1       27.199 -25.582   6.312  0.00  0.00    +0.146 HD
ATOM      4  C   LIG    1       25.638 -24.388   6.612  0.00  0.00    +0.303 C 
ATOM      5  N   LIG    1       24.271 -24.386   6.542  0.00  0.00    -0.240 N 
ATOM      6  H   LIG    1       23.810 -25.269   6.396  0.00  0.00    +0.159 HD
ATOM      7  C   LIG    1       23.389 -23.353   6.771  0.00  0.00    +0.225 C 
ATOM      8  O   LIG    1       22.186 -23.610   6.706  0.00  0.00    -0.275 OA
ATOM      9  O   LIG    1       26.355 -23.443   6.892  0.00  0.00    -0.253 OA
ENDROOT
BRANCH   7  10
ATOM     10  C   LIG    1       23.949 -21.974   7.096  0.00  0.00    +0.131 C 
BRANCH  10  11
ATOM     11  C   LIG    1       23.835 -20.995   5.948  0.00  0.00    -0.039 A 
ATOM     12  C   LIG    1       22.695 -20.193   5.810  0.00  0.00    +0.004 A 
ATOM     13  C   LIG    1       22.600 -19.270   4.768  0.00  0.00    +0.000 A 
ATOM     14  C   LIG    1       23.645 -19.140   3.855  0.00  0.00    +0.000 A 
ATOM     15  C   LIG    1       24.786 -19.930   3.986  0.00  0.00    +0.000 A 
ATOM     16  C   LIG    1       24.885 -20.850   5.030  0.00  0.00    +0.004 A 
ENDBRANCH  10  11
ENDBRANCH   7  10
TORSDOF 2
ENDMDL
MODEL 3
REMARK VINA RESULT:      -7.4      0.096      1.342
REMARK  Name = *****
REMARK                            x       y       z     vdW  Elec       q    Type
REMARK                         _______ _______ _______ _____ _____    ______ ____
ROOT
ATOM      1  N   LIG    1       29.599 -20.233   6.915  0.00  0.00    -0.313 N 
ATOM      2  H   LIG    1       30.078 -20.723   7.658  0.00  0.00    +0.146 HD
ATOM      3  H   LIG    1       30.077 -20.254   6.021  0.00  0.00    +0.146 HD
ATOM      4  C   LIG    1       28.249 -20.358   6.794  0.00  0.00    +0.303 C 
ATOM      5  N   LIG    1       27.607 -20.452   8.000  0.00  0.00    -0.240 N 
ATOM      6  H   LIG    1       28.159 -20.333   8.833  0.00  0.00    +0.159 HD
ATOM      7  C   LIG    1       26.259 -20.561   8.262  0.00  0.00    +0.225 C 
ATOM      8  O   LIG    1       25.910 -20.569   9.444  0.00  0.00    -0.275 OA
ATOM      9  O   LIG    1       27.732 -20.363   5.690  0.00  0.00    -0.253 OA
ENDROOT
BRANCH   7  10
ATOM     10  C   LIG    1       25.292 -20.658   7.088  0.00  0.00    +0.131 C 
BRANCH  10  11
ATOM     11  C   LIG    1       24.723 -22.045   6.893  0.00  0.00    -0.039 A 
ATOM     12  C   LIG    1       25.575 -23.147   6.739  0.00  0.00    +0.004 A 
ATOM     13  C   LIG    1       25.052 -24.431   6.587  0.00  0.00    +0.000 A 
ATOM     14  C   LIG    1       23.672 -24.627   6.590  0.00  0.00    +0.000 A 
ATOM     15  C   LIG    1       22.815 -23.538   6.747  0.00  0.00    +0.000 A 
ATOM     16  C   LIG    1       23.337 -22.254   6.904  0.00  0.00    +0.004 A 
ENDBRANCH  10  11
ENDBRANCH   7  10
TORSDOF 2
ENDMDL
MODEL 4
REMARK VINA RESULT:      -7.3      5.948      8.113
REMARK  Name = *****
REMARK                            x       y       z     vdW  Elec       q    Type
REMARK                         _______ _______ _______ _____ _____    ______ ____
ROOT
ATOM      1  N   LIG    1       31.915 -22.293   8.505  0.00  0.00    -0.313 N 
ATOM      2  H   LIG    1       32.709 -22.275   7.882  0.00  0.00    +0.146 HD
ATOM      3  H   LIG    1       32.036 -22.877   9.325  0.00  0.00    +0.146 HD
ATOM      4  C   LIG    1       31.252 -21.136   8.778  0.00  0.00    +0.303 C 
ATOM      5  N   LIG    1       31.189 -20.287   7.705  0.00  0.00    -0.240 N 
ATOM      6  H   LIG    1       31.543 -20.620   6.824  0.00  0.00    +0.159 HD
ATOM      7  C   LIG    1       30.582 -19.054   7.606  0.00  0.00    +0.225 C 
ATOM      8  O   LIG    1       30.606 -18.498   6.506  0.00  0.00    -0.275 OA
ATOM      9  O   LIG    1       30.776 -20.949   9.884  0.00  0.00    -0.253 OA
ENDROOT
BRANCH   7  10
ATOM     10  C   LIG    1       29.921 -18.463   8.845  0.00  0.00    +0.131 C 
BRANCH  10  11
ATOM     11  C   LIG    1       30.845 -17.580   9.654  0.00  0.00    -0.039 A 
ATOM     12  C   LIG    1       30.582 -17.329  11.007  0.00  0.00    +0.004 A 
ATOM     13  C   LIG    1       31.449 -16.538  11.762  0.00  0.00    +0.000 A 
ATOM     14  C   LIG    1       32.587 -15.991  11.172  0.00  0.00    +0.000 A 
ATOM     15  C   LIG    1       32.860 -16.239   9.827  0.00  0.00    +0.000 A 
ATOM     16  C   LIG    1       31.998 -17.034   9.072  0.00  0.00    +0.004 A 
ENDBRANCH  10  11
ENDBRANCH   7  10
TORSDOF 2
ENDMDL
MODEL 5
REMARK VINA RESULT:      -7.2      1.169      1.739
REMARK  Name = *****
REMARK                            x       y       z     vdW  Elec       q    Type
REMARK                         _______ _______ _______ _____ _____    ______ ____
ROOT
ATOM      1  N   LIG    1       29.984 -20.660   7.109  0.00  0.00    -0.313 N 
ATOM      2  H   LIG    1       30.334 -19.900   6.544  0.00  0.00    +0.146 HD
ATOM      3  H   LIG    1       30.530 -20.850   7.943  0.00  0.00    +0.146 HD
ATOM      4  C   LIG    1       28.644 -20.777   7.319  0.00  0.00    +0.303 C 
ATOM      5  N   LIG    1       27.896 -20.407   6.234  0.00  0.00    -0.240 N 
ATOM      6  H   LIG    1       28.385 -20.178   5.385  0.00  0.00    +0.159 HD
ATOM      7  C   LIG    1       26.527 -20.418   6.076  0.00  0.00    +0.225 C 
ATOM      8  O   LIG    1       26.081 -20.093   4.974  0.00  0.00    -0.275 OA
ATOM      9  O   LIG    1       28.226 -21.191   8.386  0.00  0.00    -0.253 OA
ENDROOT
BRANCH   7  10
ATOM     10  C   LIG    1       25.659 -20.833   7.257  0.00  0.00    +0.131 C 
BRANCH  10  11
ATOM     11  C   LIG    1       24.948 -22.151   7.044  0.00  0.00    -0.039 A 
ATOM     12  C   LIG    1       23.548 -22.203   7.008  0.00  0.00    +0.004 A 
ATOM     13  C   LIG    1       22.891 -23.414   6.783  0.00  0.00    +0.000 A 
ATOM     14  C   LIG    1       23.627 -24.582   6.592  0.00  0.00    +0.000 A 
ATOM     15  C   LIG    1       25.020 -24.539   6.622  0.00  0.00    +0.000 A 
ATOM     16  C   LIG    1       25.679 -23.329   6.841  0.00  0.00    +0.004 A 
ENDBRANCH  10  11
ENDBRANCH   7  10
TORSDOF 2
ENDMDL
MODEL 6
REMARK VINA RESULT:      -7.2      3.473      4.833
REMARK  Name = *****
REMARK                            x       y       z     vdW  Elec       q    Type
REMARK                         _______ _______ _______ _____ _____    ______ ____
ROOT
ATOM      1  N   LIG    1       24.057 -25.968   6.178  0.00  0.00    -0.313 N 
ATOM      2  H   LIG    1       24.781 -26.548   6.576  0.00  0.00    +0.146 HD
ATOM      3  H   LIG    1       23.146 -26.411   6.120  0.00  0.00    +0.146 HD
ATOM      4  C   LIG    1       23.982 -24.656   6.530  0.00  0.00    +0.303 C 
ATOM      5  N   LIG    1       25.209 -24.081   6.727  0.00  0.00    -0.240 N 
ATOM      6  H   LIG    1       26.023 -24.633   6.514  0.00  0.00    +0.159 HD
ATOM      7  C   LIG    1       25.518 -22.781   7.063  0.00  0.00    +0.225 C 
ATOM      8  O   LIG    1       26.711 -22.480   7.126  0.00  0.00    -0.275 OA
ATOM      9  O   LIG    1       22.897 -24.108   6.627  0.00  0.00    -0.253 OA
ENDROOT
BRANCH   7  10
ATOM     10  C   LIG    1       24.378 -21.805   7.326  0.00  0.00    +0.131 C 
BRANCH  10  11
ATOM     11  C   LIG    1       24.093 -20.888   6.158  0.00  0.00    -0.039 A 
ATOM     12  C   LIG    1       25.068 -20.665   5.176  0.00  0.00    +0.004 A 
ATOM     13  C   LIG    1       24.797 -19.842   4.082  0.00  0.00    +0.000 A 
ATOM     14  C   LIG    1       23.548 -19.235   3.959  0.00  0.00    +0.000 A 
ATOM     15  C   LIG    1       22.570 -19.454   4.928  0.00  0.00    +0.000 A 
ATOM     16  C   LIG    1       22.837 -20.281   6.019  0.00  0.00    +0.004 A 
ENDBRANCH  10  11
ENDBRANCH   7  10
TORSDOF 2
ENDMDL
MODEL 7
REMARK VINA RESULT:      -7.2      2.944      4.225
REMARK  Name = *****
REMARK                            x       y       z     vdW  Elec       q    Type
REMARK                         _______ _______ _______ _____ _____    ______ ____
ROOT
ATOM      1  N   LIG    1       31.674 -18.395   9.951  0.00  0.00    -0.313 N 
ATOM      2  H   LIG    1       31.447 -17.418  10.073  0.00  0.00    +0.146 HD
ATOM      3  H   LIG    1       31.871 -18.892  10.812  0.00  0.00    +0.146 HD
ATOM      4  C   LIG    1       30.961 -19.141   9.063  0.00  0.00    +0.303 C 
ATOM      5  N   LIG    1       30.588 -18.439   7.948  0.00  0.00    -0.240 N 
ATOM      6  H   LIG    1       30.938 -17.501   7.848  0.00  0.00    +0.159 HD
ATOM      7  C   LIG    1       29.889 -18.870   6.842  0.00  0.00    +0.225 C 
ATOM      8  O   LIG    1       29.724 -18.062   5.926  0.00  0.00    -0.275 OA
ATOM      9  O   LIG    1       30.729 -20.315   9.297  0.00  0.00    -0.253 OA
ENDROOT
BRANCH   7  10
ATOM     10  C   LIG    1       29.375 -20.304   6.816  0.00  0.00    +0.131 C 
BRANCH  10  11
ATOM     11  C   LIG    1       27.880 -20.409   7.020  0.00  0.00    -0.039 A 
ATOM     12  C   LIG    1       27.012 -20.413   5.920  0.00  0.00    +0.004 A 
ATOM     13  C   LIG    1       25.635 -20.538   6.105  0.00  0.00    +0.000 A 
ATOM     14  C   LIG    1       25.112 -20.661   7.392  0.00  0.00    +0.000 A 
ATOM     15  C   LIG    1       25.968 -20.662   8.492  0.00  0.00    +0.000 A 
ATOM     16  C   LIG    1       27.346 -20.543   8.309  0.00  0.00    +0.004 A 
ENDBRANCH  10  11
ENDBRANCH   7  10
TORSDOF 2
ENDMDL
MODEL 8
REMARK VINA RESULT:      -7.1      1.902      2.904
REMARK  Name = *****
REMARK                            x       y       z     vdW  Elec       q    Type
REMARK                         _______ _______ _______ _____ _____    ______ ____
ROOT
ATOM      1  N   LIG    1       29.742 -19.153   7.355  0.00  0.00    -0.313 N 
ATOM      2  H   LIG    1       30.123 -19.164   8.290  0.00  0.00    +0.146 HD
ATOM      3  H   LIG    1       30.438 -19.167   6.617  0.00  0.00    +0.146 HD
ATOM      4  C   LIG    1       28.655 -19.920   7.066  0.00  0.00    +0.303 C 
ATOM      5  N   LIG    1       27.766 -20.004   8.104  0.00  0.00    -0.240 N 
ATOM      6  H   LIG    1       27.945 -19.441   8.919  0.00  0.00    +0.159 HD
ATOM      7  C   LIG    1       26.557 -20.663   8.164  0.00  0.00    +0.225 C 
ATOM      8  O   LIG    1       25.897 -20.542   9.197  0.00  0.00    -0.275 OA
ATOM      9  O   LIG    1       28.544 -20.436   5.968  0.00  0.00    -0.253 OA
ENDROOT
BRANCH   7  10
ATOM     10  C   LIG    1       26.113 -21.483   6.960  0.00  0.00    +0.131 C 
BRANCH  10  11
ATOM     11  C   LIG    1       25.064 -20.792   6.117  0.00  0.00    -0.039 A 
ATOM     12  C   LIG    1       25.390 -20.292   4.849  0.00  0.00    +0.004 A 
ATOM     13  C   LIG    1       24.417 -19.679   4.058  0.00  0.00    +0.000 A 
ATOM     14  C   LIG    1       23.110 -19.561   4.528  0.00  0.00    +0.000 A 
ATOM     15  C   LIG    1       22.775 -20.058   5.786  0.00  0.00    +0.000 A 
ATOM     16  C   LIG    1       23.745 -20.676   6.576  0.00  0.00    +0.004 A 
ENDBRANCH  10  11
ENDBRANCH   7  10
TORSDOF 2
ENDMDL
MODEL 9
REMARK VINA RESULT:      -7.0      2.617      3.532
REMARK  Name = *****
REMARK                            x       y       z     vdW  Elec       q    Type
REMARK                         _______ _______ _______ _____ _____    ______ ____
ROOT
ATOM      1  N   LIG    1       28.934 -21.409   7.953  0.00  0.00    -0.313 N 
ATOM      2  H   LIG    1       29.489 -21.811   7.212  0.00  0.00    +0.146 HD
ATOM      3  H   LIG    1       29.360 -20.614   8.416  0.00  0.00    +0.146 HD
ATOM      4  C   LIG    1       27.592 -21.259   7.777  0.00  0.00    +0.303 C 
ATOM      5  N   LIG    1       27.029 -22.271   7.048  0.00  0.00    -0.240 N 
ATOM      6  H   LIG    1       27.616 -23.049   6.797  0.00  0.00    +0.159 HD
ATOM      7  C   LIG    1       25.710 -22.462   6.698  0.00  0.00    +0.225 C 
ATOM      8  O   LIG    1       25.430 -23.493   6.083  0.00  0.00    -0.275 OA
ATOM      9  O   LIG    1       27.015 -20.300   8.261  0.00  0.00    -0.253 OA
ENDROOT
BRANCH   7  10
ATOM     10  C   LIG    1       24.688 -21.403   7.095  0.00  0.00    +0.131 C 
BRANCH  10  11
ATOM     11  C   LIG    1       24.200 -20.575   5.927  0.00  0.00    -0.039 A 
ATOM     12  C   LIG    1       22.888 -20.082   5.907  0.00  0.00    +0.004 A 
ATOM     13  C   LIG    1       22.444 -19.294   4.844  0.00  0.00    +0.000 A 
ATOM     14  C   LIG    1       23.308 -18.990   3.793  0.00  0.00    +0.000 A 
ATOM     15  C   LIG    1       24.616 -19.472   3.806  0.00  0.00    +0.000 A 
ATOM     16  C   LIG    1       25.063 -20.256   4.870  0.00  0.00    +0.004 A 
ENDBRANCH  10  11
ENDBRANCH   7  10
TORSDOF 2
ENDMDL
