MODEL 1
REMARK VINA RESULT:      11.0      0.000      0.000
REMARK  Name = *****
REMARK                            x       y       z     vdW  Elec       q    Type
REMARK                         _______ _______ _______ _____ _____    ______ ____
ROOT
ATOM      1  C   LIG    1       24.894 -13.366   2.879  0.00  0.00    +0.252 C 
ATOM      2  O   LIG    1       25.994 -14.223   2.553  0.00  0.00    -0.334 OA
ATOM      3  C   LIG    1       26.732 -14.459   3.766  0.00  0.00    +0.164 C 
ATOM      4  C   LIG    1       25.860 -13.858   4.859  0.00  0.00    +0.161 C 
ATOM      5  C   LIG    1       24.974 -14.988   5.405  0.00  0.00    +0.039 C 
ATOM      6  C   LIG    1       25.389 -16.292   4.699  0.00  0.00    +0.004 C 
ATOM      7  C   LIG    1       24.470 -16.838   3.581  0.00  0.00    -0.000 C 
ATOM      8  C   LIG    1       24.964 -18.246   3.137  0.00  0.00    +0.035 C 
ATOM      9  C   LIG    1       26.515 -18.267   2.987  0.00  0.00    +0.120 C 
ATOM     10  C   LIG    1       27.141 -16.870   2.900  0.00  0.00    +0.042 C 
ATOM     11  C   LIG    1       24.386 -19.484   3.954  0.00  0.00    +0.013 C 
ATOM     12  C   LIG    1       22.884 -19.285   4.273  0.00  0.00    -0.056 C 
ATOM     13  C   LIG    1       22.223 -20.309   4.862  0.00  0.00    +0.051 C 
ATOM     14  C   LIG    1       22.878 -20.653   6.180  0.00  0.00    +0.179 C 
ATOM     15  C   LIG    1       24.327 -20.319   6.335  0.00  0.00    +0.047 C 
ATOM     16  O   LIG    1       22.262 -21.247   7.062  0.00  0.00    -0.288 OA
ATOM     17  C   LIG    1       22.518 -17.902   4.787  0.00  0.00    +0.032 C 
ATOM     18  C   LIG    1       24.602 -20.749   3.074  0.00  0.00    +0.020 C 
ATOM     19  C   LIG    1       25.030 -19.793   5.312  0.00  0.00    -0.012 C 
ATOM     20  C   LIG    1       22.960 -16.831   3.820  0.00  0.00    +0.008 C 
ATOM     21  C   LIG    1       26.815 -15.983   4.127  0.00  0.00    +0.012 C 
ATOM     22  C   LIG    1       27.850 -16.261   5.245  0.00  0.00    +0.015 C 
ATOM     23  O   LIG    1       25.063 -12.878   4.203  0.00  0.00    -0.345 OA
ENDROOT
BRANCH   9  24
ATOM     24  O   LIG    1       26.879 -18.993   1.813  0.00  0.00    -0.391 OA
ATOM     25  H   LIG    1       26.481 -18.553   1.042  0.00  0.00    +0.210 HD
ENDBRANCH   9  24
BRANCH   3  26
ATOM     26  C   LIG    1       28.102 -13.761   3.662  0.00  0.00    +0.193 C 
ATOM     27  O   LIG    1       28.759 -13.750   2.616  0.00  0.00    -0.292 OA
BRANCH  26  28
ATOM     28  C   LIG    1       28.573 -12.971   4.887  0.00  0.00    +0.233 C 
BRANCH  28  29
ATOM     29  O   LIG    1       29.232 -11.755   4.573  0.00  0.00    -0.387 OA
ATOM     30  H   LIG    1       29.383 -11.285   5.415  0.00  0.00    +0.210 HD
ENDBRANCH  28  29
ENDBRANCH  26  28
ENDBRANCH   3  26
BRANCH   1  31
ATOM     31  C   LIG    1       24.774 -12.216   1.884  0.00  0.00    +0.061 C 
BRANCH  31  33
ATOM     32  C   LIG    1       22.982 -11.447   3.503  0.00  0.00    +0.004 C 
ATOM     33  C   LIG    1       23.457 -11.453   2.058  0.00  0.00    +0.002 C 
ENDBRANCH  31  33
ENDBRANCH   1  31
TORSDOF 6
ENDMDL
MODEL 2
REMARK VINA RESULT:      14.0      0.814      1.210
REMARK  Name = *****
REMARK                            x       y       z     vdW  Elec       q    Type
REMARK                         _______ _______ _______ _____ _____    ______ ____
ROOT
ATOM      1  C   LIG    1       24.011 -13.058   3.559  0.00  0.00    +0.252 C 
ATOM      2  O   LIG    1       25.173 -13.748   3.087  0.00  0.00    -0.334 OA
ATOM      3  C   LIG    1       26.010 -14.016   4.227  0.00  0.00    +0.164 C 
ATOM      4  C   LIG    1       25.151 -13.626   5.423  0.00  0.00    +0.161 C 
ATOM      5  C   LIG    1       24.430 -14.896   5.895  0.00  0.00    +0.039 C 
ATOM      6  C   LIG    1       24.936 -16.071   5.038  0.00  0.00    +0.004 C 
ATOM      7  C   LIG    1       24.009 -16.607   3.921  0.00  0.00    -0.000 C 
ATOM      8  C   LIG    1       24.623 -17.900   3.307  0.00  0.00    +0.035 C 
ATOM      9  C   LIG    1       26.153 -17.730   3.073  0.00  0.00    +0.120 C 
ATOM     10  C   LIG    1       26.619 -16.270   3.096  0.00  0.00    +0.042 C 
ATOM     11  C   LIG    1       24.235 -19.269   4.022  0.00  0.00    +0.013 C 
ATOM     12  C   LIG    1       22.744 -19.273   4.441  0.00  0.00    -0.056 C 
ATOM     13  C   LIG    1       22.237 -20.418   4.956  0.00  0.00    +0.051 C 
ATOM     14  C   LIG    1       23.010 -20.811   6.194  0.00  0.00    +0.179 C 
ATOM     15  C   LIG    1       24.421 -20.332   6.304  0.00  0.00    +0.047 C 
ATOM     16  O   LIG    1       22.520 -21.554   7.041  0.00  0.00    -0.288 OA
ATOM     17  C   LIG    1       22.266 -17.998   5.113  0.00  0.00    +0.032 C 
ATOM     18  C   LIG    1       24.528 -20.410   3.006  0.00  0.00    +0.020 C 
ATOM     19  C   LIG    1       24.996 -19.632   5.305  0.00  0.00    -0.012 C 
ATOM     20  C   LIG    1       22.526 -16.795   4.240  0.00  0.00    +0.008 C 
ATOM     21  C   LIG    1       26.280 -15.548   4.424  0.00  0.00    +0.012 C 
ATOM     22  C   LIG    1       27.409 -15.813   5.450  0.00  0.00    +0.015 C 
ATOM     23  O   LIG    1       24.212 -12.684   4.916  0.00  0.00    -0.345 OA
ENDROOT
BRANCH   9  24
ATOM     24  O   LIG    1       26.517 -18.294   1.812  0.00  0.00    -0.391 OA
ATOM     25  H   LIG    1       27.305 -17.829   1.483  0.00  0.00    +0.210 HD
ENDBRANCH   9  24
BRANCH   3  26
ATOM     26  C   LIG    1       27.288 -13.159   4.122  0.00  0.00    +0.193 C 
ATOM     27  O   LIG    1       27.466 -12.154   4.816  0.00  0.00    -0.292 OA
BRANCH  26  28
ATOM     28  C   LIG    1       28.392 -13.674   3.194  0.00  0.00    +0.233 C 
BRANCH  28  29
ATOM     29  O   LIG    1       29.390 -12.711   2.894  0.00  0.00    -0.387 OA
ATOM     30  H   LIG    1       30.104 -13.177   2.418  0.00  0.00    +0.210 HD
ENDBRANCH  28  29
ENDBRANCH  26  28
ENDBRANCH   3  26
BRANCH   1  31
ATOM     31  C   LIG    1       23.704 -11.839   2.696  0.00  0.00    +0.061 C 
BRANCH  31  33
ATOM     32  C   LIG    1       26.004 -12.493   1.858  0.00  0.00    +0.004 C 
ATOM     33  C   LIG    1       24.900 -11.448   1.822  0.00  0.00    +0.002 C 
ENDBRANCH  31  33
ENDBRANCH   1  31
TORSDOF 6
ENDMDL
