MODEL 1
REMARK VINA RESULT:      -5.1      0.000      0.000
REMARK  Name = *****
REMARK                            x       y       z     vdW  Elec       q    Type
REMARK                         _______ _______ _______ _____ _____    ______ ____
ROOT
ATOM      1  C   LIG    1       27.433 -20.310   6.268  0.00  0.00    +0.273 A 
ATOM      2  C   LIG    1       27.158 -19.725   5.029  0.00  0.00    +0.085 A 
ATOM      3  C   LIG    1       25.833 -19.642   4.585  0.00  0.00    +0.015 A 
ATOM      4  C   LIG    1       24.759 -20.123   5.360  0.00  0.00    -0.018 A 
ATOM      5  C   LIG    1       25.072 -20.699   6.608  0.00  0.00    +0.015 A 
ATOM      6  C   LIG    1       26.393 -20.801   7.061  0.00  0.00    +0.085 A 
ENDROOT
BRANCH   4   7
ATOM      7  C   LIG    1       23.355 -20.026   4.883  0.00  0.00    -0.018 A 
ATOM      8  C   LIG    1       22.487 -21.133   4.921  0.00  0.00    +0.008 A 
ATOM      9  C   LIG    1       21.163 -21.041   4.480  0.00  0.00    +0.001 A 
ATOM     10  C   LIG    1       20.678 -19.840   3.974  0.00  0.00    +0.000 A 
ATOM     11  C   LIG    1       21.514 -18.731   3.916  0.00  0.00    +0.001 A 
ATOM     12  C   LIG    1       22.834 -18.822   4.373  0.00  0.00    +0.008 A 
ENDBRANCH   4   7
BRANCH   1  14
ATOM     13  O   LIG    1       29.255 -21.532   7.023  0.00  0.00    +0.041 OA
ATOM     14  N   LIG    1       28.819 -20.408   6.739  0.00  0.00    +0.080 N 
ATOM     15  O   LIG    1       29.475 -19.358   6.823  0.00  0.00    -0.576 OA
ENDBRANCH   1  14
TORSDOF 2
ENDMDL
MODEL 2
REMARK VINA RESULT:      -5.1      4.482      5.408
REMARK  Name = *****
REMARK                            x       y       z     vdW  Elec       q    Type
REMARK                         _______ _______ _______ _____ _____    ______ ____
ROOT
ATOM      1  C   LIG    1       25.745 -14.601   3.356  0.00  0.00    +0.273 A 
ATOM      2  C   LIG    1       26.491 -15.757   3.118  0.00  0.00    +0.085 A 
ATOM      3  C   LIG    1       25.919 -17.010   3.365  0.00  0.00    +0.015 A 
ATOM      4  C   LIG    1       24.598 -17.143   3.839  0.00  0.00    -0.018 A 
ATOM      5  C   LIG    1       23.872 -15.956   4.060  0.00  0.00    +0.015 A 
ATOM      6  C   LIG    1       24.433 -14.694   3.829  0.00  0.00    +0.085 A 
ENDROOT
BRANCH   4   7
ATOM      7  C   LIG    1       23.997 -18.477   4.094  0.00  0.00    -0.018 A 
ATOM      8  C   LIG    1       22.675 -18.612   4.557  0.00  0.00    +0.008 A 
ATOM      9  C   LIG    1       22.105 -19.868   4.790  0.00  0.00    +0.001 A 
ATOM     10  C   LIG    1       22.851 -21.022   4.578  0.00  0.00    +0.000 A 
ATOM     11  C   LIG    1       24.162 -20.921   4.128  0.00  0.00    +0.001 A 
ATOM     12  C   LIG    1       24.724 -19.664   3.882  0.00  0.00    +0.008 A 
ENDBRANCH   4   7
BRANCH   1  14
ATOM     13  O   LIG    1       27.501 -13.090   3.488  0.00  0.00    +0.041 OA
ATOM     14  N   LIG    1       26.338 -13.282   3.107  0.00  0.00    +0.080 N 
ATOM     15  O   LIG    1       25.640 -12.436   2.527  0.00  0.00    -0.576 OA
ENDBRANCH   1  14
TORSDOF 2
ENDMDL
MODEL 3
REMARK VINA RESULT:      -5.1      4.472      5.409
REMARK  Name = *****
REMARK                            x       y       z     vdW  Elec       q    Type
REMARK                         _______ _______ _______ _____ _____    ______ ____
ROOT
ATOM      1  C   LIG    1       25.737 -14.622   3.346  0.00  0.00    +0.273 A 
ATOM      2  C   LIG    1       24.426 -14.712   3.818  0.00  0.00    +0.085 A 
ATOM      3  C   LIG    1       23.862 -15.972   4.051  0.00  0.00    +0.015 A 
ATOM      4  C   LIG    1       24.587 -17.161   3.835  0.00  0.00    -0.018 A 
ATOM      5  C   LIG    1       25.910 -17.032   3.367  0.00  0.00    +0.015 A 
ATOM      6  C   LIG    1       26.485 -15.780   3.117  0.00  0.00    +0.085 A 
ENDROOT
BRANCH   4   7
ATOM      7  C   LIG    1       23.983 -18.494   4.090  0.00  0.00    -0.018 A 
ATOM      8  C   LIG    1       24.704 -19.683   3.874  0.00  0.00    +0.008 A 
ATOM      9  C   LIG    1       24.139 -20.938   4.121  0.00  0.00    +0.001 A 
ATOM     10  C   LIG    1       22.830 -21.036   4.578  0.00  0.00    +0.000 A 
ATOM     11  C   LIG    1       22.089 -19.880   4.794  0.00  0.00    +0.001 A 
ATOM     12  C   LIG    1       22.662 -18.625   4.560  0.00  0.00    +0.008 A 
ENDBRANCH   4   7
BRANCH   1  14
ATOM     13  O   LIG    1       27.503 -13.122   3.454  0.00  0.00    +0.041 OA
ATOM     14  N   LIG    1       26.334 -13.306   3.091  0.00  0.00    +0.080 N 
ATOM     15  O   LIG    1       25.631 -12.454   2.525  0.00  0.00    -0.576 OA
ENDBRANCH   1  14
TORSDOF 2
ENDMDL
MODEL 4
REMARK VINA RESULT:      -5.1      4.472      5.380
REMARK  Name = *****
REMARK                            x       y       z     vdW  Elec       q    Type
REMARK                         _______ _______ _______ _____ _____    ______ ____
ROOT
ATOM      1  C   LIG    1       25.746 -14.618   3.349  0.00  0.00    +0.273 A 
ATOM      2  C   LIG    1       26.492 -15.775   3.114  0.00  0.00    +0.085 A 
ATOM      3  C   LIG    1       25.919 -17.028   3.364  0.00  0.00    +0.015 A 
ATOM      4  C   LIG    1       24.598 -17.158   3.837  0.00  0.00    -0.018 A 
ATOM      5  C   LIG    1       23.871 -15.970   4.054  0.00  0.00    +0.015 A 
ATOM      6  C   LIG    1       24.434 -14.709   3.821  0.00  0.00    +0.085 A 
ENDROOT
BRANCH   4   7
ATOM      7  C   LIG    1       23.996 -18.491   4.095  0.00  0.00    -0.018 A 
ATOM      8  C   LIG    1       24.722 -19.680   3.888  0.00  0.00    +0.008 A 
ATOM      9  C   LIG    1       24.159 -20.935   4.138  0.00  0.00    +0.001 A 
ATOM     10  C   LIG    1       22.847 -21.034   4.589  0.00  0.00    +0.000 A 
ATOM     11  C   LIG    1       22.102 -19.879   4.796  0.00  0.00    +0.001 A 
ATOM     12  C   LIG    1       22.673 -18.624   4.559  0.00  0.00    +0.008 A 
ENDBRANCH   4   7
BRANCH   1  14
ATOM     13  O   LIG    1       25.642 -12.450   2.528  0.00  0.00    +0.041 OA
ATOM     14  N   LIG    1       26.340 -13.300   3.097  0.00  0.00    +0.080 N 
ATOM     15  O   LIG    1       27.509 -13.114   3.471  0.00  0.00    -0.576 OA
ENDBRANCH   1  14
TORSDOF 2
ENDMDL
MODEL 5
REMARK VINA RESULT:      -4.9      4.761      6.138
REMARK  Name = *****
REMARK                            x       y       z     vdW  Elec       q    Type
REMARK                         _______ _______ _______ _____ _____    ______ ____
ROOT
ATOM      1  C   LIG    1       22.938 -19.461   4.548  0.00  0.00    +0.273 A 
ATOM      2  C   LIG    1       22.235 -18.273   4.763  0.00  0.00    +0.085 A 
ATOM      3  C   LIG    1       22.846 -17.047   4.470  0.00  0.00    +0.015 A 
ATOM      4  C   LIG    1       24.155 -16.976   3.951  0.00  0.00    -0.018 A 
ATOM      5  C   LIG    1       24.830 -18.194   3.739  0.00  0.00    +0.015 A 
ATOM      6  C   LIG    1       24.238 -19.428   4.037  0.00  0.00    +0.085 A 
ENDROOT
BRANCH   4   7
ATOM      7  C   LIG    1       24.794 -15.672   3.639  0.00  0.00    -0.018 A 
ATOM      8  C   LIG    1       24.086 -14.460   3.748  0.00  0.00    +0.008 A 
ATOM      9  C   LIG    1       24.689 -13.231   3.462  0.00  0.00    +0.001 A 
ATOM     10  C   LIG    1       26.014 -13.185   3.045  0.00  0.00    +0.000 A 
ATOM     11  C   LIG    1       26.737 -14.365   2.921  0.00  0.00    +0.001 A 
ATOM     12  C   LIG    1       26.136 -15.592   3.222  0.00  0.00    +0.008 A 
ENDBRANCH   4   7
BRANCH   1  14
ATOM     13  O   LIG    1       21.158 -20.944   4.446  0.00  0.00    +0.041 OA
ATOM     14  N   LIG    1       22.309 -20.749   4.858  0.00  0.00    +0.080 N 
ATOM     15  O   LIG    1       22.969 -21.569   5.515  0.00  0.00    -0.576 OA
ENDBRANCH   1  14
TORSDOF 2
ENDMDL
MODEL 6
REMARK VINA RESULT:      -4.9      4.764      6.103
REMARK  Name = *****
REMARK                            x       y       z     vdW  Elec       q    Type
REMARK                         _______ _______ _______ _____ _____    ______ ____
ROOT
ATOM      1  C   LIG    1       22.937 -19.455   4.544  0.00  0.00    +0.273 A 
ATOM      2  C   LIG    1       22.229 -18.275   4.785  0.00  0.00    +0.085 A 
ATOM      3  C   LIG    1       22.822 -17.042   4.492  0.00  0.00    +0.015 A 
ATOM      4  C   LIG    1       24.118 -16.953   3.945  0.00  0.00    -0.018 A 
ATOM      5  C   LIG    1       24.801 -18.164   3.707  0.00  0.00    +0.015 A 
ATOM      6  C   LIG    1       24.226 -19.405   4.006  0.00  0.00    +0.085 A 
ENDROOT
BRANCH   4   7
ATOM      7  C   LIG    1       24.739 -15.641   3.632  0.00  0.00    -0.018 A 
ATOM      8  C   LIG    1       26.080 -15.541   3.215  0.00  0.00    +0.008 A 
ATOM      9  C   LIG    1       26.663 -14.306   2.912  0.00  0.00    +0.001 A 
ATOM     10  C   LIG    1       25.921 -13.136   3.034  0.00  0.00    +0.000 A 
ATOM     11  C   LIG    1       24.597 -13.202   3.451  0.00  0.00    +0.001 A 
ATOM     12  C   LIG    1       24.012 -14.440   3.739  0.00  0.00    +0.008 A 
ENDBRANCH   4   7
BRANCH   1  14
ATOM     13  O   LIG    1       21.170 -20.956   4.462  0.00  0.00    +0.041 OA
ATOM     14  N   LIG    1       22.326 -20.752   4.855  0.00  0.00    +0.080 N 
ATOM     15  O   LIG    1       23.006 -21.571   5.493  0.00  0.00    -0.576 OA
ENDBRANCH   1  14
TORSDOF 2
ENDMDL
MODEL 7
REMARK VINA RESULT:      -4.9      4.770      6.062
REMARK  Name = *****
REMARK                            x       y       z     vdW  Elec       q    Type
REMARK                         _______ _______ _______ _____ _____    ______ ____
ROOT
ATOM      1  C   LIG    1       22.964 -19.438   4.532  0.00  0.00    +0.273 A 
ATOM      2  C   LIG    1       24.248 -19.365   3.986  0.00  0.00    +0.085 A 
ATOM      3  C   LIG    1       24.804 -18.114   3.696  0.00  0.00    +0.015 A 
ATOM      4  C   LIG    1       24.108 -16.915   3.950  0.00  0.00    -0.018 A 
ATOM      5  C   LIG    1       22.819 -17.026   4.510  0.00  0.00    +0.015 A 
ATOM      6  C   LIG    1       22.243 -18.270   4.795  0.00  0.00    +0.085 A 
ENDROOT
BRANCH   4   7
ATOM      7  C   LIG    1       24.708 -15.592   3.644  0.00  0.00    -0.018 A 
ATOM      8  C   LIG    1       26.054 -15.466   3.251  0.00  0.00    +0.008 A 
ATOM      9  C   LIG    1       26.618 -14.221   2.954  0.00  0.00    +0.001 A 
ATOM     10  C   LIG    1       25.851 -13.066   3.056  0.00  0.00    +0.000 A 
ATOM     11  C   LIG    1       24.520 -13.157   3.449  0.00  0.00    +0.001 A 
ATOM     12  C   LIG    1       23.955 -14.405   3.731  0.00  0.00    +0.008 A 
ENDBRANCH   4   7
BRANCH   1  14
ATOM     13  O   LIG    1       21.205 -20.948   4.466  0.00  0.00    +0.041 OA
ATOM     14  N   LIG    1       22.369 -20.745   4.833  0.00  0.00    +0.080 N 
ATOM     15  O   LIG    1       23.071 -21.571   5.437  0.00  0.00    -0.576 OA
ENDBRANCH   1  14
TORSDOF 2
ENDMDL
MODEL 8
REMARK VINA RESULT:      -4.6      4.679      5.958
REMARK  Name = *****
REMARK                            x       y       z     vdW  Elec       q    Type
REMARK                         _______ _______ _______ _____ _____    ______ ____
ROOT
ATOM      1  C   LIG    1       24.024 -19.415   4.031  0.00  0.00    +0.273 A 
ATOM      2  C   LIG    1       23.026 -18.480   4.318  0.00  0.00    +0.085 A 
ATOM      3  C   LIG    1       23.298 -17.115   4.172  0.00  0.00    +0.015 A 
ATOM      4  C   LIG    1       24.553 -16.651   3.729  0.00  0.00    -0.018 A 
ATOM      5  C   LIG    1       25.533 -17.623   3.441  0.00  0.00    +0.015 A 
ATOM      6  C   LIG    1       25.281 -18.992   3.593  0.00  0.00    +0.085 A 
ENDROOT
BRANCH   4   7
ATOM      7  C   LIG    1       24.832 -15.201   3.572  0.00  0.00    -0.018 A 
ATOM      8  C   LIG    1       26.050 -14.739   3.038  0.00  0.00    +0.008 A 
ATOM      9  C   LIG    1       26.310 -13.374   2.882  0.00  0.00    +0.001 A 
ATOM     10  C   LIG    1       25.362 -12.434   3.271  0.00  0.00    +0.000 A 
ATOM     11  C   LIG    1       24.153 -12.859   3.809  0.00  0.00    +0.001 A 
ATOM     12  C   LIG    1       23.889 -14.226   3.950  0.00  0.00    +0.008 A 
ENDBRANCH   4   7
BRANCH   1  14
ATOM     13  O   LIG    1       23.860 -21.571   3.189  0.00  0.00    +0.041 OA
ATOM     14  N   LIG    1       23.750 -20.848   4.189  0.00  0.00    +0.080 N 
ATOM     15  O   LIG    1       23.426 -21.253   5.316  0.00  0.00    -0.576 OA
ENDBRANCH   1  14
TORSDOF 2
ENDMDL
MODEL 9
REMARK VINA RESULT:      -3.6      5.047      6.278
REMARK  Name = *****
REMARK                            x       y       z     vdW  Elec       q    Type
REMARK                         _______ _______ _______ _____ _____    ______ ____
ROOT
ATOM      1  C   LIG    1       23.407 -18.733   4.177  0.00  0.00    +0.273 A 
ATOM      2  C   LIG    1       24.599 -18.199   3.681  0.00  0.00    +0.085 A 
ATOM      3  C   LIG    1       24.751 -16.811   3.596  0.00  0.00    +0.015 A 
ATOM      4  C   LIG    1       23.735 -15.926   4.011  0.00  0.00    -0.018 A 
ATOM      5  C   LIG    1       22.550 -16.499   4.515  0.00  0.00    +0.015 A 
ATOM      6  C   LIG    1       22.377 -17.886   4.595  0.00  0.00    +0.085 A 
ENDROOT
BRANCH   4   7
ATOM      7  C   LIG    1       23.906 -14.454   3.922  0.00  0.00    -0.018 A 
ATOM      8  C   LIG    1       23.956 -13.647   5.075  0.00  0.00    +0.008 A 
ATOM      9  C   LIG    1       24.125 -12.261   4.993  0.00  0.00    +0.001 A 
ATOM     10  C   LIG    1       24.235 -11.644   3.752  0.00  0.00    +0.000 A 
ATOM     11  C   LIG    1       24.182 -12.413   2.595  0.00  0.00    +0.001 A 
ATOM     12  C   LIG    1       24.028 -13.801   2.681  0.00  0.00    +0.008 A 
ENDBRANCH   4   7
BRANCH   1  14
ATOM     13  O   LIG    1       22.228 -20.618   4.839  0.00  0.00    +0.041 OA
ATOM     14  N   LIG    1       23.236 -20.187   4.263  0.00  0.00    +0.080 N 
ATOM     15  O   LIG    1       24.112 -20.902   3.751  0.00  0.00    -0.576 OA
ENDBRANCH   1  14
TORSDOF 2
ENDMDL
