MODEL 1
REMARK VINA RESULT:      -9.2      0.000      0.000
REMARK  Name = *****
REMARK                            x       y       z     vdW  Elec       q    Type
REMARK                         _______ _______ _______ _____ _____    ______ ____
ROOT
ATOM      1  C   LIG    1       24.440 -21.912   6.828  0.00  0.00    +0.159 C 
ENDROOT
BRANCH   1   2
ATOM      2  C   LIG    1       24.070 -20.808   5.836  0.00  0.00    -0.031 A 
ATOM      3  C   LIG    1       24.948 -20.405   4.821  0.00  0.00    +0.004 A 
ATOM      4  C   LIG    1       24.572 -19.447   3.876  0.00  0.00    +0.000 A 
ATOM      5  C   LIG    1       23.317 -18.852   3.942  0.00  0.00    +0.000 A 
ATOM      6  C   LIG    1       22.439 -19.211   4.960  0.00  0.00    +0.000 A 
ATOM      7  C   LIG    1       22.812 -20.178   5.904  0.00  0.00    +0.004 A 
ENDBRANCH   1   2
BRANCH   1   8
ATOM      8  C   LIG    1       24.714 -23.338   6.234  0.00  0.00    +0.083 C 
ATOM      9  C   LIG    1       25.901 -24.057   6.899  0.00  0.00    +0.036 C 
ATOM     10  C   LIG    1       25.690 -25.525   6.544  0.00  0.00    +0.003 C 
ATOM     11  C   LIG    1       24.180 -25.720   6.514  0.00  0.00    +0.003 C 
ATOM     12  C   LIG    1       23.555 -24.323   6.471  0.00  0.00    +0.036 C 
BRANCH   8  13
ATOM     13  O   LIG    1       24.962 -23.324   4.820  0.00  0.00    -0.387 OA
ATOM     14  H   LIG    1       25.615 -22.619   4.633  0.00  0.00    +0.210 HD
ENDBRANCH   8  13
ENDBRANCH   1   8
BRANCH   1  15
ATOM     15  C   LIG    1       25.598 -21.507   7.742  0.00  0.00    +0.317 C 
ATOM     16  O   LIG    1       25.546 -21.466   8.958  0.00  0.00    -0.250 OA
BRANCH  15  17
ATOM     17  O   LIG    1       26.664 -21.093   6.989  0.00  0.00    -0.463 OA
BRANCH  17  18
ATOM     18  C   LIG    1       27.744 -20.442   7.698  0.00  0.00    +0.247 C 
BRANCH  18  19
ATOM     19  C   LIG    1       29.050 -21.255   7.674  0.00  0.00    +0.125 C 
BRANCH  19  21
ATOM     20  C   LIG    1       30.986 -21.781   9.065  0.00  0.00    +0.104 C 
ATOM     21  N   LIG    1       30.124 -20.721   8.539  0.00  0.00    -0.305 NA
ATOM     22  C   LIG    1       30.930 -19.751   7.787  0.00  0.00    +0.104 C 
ENDBRANCH  19  21
ENDBRANCH  18  19
ENDBRANCH  17  18
ENDBRANCH  15  17
ENDBRANCH   1  15
TORSDOF 8
ENDMDL
MODEL 2
REMARK VINA RESULT:      -9.1      0.896      1.079
REMARK  Name = *****
REMARK                            x       y       z     vdW  Elec       q    Type
REMARK                         _______ _______ _______ _____ _____    ______ ____
ROOT
ATOM      1  C   LIG    1       24.416 -22.050   6.806  0.00  0.00    +0.159 C 
ENDROOT
BRANCH   1   2
ATOM      2  C   LIG    1       24.073 -20.927   5.827  0.00  0.00    -0.031 A 
ATOM      3  C   LIG    1       24.973 -20.512   4.836  0.00  0.00    +0.004 A 
ATOM      4  C   LIG    1       24.622 -19.534   3.901  0.00  0.00    +0.000 A 
ATOM      5  C   LIG    1       23.370 -18.933   3.953  0.00  0.00    +0.000 A 
ATOM      6  C   LIG    1       22.469 -19.303   4.948  0.00  0.00    +0.000 A 
ATOM      7  C   LIG    1       22.818 -20.289   5.882  0.00  0.00    +0.004 A 
ENDBRANCH   1   2
BRANCH   1   8
ATOM      8  C   LIG    1       24.694 -23.467   6.192  0.00  0.00    +0.083 C 
ATOM      9  C   LIG    1       25.891 -24.186   6.836  0.00  0.00    +0.036 C 
ATOM     10  C   LIG    1       25.686 -25.652   6.466  0.00  0.00    +0.003 C 
ATOM     11  C   LIG    1       24.177 -25.856   6.448  0.00  0.00    +0.003 C 
ATOM     12  C   LIG    1       23.543 -24.462   6.427  0.00  0.00    +0.036 C 
BRANCH   8  13
ATOM     13  O   LIG    1       24.928 -23.434   4.775  0.00  0.00    -0.387 OA
ATOM     14  H   LIG    1       25.870 -23.212   4.629  0.00  0.00    +0.210 HD
ENDBRANCH   8  13
ENDBRANCH   1   8
BRANCH   1  15
ATOM     15  C   LIG    1       25.558 -21.669   7.750  0.00  0.00    +0.317 C 
ATOM     16  O   LIG    1       25.453 -21.535   8.955  0.00  0.00    -0.250 OA
BRANCH  15  17
ATOM     17  O   LIG    1       26.688 -21.392   7.027  0.00  0.00    -0.463 OA
BRANCH  17  18
ATOM     18  C   LIG    1       27.615 -20.446   7.610  0.00  0.00    +0.247 C 
BRANCH  18  19
ATOM     19  C   LIG    1       28.993 -20.461   6.926  0.00  0.00    +0.125 C 
BRANCH  19  21
ATOM     20  C   LIG    1       31.144 -19.333   7.175  0.00  0.00    +0.104 C 
ATOM     21  N   LIG    1       29.707 -19.165   6.951  0.00  0.00    -0.305 NA
ATOM     22  C   LIG    1       29.480 -18.451   5.689  0.00  0.00    +0.104 C 
ENDBRANCH  19  21
ENDBRANCH  18  19
ENDBRANCH  17  18
ENDBRANCH  15  17
ENDBRANCH   1  15
TORSDOF 8
ENDMDL
MODEL 3
REMARK VINA RESULT:      -8.9      2.212      4.890
REMARK  Name = *****
REMARK                            x       y       z     vdW  Elec       q    Type
REMARK                         _______ _______ _______ _____ _____    ______ ____
ROOT
ATOM      1  C   LIG    1       26.081 -21.572   6.645  0.00  0.00    +0.159 C 
ENDROOT
BRANCH   1   2
ATOM      2  C   LIG    1       25.024 -20.787   5.867  0.00  0.00    -0.031 A 
ATOM      3  C   LIG    1       25.265 -20.310   4.571  0.00  0.00    +0.004 A 
ATOM      4  C   LIG    1       24.269 -19.656   3.842  0.00  0.00    +0.000 A 
ATOM      5  C   LIG    1       23.015 -19.443   4.404  0.00  0.00    +0.000 A 
ATOM      6  C   LIG    1       22.760 -19.877   5.701  0.00  0.00    +0.000 A 
ATOM      7  C   LIG    1       23.757 -20.540   6.431  0.00  0.00    +0.004 A 
ENDBRANCH   1   2
BRANCH   1   8
ATOM      8  C   LIG    1       27.309 -20.761   7.188  0.00  0.00    +0.083 C 
ATOM      9  C   LIG    1       28.506 -21.650   7.568  0.00  0.00    +0.036 C 
ATOM     10  C   LIG    1       29.690 -20.689   7.591  0.00  0.00    +0.003 C 
ATOM     11  C   LIG    1       29.400 -19.665   6.502  0.00  0.00    +0.003 C 
ATOM     12  C   LIG    1       27.920 -19.816   6.138  0.00  0.00    +0.036 C 
BRANCH   8  13
ATOM     13  O   LIG    1       26.995 -19.956   8.335  0.00  0.00    -0.387 OA
ATOM     14  H   LIG    1       26.678 -20.551   9.045  0.00  0.00    +0.210 HD
ENDBRANCH   8  13
ENDBRANCH   1   8
BRANCH   1  15
ATOM     15  C   LIG    1       25.473 -22.400   7.778  0.00  0.00    +0.317 C 
ATOM     16  O   LIG    1       25.550 -22.125   8.962  0.00  0.00    -0.250 OA
BRANCH  15  17
ATOM     17  O   LIG    1       24.926 -23.550   7.274  0.00  0.00    -0.463 OA
BRANCH  17  18
ATOM     18  C   LIG    1       25.814 -24.415   6.527  0.00  0.00    +0.247 C 
BRANCH  18  19
ATOM     19  C   LIG    1       25.204 -24.891   5.197  0.00  0.00    +0.125 C 
BRANCH  19  21
ATOM     20  C   LIG    1       26.467 -26.976   5.064  0.00  0.00    +0.104 C 
ATOM     21  N   LIG    1       25.139 -26.361   5.040  0.00  0.00    -0.305 NA
ATOM     22  C   LIG    1       24.305 -26.935   6.104  0.00  0.00    +0.104 C 
ENDBRANCH  19  21
ENDBRANCH  18  19
ENDBRANCH  17  18
ENDBRANCH  15  17
ENDBRANCH   1  15
TORSDOF 8
ENDMDL
MODEL 4
REMARK VINA RESULT:      -8.7      1.326      4.139
REMARK  Name = *****
REMARK                            x       y       z     vdW  Elec       q    Type
REMARK                         _______ _______ _______ _____ _____    ______ ____
ROOT
ATOM      1  C   LIG    1       25.982 -22.217   6.733  0.00  0.00    +0.159 C 
ENDROOT
BRANCH   1   2
ATOM      2  C   LIG    1       25.412 -23.633   6.627  0.00  0.00    -0.031 A 
ATOM      3  C   LIG    1       24.031 -23.871   6.601  0.00  0.00    +0.004 A 
ATOM      4  C   LIG    1       23.521 -25.161   6.433  0.00  0.00    +0.000 A 
ATOM      5  C   LIG    1       24.383 -26.244   6.311  0.00  0.00    +0.000 A 
ATOM      6  C   LIG    1       25.759 -26.039   6.367  0.00  0.00    +0.000 A 
ATOM      7  C   LIG    1       26.271 -24.744   6.529  0.00  0.00    +0.004 A 
ENDBRANCH   1   2
BRANCH   1   8
ATOM      8  C   LIG    1       25.198 -21.080   5.989  0.00  0.00    +0.083 C 
ATOM      9  C   LIG    1       24.599 -21.531   4.646  0.00  0.00    +0.036 C 
ATOM     10  C   LIG    1       23.524 -20.489   4.351  0.00  0.00    +0.003 C 
ATOM     11  C   LIG    1       22.966 -20.090   5.709  0.00  0.00    +0.003 C 
ATOM     12  C   LIG    1       23.955 -20.600   6.761  0.00  0.00    +0.036 C 
BRANCH   8  13
ATOM     13  O   LIG    1       25.998 -19.916   5.731  0.00  0.00    -0.387 OA
ATOM     14  H   LIG    1       26.145 -19.454   6.581  0.00  0.00    +0.210 HD
ENDBRANCH   8  13
ENDBRANCH   1   8
BRANCH   1  15
ATOM     15  C   LIG    1       26.237 -21.800   8.182  0.00  0.00    +0.317 C 
ATOM     16  O   LIG    1       25.525 -22.088   9.127  0.00  0.00    -0.250 OA
BRANCH  15  17
ATOM     17  O   LIG    1       27.321 -20.965   8.243  0.00  0.00    -0.463 OA
BRANCH  17  18
ATOM     18  C   LIG    1       28.541 -21.443   7.629  0.00  0.00    +0.247 C 
BRANCH  18  19
ATOM     19  C   LIG    1       29.313 -20.333   6.893  0.00  0.00    +0.125 C 
BRANCH  19  21
ATOM     20  C   LIG    1       30.136 -18.547   8.338  0.00  0.00    +0.104 C 
ATOM     21  N   LIG    1       30.469 -19.788   7.638  0.00  0.00    -0.305 NA
ATOM     22  C   LIG    1       30.953 -20.788   8.599  0.00  0.00    +0.104 C 
ENDBRANCH  19  21
ENDBRANCH  18  19
ENDBRANCH  17  18
ENDBRANCH  15  17
ENDBRANCH   1  15
TORSDOF 8
ENDMDL
MODEL 5
REMARK VINA RESULT:      -8.6      2.656      5.581
REMARK  Name = *****
REMARK                            x       y       z     vdW  Elec       q    Type
REMARK                         _______ _______ _______ _____ _____    ______ ____
ROOT
ATOM      1  C   LIG    1       23.504 -21.489   6.620  0.00  0.00    +0.159 C 
ENDROOT
BRANCH   1   2
ATOM      2  C   LIG    1       24.933 -21.100   7.002  0.00  0.00    -0.031 A 
ATOM      3  C   LIG    1       25.902 -20.812   6.032  0.00  0.00    +0.004 A 
ATOM      4  C   LIG    1       27.185 -20.388   6.392  0.00  0.00    +0.000 A 
ATOM      5  C   LIG    1       27.532 -20.267   7.732  0.00  0.00    +0.000 A 
ATOM      6  C   LIG    1       26.597 -20.579   8.716  0.00  0.00    +0.000 A 
ATOM      7  C   LIG    1       25.309 -20.997   8.355  0.00  0.00    +0.004 A 
ENDBRANCH   1   2
BRANCH   1   8
ATOM      8  C   LIG    1       22.889 -20.783   5.361  0.00  0.00    +0.083 C 
ATOM      9  C   LIG    1       22.527 -19.308   5.606  0.00  0.00    +0.036 C 
ATOM     10  C   LIG    1       22.425 -18.713   4.205  0.00  0.00    +0.003 C 
ATOM     11  C   LIG    1       23.465 -19.453   3.376  0.00  0.00    +0.003 C 
ATOM     12  C   LIG    1       23.874 -20.690   4.181  0.00  0.00    +0.036 C 
BRANCH   8  13
ATOM     13  O   LIG    1       21.710 -21.435   4.864  0.00  0.00    -0.387 OA
ATOM     14  H   LIG    1       21.746 -21.422   3.886  0.00  0.00    +0.210 HD
ENDBRANCH   8  13
ENDBRANCH   1   8
BRANCH   1  15
ATOM     15  C   LIG    1       23.328 -23.003   6.494  0.00  0.00    +0.317 C 
ATOM     16  O   LIG    1       22.327 -23.618   6.816  0.00  0.00    -0.250 OA
BRANCH  15  17
ATOM     17  O   LIG    1       24.498 -23.575   6.073  0.00  0.00    -0.463 OA
BRANCH  17  18
ATOM     18  C   LIG    1       24.728 -24.947   6.471  0.00  0.00    +0.247 C 
BRANCH  18  19
ATOM     19  C   LIG    1       24.345 -25.960   5.377  0.00  0.00    +0.125 C 
BRANCH  19  21
ATOM     20  C   LIG    1       26.634 -26.696   5.800  0.00  0.00    +0.104 C 
ATOM     21  N   LIG    1       25.402 -26.941   5.048  0.00  0.00    -0.305 NA
ATOM     22  C   LIG    1       24.916 -28.300   5.317  0.00  0.00    +0.104 C 
ENDBRANCH  19  21
ENDBRANCH  18  19
ENDBRANCH  17  18
ENDBRANCH  15  17
ENDBRANCH   1  15
TORSDOF 8
ENDMDL
MODEL 6
REMARK VINA RESULT:      -8.6      2.517      4.849
REMARK  Name = *****
REMARK                            x       y       z     vdW  Elec       q    Type
REMARK                         _______ _______ _______ _____ _____    ______ ____
ROOT
ATOM      1  C   LIG    1       24.698 -22.172   5.865  0.00  0.00    +0.159 C 
ENDROOT
BRANCH   1   2
ATOM      2  C   LIG    1       24.016 -20.972   5.204  0.00  0.00    -0.031 A 
ATOM      3  C   LIG    1       22.918 -20.333   5.793  0.00  0.00    +0.004 A 
ATOM      4  C   LIG    1       22.347 -19.194   5.217  0.00  0.00    +0.000 A 
ATOM      5  C   LIG    1       22.850 -18.686   4.025  0.00  0.00    +0.000 A 
ATOM      6  C   LIG    1       23.920 -19.322   3.403  0.00  0.00    +0.000 A 
ATOM      7  C   LIG    1       24.498 -20.460   3.983  0.00  0.00    +0.004 A 
ENDBRANCH   1   2
BRANCH   1   8
ATOM      8  C   LIG    1       25.843 -21.860   6.891  0.00  0.00    +0.083 C 
ATOM      9  C   LIG    1       26.787 -20.738   6.427  0.00  0.00    +0.036 C 
ATOM     10  C   LIG    1       27.476 -20.280   7.709  0.00  0.00    +0.003 C 
ATOM     11  C   LIG    1       26.433 -20.437   8.806  0.00  0.00    +0.003 C 
ATOM     12  C   LIG    1       25.319 -21.319   8.233  0.00  0.00    +0.036 C 
BRANCH   8  13
ATOM     13  O   LIG    1       26.656 -23.004   7.197  0.00  0.00    -0.387 OA
ATOM     14  H   LIG    1       26.889 -23.443   6.354  0.00  0.00    +0.210 HD
ENDBRANCH   8  13
ENDBRANCH   1   8
BRANCH   1  15
ATOM     15  C   LIG    1       23.692 -23.136   6.497  0.00  0.00    +0.317 C 
ATOM     16  O   LIG    1       22.537 -22.861   6.768  0.00  0.00    -0.250 OA
BRANCH  15  17
ATOM     17  O   LIG    1       24.312 -24.315   6.813  0.00  0.00    -0.463 OA
BRANCH  17  18
ATOM     18  C   LIG    1       24.023 -25.448   5.961  0.00  0.00    +0.247 C 
BRANCH  18  19
ATOM     19  C   LIG    1       25.053 -25.624   4.832  0.00  0.00    +0.125 C 
BRANCH  19  21
ATOM     20  C   LIG    1       26.921 -26.854   5.810  0.00  0.00    +0.104 C 
ATOM     21  N   LIG    1       25.799 -26.901   4.872  0.00  0.00    -0.305 NA
ATOM     22  C   LIG    1       24.889 -27.994   5.239  0.00  0.00    +0.104 C 
ENDBRANCH  19  21
ENDBRANCH  18  19
ENDBRANCH  17  18
ENDBRANCH  15  17
ENDBRANCH   1  15
TORSDOF 8
ENDMDL
MODEL 7
REMARK VINA RESULT:      -8.5      1.206      4.398
REMARK  Name = *****
REMARK                            x       y       z     vdW  Elec       q    Type
REMARK                         _______ _______ _______ _____ _____    ______ ____
ROOT
ATOM      1  C   LIG    1       25.253 -21.709   6.016  0.00  0.00    +0.159 C 
ENDROOT
BRANCH   1   2
ATOM      2  C   LIG    1       25.031 -23.206   6.240  0.00  0.00    -0.031 A 
ATOM      3  C   LIG    1       23.745 -23.759   6.294  0.00  0.00    +0.004 A 
ATOM      4  C   LIG    1       23.554 -25.137   6.428  0.00  0.00    +0.000 A 
ATOM      5  C   LIG    1       24.648 -25.989   6.535  0.00  0.00    +0.000 A 
ATOM      6  C   LIG    1       25.935 -25.460   6.518  0.00  0.00    +0.000 A 
ATOM      7  C   LIG    1       26.128 -24.079   6.377  0.00  0.00    +0.004 A 
ENDBRANCH   1   2
BRANCH   1   8
ATOM      8  C   LIG    1       24.291 -20.993   5.006  0.00  0.00    +0.083 C 
ATOM      9  C   LIG    1       23.118 -20.270   5.690  0.00  0.00    +0.036 C 
ATOM     10  C   LIG    1       22.625 -19.283   4.636  0.00  0.00    +0.003 C 
ATOM     11  C   LIG    1       23.869 -18.853   3.873  0.00  0.00    +0.003 C 
ATOM     12  C   LIG    1       24.973 -19.853   4.228  0.00  0.00    +0.036 C 
BRANCH   8  13
ATOM     13  O   LIG    1       23.731 -21.883   4.028  0.00  0.00    -0.387 OA
ATOM     14  H   LIG    1       22.836 -22.140   4.329  0.00  0.00    +0.210 HD
ENDBRANCH   8  13
ENDBRANCH   1   8
BRANCH   1  15
ATOM     15  C   LIG    1       25.293 -20.925   7.329  0.00  0.00    +0.317 C 
ATOM     16  O   LIG    1       24.424 -20.945   8.181  0.00  0.00    -0.250 OA
BRANCH  15  17
ATOM     17  O   LIG    1       26.396 -20.113   7.353  0.00  0.00    -0.463 OA
BRANCH  17  18
ATOM     18  C   LIG    1       27.648 -20.733   7.729  0.00  0.00    +0.247 C 
BRANCH  18  19
ATOM     19  C   LIG    1       28.692 -20.704   6.598  0.00  0.00    +0.125 C 
BRANCH  19  21
ATOM     20  C   LIG    1       29.487 -18.530   5.822  0.00  0.00    +0.104 C 
ATOM     21  N   LIG    1       29.720 -19.649   6.736  0.00  0.00    -0.305 NA
ATOM     22  C   LIG    1       29.747 -19.163   8.121  0.00  0.00    +0.104 C 
ENDBRANCH  19  21
ENDBRANCH  18  19
ENDBRANCH  17  18
ENDBRANCH  15  17
ENDBRANCH   1  15
TORSDOF 8
ENDMDL
MODEL 8
REMARK VINA RESULT:      -8.2      2.534      4.744
REMARK  Name = *****
REMARK                            x       y       z     vdW  Elec       q    Type
REMARK                         _______ _______ _______ _____ _____    ______ ____
ROOT
ATOM      1  C   LIG    1       24.614 -21.685   6.284  0.00  0.00    +0.159 C 
ENDROOT
BRANCH   1   2
ATOM      2  C   LIG    1       25.961 -21.081   6.684  0.00  0.00    -0.031 A 
ATOM      3  C   LIG    1       26.902 -20.682   5.726  0.00  0.00    +0.004 A 
ATOM      4  C   LIG    1       28.100 -20.065   6.100  0.00  0.00    +0.000 A 
ATOM      5  C   LIG    1       28.391 -19.857   7.443  0.00  0.00    +0.000 A 
ATOM      6  C   LIG    1       27.487 -20.274   8.415  0.00  0.00    +0.000 A 
ATOM      7  C   LIG    1       26.282 -20.886   8.041  0.00  0.00    +0.004 A 
ENDBRANCH   1   2
BRANCH   1   8
ATOM      8  C   LIG    1       24.526 -23.251   6.236  0.00  0.00    +0.083 C 
ATOM      9  C   LIG    1       24.900 -23.841   4.865  0.00  0.00    +0.036 C 
ATOM     10  C   LIG    1       25.217 -25.303   5.164  0.00  0.00    +0.003 C 
ATOM     11  C   LIG    1       25.838 -25.305   6.553  0.00  0.00    +0.003 C 
ATOM     12  C   LIG    1       25.529 -23.941   7.178  0.00  0.00    +0.036 C 
BRANCH   8  13
ATOM     13  O   LIG    1       23.226 -23.756   6.577  0.00  0.00    -0.387 OA
ATOM     14  H   LIG    1       22.763 -23.988   5.746  0.00  0.00    +0.210 HD
ENDBRANCH   8  13
ENDBRANCH   1   8
BRANCH   1  15
ATOM     15  C   LIG    1       23.458 -21.133   7.119  0.00  0.00    +0.317 C 
ATOM     16  O   LIG    1       23.024 -21.644   8.135  0.00  0.00    -0.250 OA
BRANCH  15  17
ATOM     17  O   LIG    1       22.911 -20.043   6.495  0.00  0.00    -0.463 OA
BRANCH  17  18
ATOM     18  C   LIG    1       22.548 -20.208   5.104  0.00  0.00    +0.247 C 
BRANCH  18  19
ATOM     19  C   LIG    1       22.856 -18.962   4.254  0.00  0.00    +0.125 C 
BRANCH  19  21
ATOM     20  C   LIG    1       25.115 -18.385   3.532  0.00  0.00    +0.104 C 
ATOM     21  N   LIG    1       23.909 -19.157   3.233  0.00  0.00    -0.305 NA
ATOM     22  C   LIG    1       24.242 -20.584   3.134  0.00  0.00    +0.104 C 
ENDBRANCH  19  21
ENDBRANCH  18  19
ENDBRANCH  17  18
ENDBRANCH  15  17
ENDBRANCH   1  15
TORSDOF 8
ENDMDL
MODEL 9
REMARK VINA RESULT:      -7.8      1.317      1.903
REMARK  Name = *****
REMARK                            x       y       z     vdW  Elec       q    Type
REMARK                         _______ _______ _______ _____ _____    ______ ____
ROOT
ATOM      1  C   LIG    1       25.211 -20.947   6.809  0.00  0.00    +0.159 C 
ENDROOT
BRANCH   1   2
ATOM      2  C   LIG    1       24.371 -20.259   5.732  0.00  0.00    -0.031 A 
ATOM      3  C   LIG    1       24.861 -20.049   4.437  0.00  0.00    +0.004 A 
ATOM      4  C   LIG    1       24.060 -19.484   3.441  0.00  0.00    +0.000 A 
ATOM      5  C   LIG    1       22.757 -19.094   3.728  0.00  0.00    +0.000 A 
ATOM      6  C   LIG    1       22.256 -19.261   5.016  0.00  0.00    +0.000 A 
ATOM      7  C   LIG    1       23.057 -19.834   6.014  0.00  0.00    +0.004 A 
ENDBRANCH   1   2
BRANCH   1   8
ATOM      8  C   LIG    1       25.026 -22.497   6.970  0.00  0.00    +0.083 C 
ATOM      9  C   LIG    1       23.554 -22.941   6.934  0.00  0.00    +0.036 C 
ATOM     10  C   LIG    1       23.624 -24.432   6.620  0.00  0.00    +0.003 C 
ATOM     11  C   LIG    1       24.831 -24.595   5.706  0.00  0.00    +0.003 C 
ATOM     12  C   LIG    1       25.644 -23.302   5.813  0.00  0.00    +0.036 C 
BRANCH   8  13
ATOM     13  O   LIG    1       25.597 -23.012   8.183  0.00  0.00    -0.387 OA
ATOM     14  H   LIG    1       26.560 -23.122   8.042  0.00  0.00    +0.210 HD
ENDBRANCH   8  13
ENDBRANCH   1   8
BRANCH   1  15
ATOM     15  C   LIG    1       26.700 -20.620   6.681  0.00  0.00    +0.317 C 
ATOM     16  O   LIG    1       27.234 -20.177   5.680  0.00  0.00    -0.250 OA
BRANCH  15  17
ATOM     17  O   LIG    1       27.361 -21.003   7.817  0.00  0.00    -0.463 OA
BRANCH  17  18
ATOM     18  C   LIG    1       28.660 -21.614   7.636  0.00  0.00    +0.247 C 
BRANCH  18  19
ATOM     19  C   LIG    1       29.805 -20.767   8.219  0.00  0.00    +0.125 C 
BRANCH  19  21
ATOM     20  C   LIG    1       30.024 -18.407   8.801  0.00  0.00    +0.104 C 
ATOM     21  N   LIG    1       29.860 -19.377   7.717  0.00  0.00    -0.305 NA
ATOM     22  C   LIG    1       30.962 -19.241   6.756  0.00  0.00    +0.104 C 
ENDBRANCH  19  21
ENDBRANCH  18  19
ENDBRANCH  17  18
ENDBRANCH  15  17
ENDBRANCH   1  15
TORSDOF 8
ENDMDL
