MODEL 1
REMARK VINA RESULT:      -9.0      0.000      0.000
REMARK  Name = *****
REMARK                            x       y       z     vdW  Elec       q    Type
REMARK                         _______ _______ _______ _____ _____    ______ ____
ROOT
ATOM      1  C   LIG    1       26.555 -21.750   6.464  0.00  0.00    +0.247 C 
ATOM      2  N   LIG    1       25.552 -21.983   5.512  0.00  0.00    -0.262 N 
ATOM      3  C   LIG    1       24.898 -23.232   5.606  0.00  0.00    +0.164 A 
ATOM      4  C   LIG    1       23.897 -23.447   6.562  0.00  0.00    +0.085 A 
ATOM      5  C   LIG    1       23.465 -24.759   6.765  0.00  0.00    +0.031 A 
ATOM      6  C   LIG    1       23.983 -25.788   5.982  0.00  0.00    +0.022 A 
ATOM      7  C   LIG    1       24.933 -25.471   5.028  0.00  0.00    +0.113 A 
ATOM      8  N   LIG    1       23.330 -22.444   7.369  0.00  0.00    -0.319 N 
ATOM      9  H   LIG    1       22.820 -22.737   8.195  0.00  0.00    +0.169 HD
ATOM     10  C   LIG    1       23.233 -21.092   7.148  0.00  0.00    +0.258 A 
ATOM     11  O   LIG    1       22.710 -20.381   8.004  0.00  0.00    -0.267 OA
ATOM     12  C   LIG    1       23.619 -20.493   5.850  0.00  0.00    +0.063 A 
ATOM     13  C   LIG    1       22.854 -19.409   5.386  0.00  0.00    +0.015 A 
ATOM     14  C   LIG    1       23.149 -18.800   4.164  0.00  0.00    +0.001 A 
ATOM     15  C   LIG    1       24.215 -19.264   3.398  0.00  0.00    +0.002 A 
ATOM     16  C   LIG    1       24.989 -20.328   3.859  0.00  0.00    +0.027 A 
ATOM     17  N   LIG    1       25.405 -24.224   4.828  0.00  0.00    -0.235 NA
ATOM     18  C   LIG    1       24.702 -20.939   5.089  0.00  0.00    +0.064 A 
ATOM     19  O   LIG    1       26.975 -22.614   7.244  0.00  0.00    -0.271 OA
ENDROOT
BRANCH   1  20
ATOM     20  C   LIG    1       27.184 -20.348   6.505  0.00  0.00    +0.184 C 
BRANCH  20  25
ATOM     21  C   LIG    1       31.695 -19.027   7.712  0.00  0.00    +0.105 C 
ATOM     22  N   LIG    1       30.300 -19.074   8.147  0.00  0.00    -0.303 NA
ATOM     23  C   LIG    1       29.429 -18.286   7.252  0.00  0.00    +0.099 C 
ATOM     24  C   LIG    1       29.089 -18.963   5.900  0.00  0.00    +0.100 C 
ATOM     25  N   LIG    1       28.580 -20.346   6.008  0.00  0.00    -0.291 NA
ATOM     26  C   LIG    1       29.490 -21.125   6.874  0.00  0.00    +0.100 C 
ATOM     27  C   LIG    1       29.812 -20.465   8.236  0.00  0.00    +0.099 C 
ENDBRANCH  20  25
ENDBRANCH   1  20
TORSDOF 2
ENDMDL
MODEL 2
REMARK VINA RESULT:      -7.2      1.892      6.096
REMARK  Name = *****
REMARK                            x       y       z     vdW  Elec       q    Type
REMARK                         _______ _______ _______ _____ _____    ______ ____
ROOT
ATOM      1  C   LIG    1       26.976 -22.640   6.993  0.00  0.00    +0.247 C 
ATOM      2  N   LIG    1       26.552 -21.341   7.308  0.00  0.00    -0.262 N 
ATOM      3  C   LIG    1       27.545 -20.338   7.232  0.00  0.00    +0.164 A 
ATOM      4  C   LIG    1       27.928 -19.801   5.996  0.00  0.00    +0.085 A 
ATOM      5  C   LIG    1       29.071 -19.000   5.964  0.00  0.00    +0.031 A 
ATOM      6  C   LIG    1       29.747 -18.709   7.146  0.00  0.00    +0.022 A 
ATOM      7  C   LIG    1       29.264 -19.245   8.326  0.00  0.00    +0.113 A 
ATOM      8  N   LIG    1       27.275 -20.052   4.776  0.00  0.00    -0.319 N 
ATOM      9  H   LIG    1       27.777 -19.839   3.922  0.00  0.00    +0.169 HD
ATOM     10  C   LIG    1       25.975 -20.424   4.538  0.00  0.00    +0.258 A 
ATOM     11  O   LIG    1       25.607 -20.613   3.380  0.00  0.00    -0.267 OA
ATOM     12  C   LIG    1       24.974 -20.471   5.629  0.00  0.00    +0.063 A 
ATOM     13  C   LIG    1       23.659 -20.087   5.315  0.00  0.00    +0.015 A 
ATOM     14  C   LIG    1       22.663 -20.092   6.294  0.00  0.00    +0.001 A 
ATOM     15  C   LIG    1       22.969 -20.486   7.593  0.00  0.00    +0.002 A 
ATOM     16  C   LIG    1       24.268 -20.883   7.909  0.00  0.00    +0.027 A 
ATOM     17  N   LIG    1       28.188 -20.054   8.395  0.00  0.00    -0.235 NA
ATOM     18  C   LIG    1       25.271 -20.888   6.928  0.00  0.00    +0.064 A 
ATOM     19  O   LIG    1       28.160 -22.950   6.811  0.00  0.00    -0.271 OA
ENDROOT
BRANCH   1  20
ATOM     20  C   LIG    1       25.902 -23.736   6.904  0.00  0.00    +0.184 C 
BRANCH  20  25
ATOM     21  C   LIG    1       24.641 -28.096   5.187  0.00  0.00    +0.105 C 
ATOM     22  N   LIG    1       24.430 -27.118   6.253  0.00  0.00    -0.303 NA
ATOM     23  C   LIG    1       25.674 -26.864   7.007  0.00  0.00    +0.099 C 
ATOM     24  C   LIG    1       26.702 -25.950   6.294  0.00  0.00    +0.100 C 
ATOM     25  N   LIG    1       26.153 -24.675   5.786  0.00  0.00    -0.291 NA
ATOM     26  C   LIG    1       24.932 -24.958   5.000  0.00  0.00    +0.100 C 
ATOM     27  C   LIG    1       23.892 -25.850   5.718  0.00  0.00    +0.099 C 
ENDBRANCH  20  25
ENDBRANCH   1  20
TORSDOF 2
ENDMDL
MODEL 3
REMARK VINA RESULT:      -6.9      8.761     11.687
REMARK  Name = *****
REMARK                            x       y       z     vdW  Elec       q    Type
REMARK                         _______ _______ _______ _____ _____    ______ ____
ROOT
ATOM      1  C   LIG    1       24.532 -32.942   8.053  0.00  0.00    +0.247 C 
ATOM      2  N   LIG    1       25.730 -32.280   7.746  0.00  0.00    -0.262 N 
ATOM      3  C   LIG    1       26.218 -32.476   6.435  0.00  0.00    +0.164 A 
ATOM      4  C   LIG    1       25.672 -31.771   5.354  0.00  0.00    +0.085 A 
ATOM      5  C   LIG    1       26.025 -32.182   4.067  0.00  0.00    +0.031 A 
ATOM      6  C   LIG    1       26.941 -33.218   3.898  0.00  0.00    +0.022 A 
ATOM      7  C   LIG    1       27.465 -33.821   5.026  0.00  0.00    +0.113 A 
ATOM      8  N   LIG    1       24.755 -30.711   5.469  0.00  0.00    -0.319 N 
ATOM      9  H   LIG    1       24.228 -30.454   4.642  0.00  0.00    +0.169 HD
ATOM     10  C   LIG    1       24.540 -29.847   6.514  0.00  0.00    +0.258 A 
ATOM     11  O   LIG    1       23.662 -28.993   6.416  0.00  0.00    -0.267 OA
ATOM     12  C   LIG    1       25.428 -29.835   7.700  0.00  0.00    +0.063 A 
ATOM     13  C   LIG    1       25.693 -28.590   8.295  0.00  0.00    +0.015 A 
ATOM     14  C   LIG    1       26.531 -28.497   9.408  0.00  0.00    +0.001 A 
ATOM     15  C   LIG    1       27.109 -29.646   9.940  0.00  0.00    +0.002 A 
ATOM     16  C   LIG    1       26.839 -30.887   9.364  0.00  0.00    +0.027 A 
ATOM     17  N   LIG    1       27.121 -33.481   6.285  0.00  0.00    -0.235 NA
ATOM     18  C   LIG    1       25.991 -30.988   8.251  0.00  0.00    +0.064 A 
ATOM     19  O   LIG    1       23.996 -33.772   7.309  0.00  0.00    -0.271 OA
ENDROOT
BRANCH   1  20
ATOM     20  C   LIG    1       23.877 -32.633   9.410  0.00  0.00    +0.184 C 
BRANCH  20  25
ATOM     21  C   LIG    1       20.257 -30.645  11.957  0.00  0.00    +0.105 C 
ATOM     22  N   LIG    1       21.485 -31.436  12.030  0.00  0.00    -0.303 NA
ATOM     23  C   LIG    1       21.357 -32.700  11.279  0.00  0.00    +0.099 C 
ATOM     24  C   LIG    1       21.469 -32.565   9.739  0.00  0.00    +0.100 C 
ATOM     25  N   LIG    1       22.650 -31.814   9.265  0.00  0.00    -0.291 NA
ATOM     26  C   LIG    1       22.733 -30.535  10.002  0.00  0.00    +0.100 C 
ATOM     27  C   LIG    1       22.647 -30.668  11.541  0.00  0.00    +0.099 C 
ENDBRANCH  20  25
ENDBRANCH   1  20
TORSDOF 2
ENDMDL
MODEL 4
REMARK VINA RESULT:      -6.7      7.643     10.713
REMARK  Name = *****
REMARK                            x       y       z     vdW  Elec       q    Type
REMARK                         _______ _______ _______ _____ _____    ______ ____
ROOT
ATOM      1  C   LIG    1       25.038 -31.764   8.414  0.00  0.00    +0.247 C 
ATOM      2  N   LIG    1       24.287 -30.580   8.434  0.00  0.00    -0.262 N 
ATOM      3  C   LIG    1       23.531 -30.355   9.607  0.00  0.00    +0.164 A 
ATOM      4  C   LIG    1       24.141 -29.866  10.770  0.00  0.00    +0.085 A 
ATOM      5  C   LIG    1       23.399 -29.895  11.952  0.00  0.00    +0.031 A 
ATOM      6  C   LIG    1       22.079 -30.340  11.930  0.00  0.00    +0.022 A 
ATOM      7  C   LIG    1       21.547 -30.757  10.724  0.00  0.00    +0.113 A 
ATOM      8  N   LIG    1       25.464 -29.394  10.844  0.00  0.00    -0.319 N 
ATOM      9  H   LIG    1       25.884 -29.317  11.763  0.00  0.00    +0.169 HD
ATOM     10  C   LIG    1       26.266 -28.874   9.858  0.00  0.00    +0.258 A 
ATOM     11  O   LIG    1       27.414 -28.535  10.135  0.00  0.00    -0.267 OA
ATOM     12  C   LIG    1       25.737 -28.588   8.504  0.00  0.00    +0.063 A 
ATOM     13  C   LIG    1       26.235 -27.453   7.842  0.00  0.00    +0.015 A 
ATOM     14  C   LIG    1       25.775 -27.111   6.569  0.00  0.00    +0.001 A 
ATOM     15  C   LIG    1       24.817 -27.903   5.942  0.00  0.00    +0.002 A 
ATOM     16  C   LIG    1       24.329 -29.040   6.585  0.00  0.00    +0.027 A 
ATOM     17  N   LIG    1       22.241 -30.780   9.569  0.00  0.00    -0.235 NA
ATOM     18  C   LIG    1       24.794 -29.393   7.861  0.00  0.00    +0.064 A 
ATOM     19  O   LIG    1       24.947 -32.649   9.274  0.00  0.00    -0.271 OA
ENDROOT
BRANCH   1  20
ATOM     20  C   LIG    1       25.999 -31.975   7.233  0.00  0.00    +0.184 C 
BRANCH  20  25
ATOM     21  C   LIG    1       26.207 -33.803   2.742  0.00  0.00    +0.105 C 
ATOM     22  N   LIG    1       26.537 -32.659   3.590  0.00  0.00    -0.303 NA
ATOM     23  C   LIG    1       25.324 -32.049   4.169  0.00  0.00    +0.099 C 
ATOM     24  C   LIG    1       24.700 -32.822   5.359  0.00  0.00    +0.100 C 
ATOM     25  N   LIG    1       25.649 -33.175   6.436  0.00  0.00    -0.291 NA
ATOM     26  C   LIG    1       26.836 -33.821   5.836  0.00  0.00    +0.100 C 
ATOM     27  C   LIG    1       27.476 -33.040   4.664  0.00  0.00    +0.099 C 
ENDBRANCH  20  25
ENDBRANCH   1  20
TORSDOF 2
ENDMDL
MODEL 5
REMARK VINA RESULT:      -6.7      8.734     11.080
REMARK  Name = *****
REMARK                            x       y       z     vdW  Elec       q    Type
REMARK                         _______ _______ _______ _____ _____    ______ ____
ROOT
ATOM      1  C   LIG    1       27.067 -29.167  11.271  0.00  0.00    +0.247 C 
ATOM      2  N   LIG    1       26.450 -29.222  12.528  0.00  0.00    -0.262 N 
ATOM      3  C   LIG    1       27.322 -29.344  13.634  0.00  0.00    +0.164 A 
ATOM      4  C   LIG    1       28.006 -28.228  14.133  0.00  0.00    +0.085 A 
ATOM      5  C   LIG    1       29.026 -28.455  15.059  0.00  0.00    +0.031 A 
ATOM      6  C   LIG    1       29.286 -29.751  15.500  0.00  0.00    +0.022 A 
ATOM      7  C   LIG    1       28.524 -30.783  14.986  0.00  0.00    +0.113 A 
ATOM      8  N   LIG    1       27.775 -26.900  13.733  0.00  0.00    -0.319 N 
ATOM      9  H   LIG    1       28.488 -26.213  13.950  0.00  0.00    +0.169 HD
ATOM     10  C   LIG    1       26.646 -26.330  13.198  0.00  0.00    +0.258 A 
ATOM     11  O   LIG    1       26.661 -25.139  12.896  0.00  0.00    -0.267 OA
ATOM     12  C   LIG    1       25.373 -27.081  13.103  0.00  0.00    +0.063 A 
ATOM     13  C   LIG    1       24.183 -26.364  13.310  0.00  0.00    +0.015 A 
ATOM     14  C   LIG    1       22.944 -27.006  13.250  0.00  0.00    +0.001 A 
ATOM     15  C   LIG    1       22.882 -28.369  12.976  0.00  0.00    +0.002 A 
ATOM     16  C   LIG    1       24.058 -29.085  12.753  0.00  0.00    +0.027 A 
ATOM     17  N   LIG    1       27.557 -30.612  14.063  0.00  0.00    -0.235 NA
ATOM     18  C   LIG    1       25.305 -28.444  12.805  0.00  0.00    +0.064 A 
ATOM     19  O   LIG    1       28.275 -29.368  11.090  0.00  0.00    -0.271 OA
ENDROOT
BRANCH   1  20
ATOM     20  C   LIG    1       26.176 -28.873  10.053  0.00  0.00    +0.184 C 
BRANCH  20  25
ATOM     21  C   LIG    1       23.651 -32.045   7.386  0.00  0.00    +0.105 C 
ATOM     22  N   LIG    1       23.573 -31.014   8.420  0.00  0.00    -0.303 NA
ATOM     23  C   LIG    1       24.353 -31.390   9.616  0.00  0.00    +0.099 C 
ATOM     24  C   LIG    1       25.888 -31.219   9.483  0.00  0.00    +0.100 C 
ATOM     25  N   LIG    1       26.325 -29.896   8.991  0.00  0.00    -0.291 NA
ATOM     26  C   LIG    1       25.560 -29.561   7.771  0.00  0.00    +0.100 C 
ATOM     27  C   LIG    1       24.026 -29.705   7.908  0.00  0.00    +0.099 C 
ENDBRANCH  20  25
ENDBRANCH   1  20
TORSDOF 2
ENDMDL
MODEL 6
REMARK VINA RESULT:      -6.3      2.115      5.896
REMARK  Name = *****
REMARK                            x       y       z     vdW  Elec       q    Type
REMARK                         _______ _______ _______ _____ _____    ______ ____
ROOT
ATOM      1  C   LIG    1       25.086 -23.251   6.197  0.00  0.00    +0.247 C 
ATOM      2  N   LIG    1       25.570 -21.978   5.867  0.00  0.00    -0.262 N 
ATOM      3  C   LIG    1       24.587 -21.013   5.548  0.00  0.00    +0.164 A 
ATOM      4  C   LIG    1       23.866 -20.363   6.559  0.00  0.00    +0.085 A 
ATOM      5  C   LIG    1       22.754 -19.610   6.180  0.00  0.00    +0.031 A 
ATOM      6  C   LIG    1       22.436 -19.475   4.830  0.00  0.00    +0.022 A 
ATOM      7  C   LIG    1       23.236 -20.114   3.901  0.00  0.00    +0.113 A 
ATOM      8  N   LIG    1       24.152 -20.455   7.933  0.00  0.00    -0.319 N 
ATOM      9  H   LIG    1       23.427 -20.173   8.583  0.00  0.00    +0.169 HD
ATOM     10  C   LIG    1       25.336 -20.747   8.565  0.00  0.00    +0.258 A 
ATOM     11  O   LIG    1       25.364 -20.796   9.793  0.00  0.00    -0.267 OA
ATOM     12  C   LIG    1       26.604 -20.869   7.810  0.00  0.00    +0.063 A 
ATOM     13  C   LIG    1       27.774 -20.401   8.431  0.00  0.00    +0.015 A 
ATOM     14  C   LIG    1       29.005 -20.470   7.777  0.00  0.00    +0.001 A 
ATOM     15  C   LIG    1       29.081 -21.013   6.497  0.00  0.00    +0.002 A 
ATOM     16  C   LIG    1       27.927 -21.494   5.879  0.00  0.00    +0.027 A 
ATOM     17  N   LIG    1       24.295 -20.881   4.228  0.00  0.00    -0.235 NA
ATOM     18  C   LIG    1       26.688 -21.434   6.535  0.00  0.00    +0.064 A 
ATOM     19  O   LIG    1       23.901 -23.588   6.076  0.00  0.00    -0.271 OA
ENDROOT
BRANCH   1  20
ATOM     20  C   LIG    1       26.101 -24.288   6.706  0.00  0.00    +0.184 C 
BRANCH  20  25
ATOM     21  C   LIG    1       24.892 -28.793   5.368  0.00  0.00    +0.105 C 
ATOM     22  N   LIG    1       24.644 -27.716   6.325  0.00  0.00    -0.303 NA
ATOM     23  C   LIG    1       25.859 -27.391   7.099  0.00  0.00    +0.099 C 
ATOM     24  C   LIG    1       26.917 -26.549   6.342  0.00  0.00    +0.100 C 
ATOM     25  N   LIG    1       26.392 -25.330   5.693  0.00  0.00    -0.291 NA
ATOM     26  C   LIG    1       25.201 -25.687   4.892  0.00  0.00    +0.100 C 
ATOM     27  C   LIG    1       24.131 -26.506   5.652  0.00  0.00    +0.099 C 
ENDBRANCH  20  25
ENDBRANCH   1  20
TORSDOF 2
ENDMDL
