MODEL 1
REMARK VINA RESULT:       3.1      0.000      0.000
REMARK  Name = *****
REMARK                            x       y       z     vdW  Elec       q    Type
REMARK                         _______ _______ _______ _____ _____    ______ ____
ROOT
ATOM      1  C   LIG    1       26.852 -13.323   3.393  0.00  0.00    +0.132 C 
ATOM      2  C   LIG    1       26.449 -14.575   4.242  0.00  0.00    +0.014 C 
ATOM      3  C   LIG    1       24.880 -14.555   4.190  0.00  0.00    +0.002 C 
ATOM      4  C   LIG    1       24.154 -15.555   3.247  0.00  0.00    -0.003 C 
ATOM      5  C   LIG    1       24.864 -16.923   3.123  0.00  0.00    -0.000 C 
ATOM      6  C   LIG    1       26.297 -16.655   2.659  0.00  0.00    +0.005 C 
ATOM      7  C   LIG    1       24.722 -17.755   4.427  0.00  0.00    +0.019 C 
ATOM      8  C   LIG    1       23.239 -17.915   4.723  0.00  0.00    -0.064 C 
ATOM      9  C   LIG    1       22.597 -19.095   4.758  0.00  0.00    +0.026 C 
ATOM     10  C   LIG    1       23.307 -20.355   4.397  0.00  0.00    +0.080 C 
ATOM     11  C   LIG    1       24.655 -20.200   3.721  0.00  0.00    +0.059 C 
ATOM     12  N   LIG    1       22.855 -21.561   4.563  0.00  0.00    -0.092 NA
ATOM     13  C   LIG    1       22.503 -16.617   4.915  0.00  0.00    +0.031 C 
ATOM     14  C   LIG    1       25.451 -19.111   4.421  0.00  0.00    +0.014 C 
ATOM     15  C   LIG    1       22.676 -15.742   3.668  0.00  0.00    +0.008 C 
ATOM     16  C   LIG    1       24.477 -13.103   3.821  0.00  0.00    +0.008 C 
ATOM     17  C   LIG    1       27.102 -15.882   3.693  0.00  0.00    +0.011 C 
ATOM     18  C   LIG    1       25.757 -12.291   3.662  0.00  0.00    +0.049 C 
ENDROOT
BRANCH   1  20
ATOM     19  C   LIG    1       29.274 -12.349   3.969  0.00  0.00    +0.007 C 
ATOM     20  C   LIG    1       28.186 -12.786   3.707  0.00  0.00    -0.070 C 
ENDBRANCH   1  20
BRANCH   1  21
ATOM     21  O   LIG    1       26.841 -13.628   1.997  0.00  0.00    -0.376 OA
ATOM     22  H   LIG    1       26.151 -13.097   1.570  0.00  0.00    +0.211 HD
ENDBRANCH   1  21
BRANCH  12  23
ATOM     23  O   LIG    1       21.603 -21.572   5.188  0.00  0.00    -0.409 OA
ATOM     24  H   LIG    1       21.109 -20.907   4.671  0.00  0.00    +0.328 HD
ENDBRANCH  12  23
BRANCH   2  25
ATOM     25  C   LIG    1       26.912 -14.501   5.751  0.00  0.00    +0.007 C 
ATOM     26  C   LIG    1       26.479 -13.325   6.615  0.00  0.00    +0.004 C 
ENDBRANCH   2  25
TORSDOF 4
ENDMDL
