MODEL 1
REMARK VINA RESULT:      14.8      0.000      0.000
REMARK  Name = *****
REMARK                            x       y       z     vdW  Elec       q    Type
REMARK                         _______ _______ _______ _____ _____    ______ ____
ROOT
ATOM      1  C   LIG    1       26.160 -13.870   3.792  0.00  0.00    +0.168 C 
ATOM      2  C   LIG    1       25.630 -15.003   4.753  0.00  0.00    +0.009 C 
ATOM      3  C   LIG    1       26.366 -14.933   6.129  0.00  0.00    +0.014 C 
ATOM      4  C   LIG    1       26.032 -16.327   4.045  0.00  0.00    +0.005 C 
ATOM      5  C   LIG    1       25.017 -16.817   2.980  0.00  0.00    -0.000 C 
ATOM      6  C   LIG    1       23.574 -16.952   3.532  0.00  0.00    +0.035 C 
ATOM      7  C   LIG    1       23.167 -15.569   4.088  0.00  0.00    +0.120 C 
ATOM      8  C   LIG    1       23.245 -18.261   4.373  0.00  0.00    +0.013 C 
ATOM      9  C   LIG    1       21.705 -18.508   4.309  0.00  0.00    +0.020 C 
ATOM     10  C   LIG    1       23.966 -19.511   3.790  0.00  0.00    -0.056 C 
ATOM     11  C   LIG    1       23.800 -20.700   4.417  0.00  0.00    +0.051 C 
ATOM     12  C   LIG    1       24.276 -20.594   5.850  0.00  0.00    +0.179 C 
ATOM     13  O   LIG    1       24.697 -21.572   6.452  0.00  0.00    -0.288 OA
ATOM     14  C   LIG    1       24.109 -19.275   6.520  0.00  0.00    +0.047 C 
ATOM     15  C   LIG    1       25.347 -19.307   3.204  0.00  0.00    +0.032 C 
ATOM     16  C   LIG    1       23.609 -18.217   5.853  0.00  0.00    -0.012 C 
ATOM     17  C   LIG    1       25.406 -18.118   2.271  0.00  0.00    +0.008 C 
ATOM     18  C   LIG    1       27.410 -15.978   3.465  0.00  0.00    +0.052 C 
ATOM     19  C   LIG    1       24.139 -14.958   5.099  0.00  0.00    +0.041 C 
ATOM     20  C   LIG    1       27.320 -14.516   3.018  0.00  0.00    +0.211 C 
ATOM     21  O   LIG    1       28.488 -13.802   3.418  0.00  0.00    -0.474 OA
ATOM     22  C   LIG    1       28.057 -12.849   4.264  0.00  0.00    +0.183 C 
ATOM     23  C   LIG    1       29.104 -11.976   4.853  0.00  0.00    +0.109 C 
ATOM     24  N   LIG    1       26.800 -12.767   4.553  0.00  0.00    -0.236 NA
ENDROOT
BRANCH   1  25
ATOM     25  C   LIG    1       25.136 -13.207   2.838  0.00  0.00    +0.202 C 
ATOM     26  O   LIG    1       24.689 -13.798   1.851  0.00  0.00    -0.291 OA
BRANCH  25  27
ATOM     27  C   LIG    1       24.708 -11.767   3.154  0.00  0.00    +0.308 C 
BRANCH  27  28
ATOM     28  O   LIG    1       23.454 -11.652   3.833  0.00  0.00    -0.457 OA
BRANCH  28  30
ATOM     29  C   LIG    1       22.196 -11.448   5.818  0.00  0.00    +0.136 C 
ATOM     30  C   LIG    1       23.543 -11.544   5.185  0.00  0.00    +0.304 C 
ATOM     31  O   LIG    1       24.571 -11.456   5.834  0.00  0.00    -0.251 OA
ENDBRANCH  28  30
ENDBRANCH  27  28
ENDBRANCH  25  27
ENDBRANCH   1  25
BRANCH   7  32
ATOM     32  O   LIG    1       21.868 -15.574   4.661  0.00  0.00    -0.391 OA
ATOM     33  H   LIG    1       21.666 -14.638   4.870  0.00  0.00    +0.210 HD
ENDBRANCH   7  32
TORSDOF 5
ENDMDL
