MODEL 1
REMARK VINA RESULT:     -10.6      0.000      0.000
REMARK  Name = *****
REMARK                            x       y       z     vdW  Elec       q    Type
REMARK                         _______ _______ _______ _____ _____    ______ ____
ROOT
ATOM      1  C   LIG    1       27.590 -20.684   6.701  0.00  0.00    +0.267 C 
ENDROOT
BRANCH   1   2
ATOM      2  C   LIG    1       28.923 -20.470   7.375  0.00  0.00    -0.007 A 
ATOM      3  C   LIG    1       29.528 -19.198   7.401  0.00  0.00    +0.053 A 
ATOM      4  C   LIG    1       30.723 -18.999   8.100  0.00  0.00    +0.129 A 
ATOM      5  C   LIG    1       31.292 -20.068   8.803  0.00  0.00    +0.046 A 
ATOM      6  C   LIG    1       30.747 -21.345   8.714  0.00  0.00    +0.004 A 
ATOM      7  C   LIG    1       29.567 -21.547   8.004  0.00  0.00    +0.007 A 
BRANCH   4   8
ATOM      8  O   LIG    1       31.279 -17.729   8.090  0.00  0.00    -0.456 OA
BRANCH   8   9
ATOM      9  C   LIG    1       31.600 -17.145   9.304  0.00  0.00    +0.128 A 
ATOM     10  C   LIG    1       30.794 -17.423  10.412  0.00  0.00    +0.046 A 
ATOM     11  C   LIG    1       31.103 -16.857  11.658  0.00  0.00    +0.004 A 
ATOM     12  C   LIG    1       32.225 -16.038  11.800  0.00  0.00    +0.000 A 
ATOM     13  C   LIG    1       33.024 -15.759  10.699  0.00  0.00    +0.004 A 
ATOM     14  C   LIG    1       32.685 -16.273   9.453  0.00  0.00    +0.046 A 
ENDBRANCH   8   9
ENDBRANCH   4   8
ENDBRANCH   1   2
BRANCH   1  15
ATOM     15  O   LIG    1       26.536 -20.144   7.506  0.00  0.00    -0.460 OA
BRANCH  15  16
ATOM     16  C   LIG    1       25.769 -21.048   8.175  0.00  0.00    +0.312 C 
ATOM     17  O   LIG    1       26.096 -21.687   9.151  0.00  0.00    -0.251 OA
BRANCH  16  20
ATOM     18  C   LIG    1       25.083 -23.301   6.113  0.00  0.00    +0.012 C 
ATOM     19  C   LIG    1       24.061 -22.295   6.587  0.00  0.00    -0.014 C 
ATOM     20  C   LIG    1       24.423 -21.155   7.537  0.00  0.00    +0.111 C 
ATOM     21  C   LIG    1       24.233 -20.875   6.063  0.00  0.00    +0.035 C 
ATOM     22  C   LIG    1       22.693 -22.907   6.786  0.00  0.00    +0.012 C 
BRANCH  21  23
ATOM     23  C   LIG    1       23.048 -20.141   5.587  0.00  0.00    +0.010 C 
ATOM     24  C   LIG    1       22.981 -19.294   4.547  0.00  0.00    +0.103 C 
ATOM     25 CL   LIG    1       21.477 -18.553   4.125  0.00  0.00    -0.071 Cl
ATOM     26 CL   LIG    1       24.357 -18.908   3.579  0.00  0.00    -0.071 Cl
ENDBRANCH  21  23
ENDBRANCH  16  20
ENDBRANCH  15  16
ENDBRANCH   1  15
TORSDOF 7
ENDMDL
MODEL 2
REMARK VINA RESULT:     -10.1      2.570      3.279
REMARK  Name = *****
REMARK                            x       y       z     vdW  Elec       q    Type
REMARK                         _______ _______ _______ _____ _____    ______ ____
ROOT
ATOM      1  C   LIG    1       27.915 -21.919   7.164  0.00  0.00    +0.267 C 
ENDROOT
BRANCH   1   2
ATOM      2  C   LIG    1       28.662 -20.651   6.828  0.00  0.00    -0.007 A 
ATOM      3  C   LIG    1       29.838 -20.296   7.516  0.00  0.00    +0.053 A 
ATOM      4  C   LIG    1       30.563 -19.162   7.137  0.00  0.00    +0.129 A 
ATOM      5  C   LIG    1       30.126 -18.403   6.044  0.00  0.00    +0.046 A 
ATOM      6  C   LIG    1       28.922 -18.698   5.412  0.00  0.00    +0.004 A 
ATOM      7  C   LIG    1       28.192 -19.818   5.801  0.00  0.00    +0.007 A 
BRANCH   4   8
ATOM      8  O   LIG    1       31.711 -18.855   7.850  0.00  0.00    -0.456 OA
BRANCH   8   9
ATOM      9  C   LIG    1       31.595 -18.026   8.954  0.00  0.00    +0.128 A 
ATOM     10  C   LIG    1       30.606 -18.311   9.901  0.00  0.00    +0.046 A 
ATOM     11  C   LIG    1       30.475 -17.498  11.036  0.00  0.00    +0.004 A 
ATOM     12  C   LIG    1       31.341 -16.422  11.236  0.00  0.00    +0.000 A 
ATOM     13  C   LIG    1       32.323 -16.137  10.295  0.00  0.00    +0.004 A 
ATOM     14  C   LIG    1       32.415 -16.908   9.142  0.00  0.00    +0.046 A 
ENDBRANCH   8   9
ENDBRANCH   4   8
ENDBRANCH   1   2
BRANCH   1  15
ATOM     15  O   LIG    1       27.346 -21.825   8.476  0.00  0.00    -0.460 OA
BRANCH  15  16
ATOM     16  C   LIG    1       25.989 -21.907   8.548  0.00  0.00    +0.312 C 
ATOM     17  O   LIG    1       25.295 -21.551   9.475  0.00  0.00    -0.251 OA
BRANCH  16  20
ATOM     18  C   LIG    1       23.706 -20.531   6.906  0.00  0.00    +0.012 C 
ATOM     19  C   LIG    1       24.380 -21.805   6.452  0.00  0.00    -0.014 C 
ATOM     20  C   LIG    1       25.442 -22.508   7.295  0.00  0.00    +0.111 C 
ATOM     21  C   LIG    1       24.034 -23.059   7.244  0.00  0.00    +0.035 C 
ATOM     22  C   LIG    1       24.597 -21.845   4.956  0.00  0.00    +0.012 C 
BRANCH  21  23
ATOM     23  C   LIG    1       23.744 -24.306   6.515  0.00  0.00    +0.010 C 
ATOM     24  C   LIG    1       24.584 -25.329   6.290  0.00  0.00    +0.103 C 
ATOM     25 CL   LIG    1       24.039 -26.729   5.436  0.00  0.00    -0.071 Cl
ATOM     26 CL   LIG    1       26.222 -25.317   6.835  0.00  0.00    -0.071 Cl
ENDBRANCH  21  23
ENDBRANCH  16  20
ENDBRANCH  15  16
ENDBRANCH   1  15
TORSDOF 7
ENDMDL
MODEL 3
REMARK VINA RESULT:      -9.7      2.223      2.793
REMARK  Name = *****
REMARK                            x       y       z     vdW  Elec       q    Type
REMARK                         _______ _______ _______ _____ _____    ______ ____
ROOT
ATOM      1  C   LIG    1       27.734 -20.618   6.412  0.00  0.00    +0.267 C 
ENDROOT
BRANCH   1   2
ATOM      2  C   LIG    1       29.005 -20.417   7.199  0.00  0.00    -0.007 A 
ATOM      3  C   LIG    1       29.626 -19.154   7.267  0.00  0.00    +0.053 A 
ATOM      4  C   LIG    1       30.757 -18.966   8.067  0.00  0.00    +0.129 A 
ATOM      5  C   LIG    1       31.245 -20.036   8.827  0.00  0.00    +0.046 A 
ATOM      6  C   LIG    1       30.690 -21.306   8.702  0.00  0.00    +0.004 A 
ATOM      7  C   LIG    1       29.573 -21.497   7.892  0.00  0.00    +0.007 A 
BRANCH   4   8
ATOM      8  O   LIG    1       31.332 -17.705   8.094  0.00  0.00    -0.456 OA
BRANCH   8   9
ATOM      9  C   LIG    1       31.645 -17.154   9.326  0.00  0.00    +0.128 A 
ATOM     10  C   LIG    1       30.869 -17.512  10.433  0.00  0.00    +0.046 A 
ATOM     11  C   LIG    1       31.171 -16.981  11.696  0.00  0.00    +0.004 A 
ATOM     12  C   LIG    1       32.256 -16.117  11.855  0.00  0.00    +0.000 A 
ATOM     13  C   LIG    1       33.025 -15.759  10.755  0.00  0.00    +0.004 A 
ATOM     14  C   LIG    1       32.691 -16.239   9.495  0.00  0.00    +0.046 A 
ENDBRANCH   8   9
ENDBRANCH   4   8
ENDBRANCH   1   2
BRANCH   1  15
ATOM     15  O   LIG    1       26.643 -19.945   7.052  0.00  0.00    -0.460 OA
BRANCH  15  16
ATOM     16  C   LIG    1       25.670 -20.742   7.575  0.00  0.00    +0.312 C 
ATOM     17  O   LIG    1       25.313 -20.776   8.732  0.00  0.00    -0.251 OA
BRANCH  16  20
ATOM     18  C   LIG    1       22.967 -20.003   6.179  0.00  0.00    +0.012 C 
ATOM     19  C   LIG    1       23.793 -21.201   5.770  0.00  0.00    -0.014 C 
ATOM     20  C   LIG    1       25.072 -21.594   6.505  0.00  0.00    +0.111 C 
ATOM     21  C   LIG    1       23.796 -22.370   6.747  0.00  0.00    +0.035 C 
ATOM     22  C   LIG    1       23.801 -21.415   4.274  0.00  0.00    +0.012 C 
BRANCH  21  23
ATOM     23  C   LIG    1       23.640 -23.738   6.222  0.00  0.00    +0.010 C 
ATOM     24  C   LIG    1       24.472 -24.777   6.404  0.00  0.00    +0.103 C 
ATOM     25 CL   LIG    1       24.092 -26.322   5.730  0.00  0.00    -0.071 Cl
ATOM     26 CL   LIG    1       25.933 -24.643   7.313  0.00  0.00    -0.071 Cl
ENDBRANCH  21  23
ENDBRANCH  16  20
ENDBRANCH  15  16
ENDBRANCH   1  15
TORSDOF 7
ENDMDL
MODEL 4
REMARK VINA RESULT:      -9.4      4.735      9.357
REMARK  Name = *****
REMARK                            x       y       z     vdW  Elec       q    Type
REMARK                         _______ _______ _______ _____ _____    ______ ____
ROOT
ATOM      1  C   LIG    1       22.701 -23.426   6.766  0.00  0.00    +0.267 C 
ENDROOT
BRANCH   1   2
ATOM      2  C   LIG    1       23.849 -24.386   6.571  0.00  0.00    -0.007 A 
ATOM      3  C   LIG    1       23.646 -25.654   5.992  0.00  0.00    +0.053 A 
ATOM      4  C   LIG    1       24.732 -26.498   5.743  0.00  0.00    +0.129 A 
ATOM      5  C   LIG    1       26.027 -26.055   6.042  0.00  0.00    +0.046 A 
ATOM      6  C   LIG    1       26.229 -24.840   6.690  0.00  0.00    +0.004 A 
ATOM      7  C   LIG    1       25.145 -24.007   6.953  0.00  0.00    +0.007 A 
BRANCH   4   8
ATOM      8  O   LIG    1       24.478 -27.737   5.176  0.00  0.00    -0.456 OA
BRANCH   8   9
ATOM      9  C   LIG    1       24.766 -28.870   5.919  0.00  0.00    +0.128 A 
ATOM     10  C   LIG    1       25.357 -29.960   5.273  0.00  0.00    +0.046 A 
ATOM     11  C   LIG    1       25.674 -31.114   6.003  0.00  0.00    +0.004 A 
ATOM     12  C   LIG    1       25.424 -31.170   7.375  0.00  0.00    +0.000 A 
ATOM     13  C   LIG    1       24.834 -30.089   8.018  0.00  0.00    +0.004 A 
ATOM     14  C   LIG    1       24.468 -28.968   7.283  0.00  0.00    +0.046 A 
ENDBRANCH   8   9
ENDBRANCH   4   8
ENDBRANCH   1   2
BRANCH   1  15
ATOM     15  O   LIG    1       23.195 -22.094   6.949  0.00  0.00    -0.460 OA
BRANCH  15  16
ATOM     16  C   LIG    1       22.937 -21.215   5.941  0.00  0.00    +0.312 C 
ATOM     17  O   LIG    1       21.892 -21.095   5.342  0.00  0.00    -0.251 OA
BRANCH  16  20
ATOM     18  C   LIG    1       24.334 -21.206   3.139  0.00  0.00    +0.012 C 
ATOM     19  C   LIG    1       24.786 -20.319   4.276  0.00  0.00    -0.014 C 
ATOM     20  C   LIG    1       24.145 -20.383   5.661  0.00  0.00    +0.111 C 
ATOM     21  C   LIG    1       25.496 -21.023   5.426  0.00  0.00    +0.035 C 
ATOM     22  C   LIG    1       25.203 -18.943   3.807  0.00  0.00    +0.012 C 
BRANCH  21  23
ATOM     23  C   LIG    1       26.718 -20.419   5.986  0.00  0.00    +0.010 C 
ATOM     24  C   LIG    1       27.057 -20.326   7.282  0.00  0.00    +0.103 C 
ATOM     25 CL   LIG    1       28.561 -19.607   7.737  0.00  0.00    -0.071 Cl
ATOM     26 CL   LIG    1       26.042 -20.916   8.547  0.00  0.00    -0.071 Cl
ENDBRANCH  21  23
ENDBRANCH  16  20
ENDBRANCH  15  16
ENDBRANCH   1  15
TORSDOF 7
ENDMDL
MODEL 5
REMARK VINA RESULT:      -9.2      7.017      9.688
REMARK  Name = *****
REMARK                            x       y       z     vdW  Elec       q    Type
REMARK                         _______ _______ _______ _____ _____    ______ ____
ROOT
ATOM      1  C   LIG    1       24.291 -26.929   6.002  0.00  0.00    +0.267 C 
ENDROOT
BRANCH   1   2
ATOM      2  C   LIG    1       24.579 -25.487   6.342  0.00  0.00    -0.007 A 
ATOM      3  C   LIG    1       23.614 -24.483   6.129  0.00  0.00    +0.053 A 
ATOM      4  C   LIG    1       23.865 -23.166   6.526  0.00  0.00    +0.129 A 
ATOM      5  C   LIG    1       25.072 -22.863   7.169  0.00  0.00    +0.046 A 
ATOM      6  C   LIG    1       26.064 -23.829   7.309  0.00  0.00    +0.004 A 
ATOM      7  C   LIG    1       25.819 -25.137   6.898  0.00  0.00    +0.007 A 
BRANCH   4   8
ATOM      8  O   LIG    1       22.885 -22.216   6.289  0.00  0.00    -0.456 OA
BRANCH   8   9
ATOM      9  C   LIG    1       23.165 -21.192   5.398  0.00  0.00    +0.128 A 
ATOM     10  C   LIG    1       22.463 -19.990   5.522  0.00  0.00    +0.046 A 
ATOM     11  C   LIG    1       22.736 -18.930   4.644  0.00  0.00    +0.004 A 
ATOM     12  C   LIG    1       23.722 -19.064   3.665  0.00  0.00    +0.000 A 
ATOM     13  C   LIG    1       24.418 -20.260   3.540  0.00  0.00    +0.004 A 
ATOM     14  C   LIG    1       24.107 -21.328   4.372  0.00  0.00    +0.046 A 
ENDBRANCH   8   9
ENDBRANCH   4   8
ENDBRANCH   1   2
BRANCH   1  15
ATOM     15  O   LIG    1       24.981 -27.798   6.908  0.00  0.00    -0.460 OA
BRANCH  15  16
ATOM     16  C   LIG    1       24.593 -29.103   6.899  0.00  0.00    +0.312 C 
ATOM     17  O   LIG    1       23.753 -29.599   6.180  0.00  0.00    -0.251 OA
BRANCH  16  20
ATOM     18  C   LIG    1       23.257 -30.198   9.510  0.00  0.00    +0.012 C 
ATOM     19  C   LIG    1       24.700 -30.476   9.156  0.00  0.00    -0.014 C 
ATOM     20  C   LIG    1       25.362 -29.877   7.917  0.00  0.00    +0.111 C 
ATOM     21  C   LIG    1       25.654 -29.296   9.283  0.00  0.00    +0.035 C 
ATOM     22  C   LIG    1       25.124 -31.883   9.513  0.00  0.00    +0.012 C 
BRANCH  21  23
ATOM     23  C   LIG    1       26.966 -29.504   9.921  0.00  0.00    +0.010 C 
ATOM     24  C   LIG    1       27.372 -29.037  11.113  0.00  0.00    +0.103 C 
ATOM     25 CL   LIG    1       28.949 -29.423  11.705  0.00  0.00    -0.071 Cl
ATOM     26 CL   LIG    1       26.366 -28.054  12.112  0.00  0.00    -0.071 Cl
ENDBRANCH  21  23
ENDBRANCH  16  20
ENDBRANCH  15  16
ENDBRANCH   1  15
TORSDOF 7
ENDMDL
MODEL 6
REMARK VINA RESULT:      -9.0      5.114      8.876
REMARK  Name = *****
REMARK                            x       y       z     vdW  Elec       q    Type
REMARK                         _______ _______ _______ _____ _____    ______ ____
ROOT
ATOM      1  C   LIG    1       25.913 -25.500   6.395  0.00  0.00    +0.267 C 
ENDROOT
BRANCH   1   2
ATOM      2  C   LIG    1       25.452 -26.932   6.516  0.00  0.00    -0.007 A 
ATOM      3  C   LIG    1       25.909 -27.757   7.561  0.00  0.00    +0.053 A 
ATOM      4  C   LIG    1       25.409 -29.055   7.706  0.00  0.00    +0.129 A 
ATOM      5  C   LIG    1       24.423 -29.513   6.823  0.00  0.00    +0.046 A 
ATOM      6  C   LIG    1       24.027 -28.736   5.739  0.00  0.00    +0.004 A 
ATOM      7  C   LIG    1       24.538 -27.450   5.584  0.00  0.00    +0.007 A 
BRANCH   4   8
ATOM      8  O   LIG    1       25.896 -29.828   8.749  0.00  0.00    -0.456 OA
BRANCH   8   9
ATOM      9  C   LIG    1       25.801 -29.326  10.037  0.00  0.00    +0.128 A 
ATOM     10  C   LIG    1       26.848 -28.538  10.524  0.00  0.00    +0.046 A 
ATOM     11  C   LIG    1       26.774 -28.004  11.818  0.00  0.00    +0.004 A 
ATOM     12  C   LIG    1       25.649 -28.236  12.612  0.00  0.00    +0.000 A 
ATOM     13  C   LIG    1       24.610 -29.021  12.130  0.00  0.00    +0.004 A 
ATOM     14  C   LIG    1       24.710 -29.598  10.869  0.00  0.00    +0.046 A 
ENDBRANCH   8   9
ENDBRANCH   4   8
ENDBRANCH   1   2
BRANCH   1  15
ATOM     15  O   LIG    1       25.016 -24.760   5.559  0.00  0.00    -0.460 OA
BRANCH  15  16
ATOM     16  C   LIG    1       24.135 -23.943   6.200  0.00  0.00    +0.312 C 
ATOM     17  O   LIG    1       23.191 -24.292   6.875  0.00  0.00    -0.251 OA
BRANCH  16  20
ATOM     18  C   LIG    1       25.583 -22.216   8.373  0.00  0.00    +0.012 C 
ATOM     19  C   LIG    1       25.264 -21.688   6.994  0.00  0.00    -0.014 C 
ATOM     20  C   LIG    1       24.493 -22.513   5.966  0.00  0.00    +0.111 C 
ATOM     21  C   LIG    1       23.794 -21.400   6.716  0.00  0.00    +0.035 C 
ATOM     22  C   LIG    1       26.364 -20.810   6.441  0.00  0.00    +0.012 C 
BRANCH  21  23
ATOM     23  C   LIG    1       23.429 -20.149   6.029  0.00  0.00    +0.010 C 
ATOM     24  C   LIG    1       22.441 -19.970   5.137  0.00  0.00    +0.103 C 
ATOM     25 CL   LIG    1       22.150 -18.405   4.465  0.00  0.00    -0.071 Cl
ATOM     26 CL   LIG    1       21.414 -21.259   4.625  0.00  0.00    -0.071 Cl
ENDBRANCH  21  23
ENDBRANCH  16  20
ENDBRANCH  15  16
ENDBRANCH   1  15
TORSDOF 7
ENDMDL
MODEL 7
REMARK VINA RESULT:      -9.0      5.648     10.593
REMARK  Name = *****
REMARK                            x       y       z     vdW  Elec       q    Type
REMARK                         _______ _______ _______ _____ _____    ______ ____
ROOT
ATOM      1  C   LIG    1       25.164 -25.682   5.079  0.00  0.00    +0.267 C 
ENDROOT
BRANCH   1   2
ATOM      2  C   LIG    1       25.139 -26.877   6.000  0.00  0.00    -0.007 A 
ATOM      3  C   LIG    1       24.351 -28.006   5.705  0.00  0.00    +0.053 A 
ATOM      4  C   LIG    1       24.402 -29.137   6.526  0.00  0.00    +0.129 A 
ATOM      5  C   LIG    1       25.271 -29.147   7.625  0.00  0.00    +0.046 A 
ATOM      6  C   LIG    1       25.989 -28.007   7.972  0.00  0.00    +0.004 A 
ATOM      7  C   LIG    1       25.925 -26.875   7.163  0.00  0.00    +0.007 A 
BRANCH   4   8
ATOM      8  O   LIG    1       23.603 -30.220   6.193  0.00  0.00    -0.456 OA
BRANCH   8   9
ATOM      9  C   LIG    1       24.222 -31.393   5.795  0.00  0.00    +0.128 A 
ATOM     10  C   LIG    1       23.650 -32.611   6.175  0.00  0.00    +0.046 A 
ATOM     11  C   LIG    1       24.246 -33.816   5.774  0.00  0.00    +0.004 A 
ATOM     12  C   LIG    1       25.394 -33.803   4.979  0.00  0.00    +0.000 A 
ATOM     13  C   LIG    1       25.965 -32.593   4.604  0.00  0.00    +0.004 A 
ATOM     14  C   LIG    1       25.406 -31.401   5.049  0.00  0.00    +0.046 A 
ENDBRANCH   8   9
ENDBRANCH   4   8
ENDBRANCH   1   2
BRANCH   1  15
ATOM     15  O   LIG    1       25.498 -24.498   5.812  0.00  0.00    -0.460 OA
BRANCH  15  16
ATOM     16  C   LIG    1       24.449 -23.735   6.228  0.00  0.00    +0.312 C 
ATOM     17  O   LIG    1       23.430 -24.135   6.747  0.00  0.00    -0.251 OA
BRANCH  16  20
ATOM     18  C   LIG    1       25.755 -21.867   8.374  0.00  0.00    +0.012 C 
ATOM     19  C   LIG    1       25.426 -21.395   6.977  0.00  0.00    -0.014 C 
ATOM     20  C   LIG    1       24.722 -22.292   5.961  0.00  0.00    +0.111 C 
ATOM     21  C   LIG    1       23.945 -21.205   6.671  0.00  0.00    +0.035 C 
ATOM     22  C   LIG    1       26.478 -20.465   6.416  0.00  0.00    +0.012 C 
BRANCH  21  23
ATOM     23  C   LIG    1       23.516 -19.996   5.946  0.00  0.00    +0.010 C 
ATOM     24  C   LIG    1       22.471 -19.880   5.110  0.00  0.00    +0.103 C 
ATOM     25 CL   LIG    1       22.110 -18.356   4.379  0.00  0.00    -0.071 Cl
ATOM     26 CL   LIG    1       21.439 -21.209   4.729  0.00  0.00    -0.071 Cl
ENDBRANCH  21  23
ENDBRANCH  16  20
ENDBRANCH  15  16
ENDBRANCH   1  15
TORSDOF 7
ENDMDL
MODEL 8
REMARK VINA RESULT:      -8.8      3.351      8.581
REMARK  Name = *****
REMARK                            x       y       z     vdW  Elec       q    Type
REMARK                         _______ _______ _______ _____ _____    ______ ____
ROOT
ATOM      1  C   LIG    1       26.610 -19.676   4.326  0.00  0.00    +0.267 C 
ENDROOT
BRANCH   1   2
ATOM      2  C   LIG    1       25.308 -20.180   4.897  0.00  0.00    -0.007 A 
ATOM      3  C   LIG    1       25.284 -21.236   5.829  0.00  0.00    +0.053 A 
ATOM      4  C   LIG    1       24.077 -21.637   6.411  0.00  0.00    +0.129 A 
ATOM      5  C   LIG    1       22.899 -20.954   6.084  0.00  0.00    +0.046 A 
ATOM      6  C   LIG    1       22.900 -19.966   5.104  0.00  0.00    +0.004 A 
ATOM      7  C   LIG    1       24.099 -19.579   4.512  0.00  0.00    +0.007 A 
BRANCH   4   8
ATOM      8  O   LIG    1       24.108 -22.685   7.318  0.00  0.00    -0.456 OA
BRANCH   8   9
ATOM      9  C   LIG    1       24.541 -23.923   6.875  0.00  0.00    +0.128 A 
ATOM     10  C   LIG    1       23.603 -24.801   6.323  0.00  0.00    +0.046 A 
ATOM     11  C   LIG    1       24.016 -26.056   5.853  0.00  0.00    +0.004 A 
ATOM     12  C   LIG    1       25.361 -26.422   5.911  0.00  0.00    +0.000 A 
ATOM     13  C   LIG    1       26.294 -25.552   6.463  0.00  0.00    +0.004 A 
ATOM     14  C   LIG    1       25.876 -24.332   6.981  0.00  0.00    +0.046 A 
ENDBRANCH   8   9
ENDBRANCH   4   8
ENDBRANCH   1   2
BRANCH   1  15
ATOM     15  O   LIG    1       27.673 -19.874   5.266  0.00  0.00    -0.460 OA
BRANCH  15  16
ATOM     16  C   LIG    1       28.545 -18.838   5.411  0.00  0.00    +0.312 C 
ATOM     17  O   LIG    1       28.516 -17.784   4.814  0.00  0.00    -0.251 OA
BRANCH  16  20
ATOM     18  C   LIG    1       27.797 -20.171   8.143  0.00  0.00    +0.012 C 
ATOM     19  C   LIG    1       29.226 -19.888   7.740  0.00  0.00    -0.014 C 
ATOM     20  C   LIG    1       29.576 -19.172   6.438  0.00  0.00    +0.111 C 
ATOM     21  C   LIG    1       29.641 -18.423   7.751  0.00  0.00    +0.035 C 
ATOM     22  C   LIG    1       30.175 -20.986   8.163  0.00  0.00    +0.012 C 
BRANCH  21  23
ATOM     23  C   LIG    1       30.941 -18.054   8.339  0.00  0.00    +0.010 C 
ATOM     24  C   LIG    1       31.173 -17.625   9.590  0.00  0.00    +0.103 C 
ATOM     25 CL   LIG    1       32.786 -17.272  10.102  0.00  0.00    -0.071 Cl
ATOM     26 CL   LIG    1       29.908 -17.414  10.745  0.00  0.00    -0.071 Cl
ENDBRANCH  21  23
ENDBRANCH  16  20
ENDBRANCH  15  16
ENDBRANCH   1  15
TORSDOF 7
ENDMDL
MODEL 9
REMARK VINA RESULT:      -8.8      5.237      7.516
REMARK  Name = *****
REMARK                            x       y       z     vdW  Elec       q    Type
REMARK                         _______ _______ _______ _____ _____    ______ ____
ROOT
ATOM      1  C   LIG    1       24.378 -24.822   6.459  0.00  0.00    +0.267 C 
ENDROOT
BRANCH   1   2
ATOM      2  C   LIG    1       24.579 -23.425   6.991  0.00  0.00    -0.007 A 
ATOM      3  C   LIG    1       25.833 -23.006   7.478  0.00  0.00    +0.053 A 
ATOM      4  C   LIG    1       26.024 -21.683   7.890  0.00  0.00    +0.129 A 
ATOM      5  C   LIG    1       24.965 -20.772   7.781  0.00  0.00    +0.046 A 
ATOM      6  C   LIG    1       23.702 -21.196   7.381  0.00  0.00    +0.004 A 
ATOM      7  C   LIG    1       23.508 -22.517   6.986  0.00  0.00    +0.007 A 
BRANCH   4   8
ATOM      8  O   LIG    1       27.275 -21.323   8.366  0.00  0.00    -0.456 OA
BRANCH   8   9
ATOM      9  C   LIG    1       28.035 -20.444   7.612  0.00  0.00    +0.128 A 
ATOM     10  C   LIG    1       27.731 -20.294   6.255  0.00  0.00    +0.046 A 
ATOM     11  C   LIG    1       28.474 -19.400   5.470  0.00  0.00    +0.004 A 
ATOM     12  C   LIG    1       29.497 -18.643   6.043  0.00  0.00    +0.000 A 
ATOM     13  C   LIG    1       29.801 -18.794   7.390  0.00  0.00    +0.004 A 
ATOM     14  C   LIG    1       29.104 -19.721   8.154  0.00  0.00    +0.046 A 
ENDBRANCH   8   9
ENDBRANCH   4   8
ENDBRANCH   1   2
BRANCH   1  15
ATOM     15  O   LIG    1       25.523 -25.633   6.750  0.00  0.00    -0.460 OA
BRANCH  15  16
ATOM     16  C   LIG    1       25.883 -26.529   5.791  0.00  0.00    +0.312 C 
ATOM     17  O   LIG    1       26.050 -26.294   4.614  0.00  0.00    -0.251 OA
BRANCH  16  20
ATOM     18  C   LIG    1       23.727 -28.776   5.477  0.00  0.00    +0.012 C 
ATOM     19  C   LIG    1       25.045 -29.006   6.179  0.00  0.00    -0.014 C 
ATOM     20  C   LIG    1       26.059 -27.884   6.391  0.00  0.00    +0.111 C 
ATOM     21  C   LIG    1       25.195 -28.346   7.543  0.00  0.00    +0.035 C 
ATOM     22  C   LIG    1       25.626 -30.372   5.889  0.00  0.00    +0.012 C 
BRANCH  21  23
ATOM     23  C   LIG    1       25.778 -29.123   8.652  0.00  0.00    +0.010 C 
ATOM     24  C   LIG    1       25.134 -29.954   9.487  0.00  0.00    +0.103 C 
ATOM     25 CL   LIG    1       26.008 -30.805  10.711  0.00  0.00    -0.071 Cl
ATOM     26 CL   LIG    1       23.433 -30.231   9.386  0.00  0.00    -0.071 Cl
ENDBRANCH  21  23
ENDBRANCH  16  20
ENDBRANCH  15  16
ENDBRANCH   1  15
TORSDOF 7
ENDMDL
