MODEL 1
REMARK VINA RESULT:      -5.2      0.000      0.000
REMARK  Name = *****
REMARK                            x       y       z     vdW  Elec       q    Type
REMARK                         _______ _______ _______ _____ _____    ______ ____
ROOT
ATOM      1  C   LIG    1       24.479 -13.085   2.625  0.00  0.00    +0.036 C 
ATOM      2  C   LIG    1       25.309 -13.908   3.610  0.00  0.00    +0.140 C 
ENDROOT
BRANCH   2   3
ATOM      3  C   LIG    1       24.758 -15.312   3.761  0.00  0.00    +0.013 A 
ATOM      4  S   LIG    1       23.176 -15.540   4.372  0.00  0.00    -0.091 S 
ATOM      5  C   LIG    1       23.278 -17.254   4.260  0.00  0.00    +0.020 A 
ATOM      6  C   LIG    1       24.509 -17.658   3.741  0.00  0.00    -0.011 A 
ATOM      7  C   LIG    1       24.751 -19.046   3.594  0.00  0.00    +0.009 A 
ATOM      8  C   LIG    1       23.780 -19.979   3.975  0.00  0.00    +0.001 A 
ATOM      9  C   LIG    1       22.563 -19.552   4.486  0.00  0.00    +0.001 A 
ATOM     10  C   LIG    1       22.291 -18.190   4.628  0.00  0.00    +0.015 A 
ATOM     11  C   LIG    1       25.340 -16.525   3.442  0.00  0.00    +0.021 A 
ENDBRANCH   2   3
BRANCH   2  12
ATOM     12  N   LIG    1       26.735 -13.970   3.240  0.00  0.00    -0.160 N 
ATOM     13  C   LIG    1       27.740 -13.432   4.015  0.00  0.00    +0.323 C 
ATOM     14  O   LIG    1       27.622 -13.098   5.187  0.00  0.00    -0.251 OA
ATOM     15  N   LIG    1       28.946 -13.345   3.379  0.00  0.00    -0.312 N 
ATOM     16  H   LIG    1       29.668 -12.862   3.887  0.00  0.00    +0.146 HD
ATOM     17  H   LIG    1       28.889 -13.192   2.383  0.00  0.00    +0.146 HD
BRANCH  12  18
ATOM     18  O   LIG    1       26.985 -14.039   1.844  0.00  0.00    -0.291 OA
ATOM     19  H   LIG    1       26.753 -14.974   1.681  0.00  0.00    +0.242 HD
ENDBRANCH  12  18
ENDBRANCH   2  12
TORSDOF 3
ENDMDL
MODEL 2
REMARK VINA RESULT:      -5.1      0.852      1.529
REMARK  Name = *****
REMARK                            x       y       z     vdW  Elec       q    Type
REMARK                         _______ _______ _______ _____ _____    ______ ____
ROOT
ATOM      1  C   LIG    1       24.556 -12.983   2.497  0.00  0.00    +0.036 C 
ATOM      2  C   LIG    1       25.335 -13.780   3.543  0.00  0.00    +0.140 C 
ENDROOT
BRANCH   2   3
ATOM      3  C   LIG    1       24.750 -15.166   3.732  0.00  0.00    +0.013 A 
ATOM      4  S   LIG    1       25.696 -16.543   3.353  0.00  0.00    -0.091 S 
ATOM      5  C   LIG    1       24.442 -17.639   3.786  0.00  0.00    +0.020 A 
ATOM      6  C   LIG    1       23.308 -16.963   4.237  0.00  0.00    -0.011 A 
ATOM      7  C   LIG    1       22.182 -17.730   4.625  0.00  0.00    +0.009 A 
ATOM      8  C   LIG    1       22.213 -19.126   4.542  0.00  0.00    +0.001 A 
ATOM      9  C   LIG    1       23.354 -19.776   4.093  0.00  0.00    +0.001 A 
ATOM     10  C   LIG    1       24.484 -19.047   3.718  0.00  0.00    +0.015 A 
ATOM     11  C   LIG    1       23.512 -15.542   4.216  0.00  0.00    +0.021 A 
ENDBRANCH   2   3
BRANCH   2  12
ATOM     12  N   LIG    1       26.771 -13.885   3.227  0.00  0.00    -0.160 N 
ATOM     13  C   LIG    1       27.763 -13.393   4.047  0.00  0.00    +0.323 C 
ATOM     14  O   LIG    1       27.611 -13.071   5.219  0.00  0.00    -0.251 OA
ATOM     15  N   LIG    1       28.994 -13.338   3.459  0.00  0.00    -0.312 N 
ATOM     16  H   LIG    1       29.712 -12.886   4.002  0.00  0.00    +0.146 HD
ATOM     17  H   LIG    1       28.981 -13.168   2.464  0.00  0.00    +0.146 HD
BRANCH  12  18
ATOM     18  O   LIG    1       27.072 -13.943   1.840  0.00  0.00    -0.291 OA
ATOM     19  H   LIG    1       27.302 -13.008   1.683  0.00  0.00    +0.242 HD
ENDBRANCH  12  18
ENDBRANCH   2  12
TORSDOF 3
ENDMDL
MODEL 3
REMARK VINA RESULT:      -4.2      1.857      2.933
REMARK  Name = *****
REMARK                            x       y       z     vdW  Elec       q    Type
REMARK                         _______ _______ _______ _____ _____    ______ ____
ROOT
ATOM      1  C   LIG    1       27.311 -14.899   3.650  0.00  0.00    +0.036 C 
ATOM      2  C   LIG    1       25.824 -14.848   3.300  0.00  0.00    +0.140 C 
ENDROOT
BRANCH   2   3
ATOM      3  C   LIG    1       25.146 -16.177   3.569  0.00  0.00    +0.013 A 
ATOM      4  S   LIG    1       26.003 -17.634   3.300  0.00  0.00    -0.091 S 
ATOM      5  C   LIG    1       24.673 -18.615   3.782  0.00  0.00    +0.020 A 
ATOM      6  C   LIG    1       23.580 -17.837   4.167  0.00  0.00    -0.011 A 
ATOM      7  C   LIG    1       22.401 -18.501   4.585  0.00  0.00    +0.009 A 
ATOM      8  C   LIG    1       22.340 -19.898   4.597  0.00  0.00    +0.001 A 
ATOM      9  C   LIG    1       23.441 -20.650   4.212  0.00  0.00    +0.001 A 
ATOM     10  C   LIG    1       24.622 -20.023   3.809  0.00  0.00    +0.015 A 
ATOM     11  C   LIG    1       23.878 -16.437   4.056  0.00  0.00    +0.021 A 
ENDBRANCH   2   3
BRANCH   2  12
ATOM     12  N   LIG    1       25.108 -13.772   4.010  0.00  0.00    -0.160 N 
ATOM     13  C   LIG    1       24.238 -12.904   3.385  0.00  0.00    +0.323 C 
ATOM     14  O   LIG    1       23.750 -13.075   2.276  0.00  0.00    -0.251 OA
ATOM     15  N   LIG    1       23.895 -11.821   4.143  0.00  0.00    -0.312 N 
ATOM     16  H   LIG    1       23.344 -11.122   3.672  0.00  0.00    +0.146 HD
ATOM     17  H   LIG    1       24.612 -11.504   4.778  0.00  0.00    +0.146 HD
BRANCH  12  18
ATOM     18  O   LIG    1       25.771 -13.277   5.164  0.00  0.00    -0.291 OA
ATOM     19  H   LIG    1       25.249 -13.723   5.858  0.00  0.00    +0.242 HD
ENDBRANCH  12  18
ENDBRANCH   2  12
TORSDOF 3
ENDMDL
MODEL 4
REMARK VINA RESULT:      -4.1      3.845      5.704
REMARK  Name = *****
REMARK                            x       y       z     vdW  Elec       q    Type
REMARK                         _______ _______ _______ _____ _____    ______ ____
ROOT
ATOM      1  C   LIG    1       23.891 -20.490   3.331  0.00  0.00    +0.036 C 
ATOM      2  C   LIG    1       25.254 -19.837   3.554  0.00  0.00    +0.140 C 
ENDROOT
BRANCH   2   3
ATOM      3  C   LIG    1       25.144 -18.326   3.596  0.00  0.00    +0.013 A 
ATOM      4  S   LIG    1       23.676 -17.597   4.090  0.00  0.00    -0.091 S 
ATOM      5  C   LIG    1       24.288 -16.002   3.882  0.00  0.00    +0.020 A 
ATOM      6  C   LIG    1       25.616 -16.019   3.454  0.00  0.00    -0.011 A 
ATOM      7  C   LIG    1       26.262 -14.779   3.228  0.00  0.00    +0.009 A 
ATOM      8  C   LIG    1       25.575 -13.576   3.421  0.00  0.00    +0.001 A 
ATOM      9  C   LIG    1       24.255 -13.585   3.850  0.00  0.00    +0.001 A 
ATOM     10  C   LIG    1       23.597 -14.792   4.095  0.00  0.00    +0.015 A 
ATOM     11  C   LIG    1       26.097 -17.365   3.314  0.00  0.00    +0.021 A 
ENDBRANCH   2   3
BRANCH   2  12
ATOM     12  N   LIG    1       25.924 -20.321   4.775  0.00  0.00    -0.160 N 
ATOM     13  C   LIG    1       25.281 -20.452   5.988  0.00  0.00    +0.323 C 
ATOM     14  O   LIG    1       24.066 -20.455   6.142  0.00  0.00    -0.251 OA
ATOM     15  N   LIG    1       26.122 -20.645   7.045  0.00  0.00    -0.312 N 
ATOM     16  H   LIG    1       25.685 -20.640   7.952  0.00  0.00    +0.146 HD
ATOM     17  H   LIG    1       27.023 -20.198   6.956  0.00  0.00    +0.146 HD
BRANCH  12  18
ATOM     18  O   LIG    1       27.320 -20.070   4.828  0.00  0.00    -0.291 OA
ATOM     19  H   LIG    1       27.653 -20.912   4.462  0.00  0.00    +0.242 HD
ENDBRANCH  12  18
ENDBRANCH   2  12
TORSDOF 3
ENDMDL
MODEL 5
REMARK VINA RESULT:      -3.9      3.929      5.760
REMARK  Name = *****
REMARK                            x       y       z     vdW  Elec       q    Type
REMARK                         _______ _______ _______ _____ _____    ______ ____
ROOT
ATOM      1  C   LIG    1       24.162 -20.260   2.925  0.00  0.00    +0.036 C 
ATOM      2  C   LIG    1       25.298 -19.648   3.744  0.00  0.00    +0.140 C 
ENDROOT
BRANCH   2   3
ATOM      3  C   LIG    1       25.282 -18.134   3.668  0.00  0.00    +0.013 A 
ATOM      4  S   LIG    1       23.854 -17.280   4.070  0.00  0.00    -0.091 S 
ATOM      5  C   LIG    1       24.568 -15.747   3.754  0.00  0.00    +0.020 A 
ATOM      6  C   LIG    1       25.900 -15.878   3.359  0.00  0.00    -0.011 A 
ATOM      7  C   LIG    1       26.627 -14.701   3.054  0.00  0.00    +0.009 A 
ATOM      8  C   LIG    1       26.013 -13.447   3.138  0.00  0.00    +0.001 A 
ATOM      9  C   LIG    1       24.688 -13.343   3.536  0.00  0.00    +0.001 A 
ATOM     10  C   LIG    1       23.951 -14.484   3.857  0.00  0.00    +0.015 A 
ATOM     11  C   LIG    1       26.298 -17.258   3.334  0.00  0.00    +0.021 A 
ENDBRANCH   2   3
BRANCH   2  12
ATOM     12  N   LIG    1       25.276 -20.074   5.155  0.00  0.00    -0.160 N 
ATOM     13  C   LIG    1       26.417 -20.356   5.877  0.00  0.00    +0.323 C 
ATOM     14  O   LIG    1       27.552 -20.035   5.550  0.00  0.00    -0.251 OA
ATOM     15  N   LIG    1       26.182 -20.993   7.062  0.00  0.00    -0.312 N 
ATOM     16  H   LIG    1       27.002 -21.300   7.556  0.00  0.00    +0.146 HD
ATOM     17  H   LIG    1       25.377 -21.602   7.063  0.00  0.00    +0.146 HD
BRANCH  12  18
ATOM     18  O   LIG    1       24.096 -20.756   5.553  0.00  0.00    -0.291 OA
ATOM     19  H   LIG    1       23.476 -20.420   4.877  0.00  0.00    +0.242 HD
ENDBRANCH  12  18
ENDBRANCH   2  12
TORSDOF 3
ENDMDL
MODEL 6
REMARK VINA RESULT:      -3.9      4.045      6.141
REMARK  Name = *****
REMARK                            x       y       z     vdW  Elec       q    Type
REMARK                         _______ _______ _______ _____ _____    ______ ____
ROOT
ATOM      1  C   LIG    1       21.675 -18.823   4.028  0.00  0.00    +0.036 C 
ATOM      2  C   LIG    1       23.196 -18.970   3.999  0.00  0.00    +0.140 C 
ENDROOT
BRANCH   2   3
ATOM      3  C   LIG    1       23.881 -17.620   3.914  0.00  0.00    +0.013 A 
ATOM      4  S   LIG    1       25.492 -17.523   3.343  0.00  0.00    -0.091 S 
ATOM      5  C   LIG    1       25.556 -15.813   3.535  0.00  0.00    +0.020 A 
ATOM      6  C   LIG    1       24.347 -15.310   4.016  0.00  0.00    -0.011 A 
ATOM      7  C   LIG    1       24.243 -13.914   4.235  0.00  0.00    +0.009 A 
ATOM      8  C   LIG    1       25.333 -13.074   3.985  0.00  0.00    +0.001 A 
ATOM      9  C   LIG    1       26.525 -13.599   3.503  0.00  0.00    +0.001 A 
ATOM     10  C   LIG    1       26.651 -14.968   3.264  0.00  0.00    +0.015 A 
ATOM     11  C   LIG    1       23.389 -16.362   4.210  0.00  0.00    +0.021 A 
ENDBRANCH   2   3
BRANCH   2  12
ATOM     12  N   LIG    1       23.717 -19.719   5.157  0.00  0.00    -0.160 N 
ATOM     13  C   LIG    1       24.699 -20.682   5.053  0.00  0.00    +0.323 C 
ATOM     14  O   LIG    1       25.432 -20.837   4.084  0.00  0.00    -0.251 OA
ATOM     15  N   LIG    1       24.847 -21.448   6.173  0.00  0.00    -0.312 N 
ATOM     16  H   LIG    1       25.484 -22.222   6.086  0.00  0.00    +0.146 HD
ATOM     17  H   LIG    1       23.999 -21.595   6.701  0.00  0.00    +0.146 HD
BRANCH  12  18
ATOM     18  O   LIG    1       22.801 -19.868   6.231  0.00  0.00    -0.291 OA
ATOM     19  H   LIG    1       22.990 -20.793   6.481  0.00  0.00    +0.242 HD
ENDBRANCH  12  18
ENDBRANCH   2  12
TORSDOF 3
ENDMDL
MODEL 7
REMARK VINA RESULT:      -3.7      3.911      5.879
REMARK  Name = *****
REMARK                            x       y       z     vdW  Elec       q    Type
REMARK                         _______ _______ _______ _____ _____    ______ ____
ROOT
ATOM      1  C   LIG    1       23.706 -20.311   3.287  0.00  0.00    +0.036 C 
ATOM      2  C   LIG    1       25.091 -19.716   3.541  0.00  0.00    +0.140 C 
ENDROOT
BRANCH   2   3
ATOM      3  C   LIG    1       25.036 -18.203   3.625  0.00  0.00    +0.013 A 
ATOM      4  S   LIG    1       26.429 -17.283   3.244  0.00  0.00    -0.091 S 
ATOM      5  C   LIG    1       25.641 -15.785   3.559  0.00  0.00    +0.020 A 
ATOM      6  C   LIG    1       24.312 -15.979   3.938  0.00  0.00    -0.011 A 
ATOM      7  C   LIG    1       23.528 -14.839   4.239  0.00  0.00    +0.009 A 
ATOM      8  C   LIG    1       24.085 -13.558   4.169  0.00  0.00    +0.001 A 
ATOM      9  C   LIG    1       25.409 -13.390   3.788  0.00  0.00    +0.001 A 
ATOM     10  C   LIG    1       26.201 -14.495   3.470  0.00  0.00    +0.015 A 
ATOM     11  C   LIG    1       23.977 -17.376   3.951  0.00  0.00    +0.021 A 
ENDBRANCH   2   3
BRANCH   2  12
ATOM     12  N   LIG    1       25.730 -20.258   4.753  0.00  0.00    -0.160 N 
ATOM     13  C   LIG    1       25.072 -20.392   5.958  0.00  0.00    +0.323 C 
ATOM     14  O   LIG    1       23.857 -20.348   6.105  0.00  0.00    -0.251 OA
ATOM     15  N   LIG    1       25.897 -20.647   7.016  0.00  0.00    -0.312 N 
ATOM     16  H   LIG    1       25.454 -20.647   7.919  0.00  0.00    +0.146 HD
ATOM     17  H   LIG    1       26.817 -20.238   6.944  0.00  0.00    +0.146 HD
BRANCH  12  18
ATOM     18  O   LIG    1       27.135 -20.068   4.822  0.00  0.00    -0.291 OA
ATOM     19  H   LIG    1       27.435 -20.948   4.522  0.00  0.00    +0.242 HD
ENDBRANCH  12  18
ENDBRANCH   2  12
TORSDOF 3
ENDMDL
MODEL 8
REMARK VINA RESULT:      -3.6      4.032      5.903
REMARK  Name = *****
REMARK                            x       y       z     vdW  Elec       q    Type
REMARK                         _______ _______ _______ _____ _____    ______ ____
ROOT
ATOM      1  C   LIG    1       23.965 -20.335   2.984  0.00  0.00    +0.036 C 
ATOM      2  C   LIG    1       25.133 -19.713   3.749  0.00  0.00    +0.140 C 
ENDROOT
BRANCH   2   3
ATOM      3  C   LIG    1       25.063 -18.199   3.732  0.00  0.00    +0.013 A 
ATOM      4  S   LIG    1       26.446 -17.292   3.290  0.00  0.00    -0.091 S 
ATOM      5  C   LIG    1       25.643 -15.785   3.503  0.00  0.00    +0.020 A 
ATOM      6  C   LIG    1       24.315 -15.967   3.893  0.00  0.00    -0.011 A 
ATOM      7  C   LIG    1       23.520 -14.817   4.118  0.00  0.00    +0.009 A 
ATOM      8  C   LIG    1       24.064 -13.537   3.962  0.00  0.00    +0.001 A 
ATOM      9  C   LIG    1       25.386 -13.382   3.570  0.00  0.00    +0.001 A 
ATOM     10  C   LIG    1       26.190 -14.498   3.328  0.00  0.00    +0.015 A 
ATOM     11  C   LIG    1       23.995 -17.363   4.001  0.00  0.00    +0.021 A 
ENDBRANCH   2   3
BRANCH   2  12
ATOM     12  N   LIG    1       25.221 -20.190   5.141  0.00  0.00    -0.160 N 
ATOM     13  C   LIG    1       26.417 -20.382   5.799  0.00  0.00    +0.323 C 
ATOM     14  O   LIG    1       27.499 -19.938   5.436  0.00  0.00    -0.251 OA
ATOM     15  N   LIG    1       26.303 -21.082   6.966  0.00  0.00    -0.312 N 
ATOM     16  H   LIG    1       27.173 -21.324   7.411  0.00  0.00    +0.146 HD
ATOM     17  H   LIG    1       25.563 -21.768   6.978  0.00  0.00    +0.146 HD
BRANCH  12  18
ATOM     18  O   LIG    1       24.134 -21.001   5.562  0.00  0.00    -0.291 OA
ATOM     19  H   LIG    1       23.400 -20.539   5.112  0.00  0.00    +0.242 HD
ENDBRANCH  12  18
ENDBRANCH   2  12
TORSDOF 3
ENDMDL
MODEL 9
REMARK VINA RESULT:      -2.3      4.144      6.323
REMARK  Name = *****
REMARK                            x       y       z     vdW  Elec       q    Type
REMARK                         _______ _______ _______ _____ _____    ______ ____
ROOT
ATOM      1  C   LIG    1       25.332 -19.946   2.580  0.00  0.00    +0.036 C 
ATOM      2  C   LIG    1       24.971 -19.267   3.900  0.00  0.00    +0.140 C 
ENDROOT
BRANCH   2   3
ATOM      3  C   LIG    1       25.034 -17.757   3.782  0.00  0.00    +0.013 A 
ATOM      4  S   LIG    1       26.491 -17.007   3.285  0.00  0.00    -0.091 S 
ATOM      5  C   LIG    1       25.824 -15.424   3.396  0.00  0.00    +0.020 A 
ATOM      6  C   LIG    1       24.487 -15.462   3.795  0.00  0.00    -0.011 A 
ATOM      7  C   LIG    1       23.797 -14.234   3.940  0.00  0.00    +0.009 A 
ATOM      8  C   LIG    1       24.451 -13.021   3.701  0.00  0.00    +0.001 A 
ATOM      9  C   LIG    1       25.781 -13.009   3.303  0.00  0.00    +0.001 A 
ATOM     10  C   LIG    1       26.482 -14.205   3.137  0.00  0.00    +0.015 A 
ATOM     11  C   LIG    1       24.046 -16.814   3.993  0.00  0.00    +0.021 A 
ENDBRANCH   2   3
BRANCH   2  12
ATOM     12  N   LIG    1       23.646 -19.671   4.404  0.00  0.00    -0.160 N 
ATOM     13  C   LIG    1       23.421 -20.855   5.074  0.00  0.00    +0.323 C 
ATOM     14  O   LIG    1       24.293 -21.561   5.565  0.00  0.00    -0.251 OA
ATOM     15  N   LIG    1       22.100 -21.173   5.212  0.00  0.00    -0.312 N 
ATOM     16  H   LIG    1       21.914 -22.081   5.605  0.00  0.00    +0.146 HD
ATOM     17  H   LIG    1       21.508 -20.857   4.459  0.00  0.00    +0.146 HD
BRANCH  12  18
ATOM     18  O   LIG    1       22.546 -19.140   3.680  0.00  0.00    -0.291 OA
ATOM     19  H   LIG    1       22.656 -18.191   3.886  0.00  0.00    +0.242 HD
ENDBRANCH  12  18
ENDBRANCH   2  12
TORSDOF 3
ENDMDL
