MODEL 1
REMARK VINA RESULT:      -5.7      0.000      0.000
REMARK  Name = *****
REMARK                            x       y       z     vdW  Elec       q    Type
REMARK                         _______ _______ _______ _____ _____    ______ ____
ROOT
ATOM      1  C   LIG    1       24.344 -31.302  10.556  0.00  0.00    +0.169 C 
ATOM      2  C   LIG    1       24.834 -32.556   9.768  0.00  0.00    +0.084 C 
ATOM      3  C   LIG    1       24.008 -32.790   8.501  0.00  0.00    +0.042 C 
ATOM      4  C   LIG    1       24.269 -31.639   7.532  0.00  0.00    +0.084 C 
ATOM      5  C   LIG    1       24.080 -30.232   8.160  0.00  0.00    +0.169 C 
ATOM      6  C   LIG    1       23.580 -30.296   9.638  0.00  0.00    +0.175 C 
ENDROOT
BRANCH   2   7
ATOM      7  N   LIG    1       24.810 -33.811  10.539  0.00  0.00    -0.325 NA
ATOM      8  H   LIG    1       23.865 -34.002  10.884  0.00  0.00    +0.118 HD
ATOM      9  H   LIG    1       24.949 -34.595   9.896  0.00  0.00    +0.118 HD
ENDBRANCH   2   7
BRANCH   4  10
ATOM     10  N   LIG    1       23.448 -31.797   6.322  0.00  0.00    -0.325 NA
ATOM     11  H   LIG    1       24.015 -32.217   5.583  0.00  0.00    +0.118 HD
ATOM     12  H   LIG    1       22.711 -32.480   6.512  0.00  0.00    +0.118 HD
ENDBRANCH   4  10
BRANCH   6  13
ATOM     13  O   LIG    1       22.182 -30.655   9.682  0.00  0.00    -0.387 OA
ATOM     14  H   LIG    1       21.966 -31.175   8.888  0.00  0.00    +0.210 HD
ENDBRANCH   6  13
BRANCH   5  15
ATOM     15  O   LIG    1       25.283 -29.444   8.091  0.00  0.00    -0.341 OA
BRANCH  15  16
ATOM     16  C   LIG    1       25.179 -28.183   7.379  0.00  0.00    +0.281 C 
ATOM     17  C   LIG    1       24.859 -28.585   5.920  0.00  0.00    +0.189 C 
ATOM     18  C   LIG    1       24.853 -27.391   4.942  0.00  0.00    +0.116 C 
ATOM     19  C   LIG    1       26.167 -26.601   5.124  0.00  0.00    +0.165 C 
ATOM     20  C   LIG    1       26.480 -26.288   6.602  0.00  0.00    +0.177 C 
ATOM     21  O   LIG    1       26.402 -27.451   7.455  0.00  0.00    -0.341 OA
BRANCH  18  22
ATOM     22  N   LIG    1       23.659 -26.523   5.056  0.00  0.00    -0.323 NA
ATOM     23  H   LIG    1       22.862 -27.121   5.288  0.00  0.00    +0.119 HD
ATOM     24  H   LIG    1       23.770 -25.932   5.882  0.00  0.00    +0.119 HD
ENDBRANCH  18  22
BRANCH  19  25
ATOM     25  O   LIG    1       27.253 -27.353   4.557  0.00  0.00    -0.388 OA
ATOM     26  H   LIG    1       28.075 -26.843   4.729  0.00  0.00    +0.210 HD
ENDBRANCH  19  25
BRANCH  17  27
ATOM     27  O   LIG    1       25.877 -29.511   5.464  0.00  0.00    -0.385 OA
ATOM     28  H   LIG    1       25.421 -30.380   5.441  0.00  0.00    +0.210 HD
ENDBRANCH  17  27
BRANCH  20  29
ATOM     29  C   LIG    1       25.693 -25.077   7.153  0.00  0.00    +0.190 C 
BRANCH  29  30
ATOM     30  O   LIG    1       25.329 -24.110   6.182  0.00  0.00    -0.392 OA
ATOM     31  H   LIG    1       24.422 -23.782   6.411  0.00  0.00    +0.209 HD
ENDBRANCH  29  30
ENDBRANCH  20  29
ENDBRANCH  15  16
ENDBRANCH   5  15
BRANCH   1  32
ATOM     32  O   LIG    1       25.407 -30.586  11.219  0.00  0.00    -0.341 OA
BRANCH  32  37
ATOM     33  C   LIG    1       27.545 -29.478  12.737  0.00  0.00    +0.166 C 
ATOM     34  C   LIG    1       26.936 -28.126  13.161  0.00  0.00    +0.175 C 
ATOM     35  C   LIG    1       25.461 -28.026  12.772  0.00  0.00    +0.179 C 
ATOM     36  C   LIG    1       24.717 -29.261  13.260  0.00  0.00    +0.201 C 
ATOM     37  C   LIG    1       25.376 -30.519  12.648  0.00  0.00    +0.282 C 
ATOM     38  O   LIG    1       26.724 -30.589  13.148  0.00  0.00    -0.342 OA
BRANCH  36  39
ATOM     39  O   LIG    1       23.321 -29.123  12.988  0.00  0.00    -0.384 OA
ATOM     40  H   LIG    1       23.277 -28.662  12.123  0.00  0.00    +0.210 HD
ENDBRANCH  36  39
BRANCH  35  41
ATOM     41  O   LIG    1       24.867 -26.864  13.374  0.00  0.00    -0.386 OA
ATOM     42  H   LIG    1       25.206 -26.099  12.868  0.00  0.00    +0.210 HD
ENDBRANCH  35  41
BRANCH  34  43
ATOM     43  O   LIG    1       27.632 -27.011  12.590  0.00  0.00    -0.387 OA
ATOM     44  H   LIG    1       26.971 -26.407  12.204  0.00  0.00    +0.210 HD
ENDBRANCH  34  43
BRANCH  33  45
ATOM     45  C   LIG    1       28.930 -29.656  13.395  0.00  0.00    +0.112 C 
BRANCH  45  46
ATOM     46  N   LIG    1       30.014 -29.323  12.465  0.00  0.00    -0.328 NA
ATOM     47  H   LIG    1       29.632 -28.702  11.748  0.00  0.00    +0.118 HD
ATOM     48  H   LIG    1       30.315 -30.168  11.982  0.00  0.00    +0.118 HD
ENDBRANCH  45  46
ENDBRANCH  33  45
ENDBRANCH  32  37
ENDBRANCH   1  32
TORSDOF 17
ENDMDL
MODEL 2
REMARK VINA RESULT:      -5.7      2.736      6.581
REMARK  Name = *****
REMARK                            x       y       z     vdW  Elec       q    Type
REMARK                         _______ _______ _______ _____ _____    ______ ____
ROOT
ATOM      1  C   LIG    1       22.058 -30.846  11.245  0.00  0.00    +0.169 C 
ATOM      2  C   LIG    1       20.649 -30.180  11.291  0.00  0.00    +0.084 C 
ATOM      3  C   LIG    1       20.125 -30.056  12.725  0.00  0.00    +0.042 C 
ATOM      4  C   LIG    1       21.009 -29.065  13.480  0.00  0.00    +0.084 C 
ATOM      5  C   LIG    1       22.527 -29.376  13.384  0.00  0.00    +0.169 C 
ATOM      6  C   LIG    1       22.822 -30.693  12.599  0.00  0.00    +0.175 C 
ENDROOT
BRANCH   2   7
ATOM      7  N   LIG    1       19.614 -30.883  10.512  0.00  0.00    -0.325 NA
ATOM      8  H   LIG    1       18.752 -30.332  10.483  0.00  0.00    +0.118 HD
ATOM      9  H   LIG    1       19.886 -30.878   9.525  0.00  0.00    +0.118 HD
ENDBRANCH   2   7
BRANCH   4  10
ATOM     10  N   LIG    1       20.573 -28.961  14.880  0.00  0.00    -0.325 NA
ATOM     11  H   LIG    1       20.289 -27.998  15.073  0.00  0.00    +0.118 HD
ATOM     12  H   LIG    1       19.726 -29.518  15.003  0.00  0.00    +0.118 HD
ENDBRANCH   4  10
BRANCH   6  13
ATOM     13  O   LIG    1       22.496 -31.845  13.405  0.00  0.00    -0.387 OA
ATOM     14  H   LIG    1       22.793 -32.647  12.942  0.00  0.00    +0.210 HD
ENDBRANCH   6  13
BRANCH   5  15
ATOM     15  O   LIG    1       23.265 -28.288  12.798  0.00  0.00    -0.341 OA
BRANCH  15  16
ATOM     16  C   LIG    1       24.684 -28.244  13.101  0.00  0.00    +0.281 C 
ATOM     17  C   LIG    1       24.809 -27.196  14.231  0.00  0.00    +0.189 C 
ATOM     18  C   LIG    1       26.269 -26.874  14.612  0.00  0.00    +0.116 C 
ATOM     19  C   LIG    1       27.049 -26.535  13.323  0.00  0.00    +0.165 C 
ATOM     20  C   LIG    1       26.834 -27.572  12.200  0.00  0.00    +0.177 C 
ATOM     21  O   LIG    1       25.440 -27.857  11.954  0.00  0.00    -0.341 OA
BRANCH  18  22
ATOM     22  N   LIG    1       26.934 -27.935  15.404  0.00  0.00    -0.323 NA
ATOM     23  H   LIG    1       27.797 -28.189  14.918  0.00  0.00    +0.119 HD
ATOM     24  H   LIG    1       27.258 -27.524  16.282  0.00  0.00    +0.119 HD
ENDBRANCH  18  22
BRANCH  19  25
ATOM     25  O   LIG    1       26.646 -25.237  12.855  0.00  0.00    -0.388 OA
ATOM     26  H   LIG    1       26.698 -25.257  11.875  0.00  0.00    +0.210 HD
ENDBRANCH  19  25
BRANCH  17  27
ATOM     27  O   LIG    1       24.198 -25.961  13.782  0.00  0.00    -0.385 OA
ATOM     28  H   LIG    1       23.277 -26.010  14.117  0.00  0.00    +0.210 HD
ENDBRANCH  17  27
BRANCH  20  29
ATOM     29  C   LIG    1       27.695 -28.844  12.368  0.00  0.00    +0.190 C 
BRANCH  29  30
ATOM     30  O   LIG    1       28.580 -29.113  11.292  0.00  0.00    -0.392 OA
ATOM     31  H   LIG    1       29.282 -28.414  11.300  0.00  0.00    +0.209 HD
ENDBRANCH  29  30
ENDBRANCH  20  29
ENDBRANCH  15  16
ENDBRANCH   5  15
BRANCH   1  32
ATOM     32  O   LIG    1       22.902 -30.334  10.193  0.00  0.00    -0.341 OA
BRANCH  32  37
ATOM     33  C   LIG    1       24.477 -29.520   7.965  0.00  0.00    +0.166 C 
ATOM     34  C   LIG    1       25.883 -29.961   8.421  0.00  0.00    +0.175 C 
ATOM     35  C   LIG    1       25.827 -30.769   9.718  0.00  0.00    +0.179 C 
ATOM     36  C   LIG    1       24.803 -31.887   9.581  0.00  0.00    +0.201 C 
ATOM     37  C   LIG    1       23.426 -31.268   9.244  0.00  0.00    +0.282 C 
ATOM     38  O   LIG    1       23.544 -30.618   7.965  0.00  0.00    -0.342 OA
BRANCH  36  39
ATOM     39  O   LIG    1       24.822 -32.705  10.752  0.00  0.00    -0.384 OA
ATOM     40  H   LIG    1       24.110 -33.365  10.610  0.00  0.00    +0.210 HD
ENDBRANCH  36  39
BRANCH  35  41
ATOM     41  O   LIG    1       27.111 -31.354   9.993  0.00  0.00    -0.386 OA
ATOM     42  H   LIG    1       27.771 -30.730   9.629  0.00  0.00    +0.210 HD
ENDBRANCH  35  41
BRANCH  34  43
ATOM     43  O   LIG    1       26.766 -28.849   8.618  0.00  0.00    -0.387 OA
ATOM     44  H   LIG    1       26.226 -28.039   8.674  0.00  0.00    +0.210 HD
ENDBRANCH  34  43
BRANCH  33  45
ATOM     45  C   LIG    1       24.544 -28.968   6.525  0.00  0.00    +0.112 C 
BRANCH  45  46
ATOM     46  N   LIG    1       23.469 -29.513   5.690  0.00  0.00    -0.328 NA
ATOM     47  H   LIG    1       23.410 -30.517   5.871  0.00  0.00    +0.118 HD
ATOM     48  H   LIG    1       23.721 -29.412   4.708  0.00  0.00    +0.118 HD
ENDBRANCH  45  46
ENDBRANCH  33  45
ENDBRANCH  32  37
ENDBRANCH   1  32
TORSDOF 17
ENDMDL
MODEL 3
REMARK VINA RESULT:      -5.6      1.417      2.114
REMARK  Name = *****
REMARK                            x       y       z     vdW  Elec       q    Type
REMARK                         _______ _______ _______ _____ _____    ______ ____
ROOT
ATOM      1  C   LIG    1       24.185 -31.308  10.544  0.00  0.00    +0.169 C 
ATOM      2  C   LIG    1       24.656 -32.547   9.723  0.00  0.00    +0.084 C 
ATOM      3  C   LIG    1       23.836 -32.725   8.442  0.00  0.00    +0.042 C 
ATOM      4  C   LIG    1       24.132 -31.551   7.511  0.00  0.00    +0.084 C 
ATOM      5  C   LIG    1       23.968 -30.160   8.180  0.00  0.00    +0.169 C 
ATOM      6  C   LIG    1       23.452 -30.257   9.650  0.00  0.00    +0.175 C 
ENDROOT
BRANCH   2   7
ATOM      7  N   LIG    1       24.596 -33.825  10.455  0.00  0.00    -0.325 NA
ATOM      8  H   LIG    1       24.288 -33.671  11.419  0.00  0.00    +0.118 HD
ATOM      9  H   LIG    1       23.821 -34.380  10.085  0.00  0.00    +0.118 HD
ENDBRANCH   2   7
BRANCH   4  10
ATOM     10  N   LIG    1       23.319 -31.655   6.289  0.00  0.00    -0.325 NA
ATOM     11  H   LIG    1       23.207 -32.640   6.043  0.00  0.00    +0.118 HD
ATOM     12  H   LIG    1       22.375 -31.323   6.494  0.00  0.00    +0.118 HD
ENDBRANCH   4  10
BRANCH   6  13
ATOM     13  O   LIG    1       22.047 -30.586   9.670  0.00  0.00    -0.387 OA
ATOM     14  H   LIG    1       21.741 -30.716   8.756  0.00  0.00    +0.210 HD
ENDBRANCH   6  13
BRANCH   5  15
ATOM     15  O   LIG    1       25.189 -29.397   8.145  0.00  0.00    -0.341 OA
BRANCH  15  16
ATOM     16  C   LIG    1       25.133 -28.138   7.426  0.00  0.00    +0.281 C 
ATOM     17  C   LIG    1       24.853 -28.538   5.959  0.00  0.00    +0.189 C 
ATOM     18  C   LIG    1       24.902 -27.348   4.978  0.00  0.00    +0.116 C 
ATOM     19  C   LIG    1       26.224 -26.584   5.200  0.00  0.00    +0.165 C 
ATOM     20  C   LIG    1       26.495 -26.271   6.687  0.00  0.00    +0.177 C 
ATOM     21  O   LIG    1       26.367 -27.429   7.540  0.00  0.00    -0.341 OA
BRANCH  18  22
ATOM     22  N   LIG    1       23.722 -26.456   5.051  0.00  0.00    -0.323 NA
ATOM     23  H   LIG    1       22.887 -27.047   5.055  0.00  0.00    +0.119 HD
ATOM     24  H   LIG    1       23.713 -26.011   5.970  0.00  0.00    +0.119 HD
ENDBRANCH  18  22
BRANCH  19  25
ATOM     25  O   LIG    1       27.313 -27.358   4.670  0.00  0.00    -0.388 OA
ATOM     26  H   LIG    1       26.989 -28.281   4.576  0.00  0.00    +0.210 HD
ENDBRANCH  19  25
BRANCH  17  27
ATOM     27  O   LIG    1       25.866 -29.486   5.540  0.00  0.00    -0.385 OA
ATOM     28  H   LIG    1       25.486 -30.363   5.763  0.00  0.00    +0.210 HD
ENDBRANCH  17  27
BRANCH  20  29
ATOM     29  C   LIG    1       25.716 -25.043   7.208  0.00  0.00    +0.190 C 
BRANCH  29  30
ATOM     30  O   LIG    1       25.404 -24.071   6.223  0.00  0.00    -0.392 OA
ATOM     31  H   LIG    1       25.153 -24.554   5.394  0.00  0.00    +0.209 HD
ENDBRANCH  29  30
ENDBRANCH  20  29
ENDBRANCH  15  16
ENDBRANCH   5  15
BRANCH   1  32
ATOM     32  O   LIG    1       25.257 -30.636  11.238  0.00  0.00    -0.341 OA
BRANCH  32  37
ATOM     33  C   LIG    1       25.800 -28.642  13.196  0.00  0.00    +0.166 C 
ATOM     34  C   LIG    1       27.322 -28.464  13.022  0.00  0.00    +0.175 C 
ATOM     35  C   LIG    1       27.847 -29.249  11.819  0.00  0.00    +0.179 C 
ATOM     36  C   LIG    1       27.006 -28.927  10.591  0.00  0.00    +0.201 C 
ATOM     37  C   LIG    1       25.529 -29.276  10.889  0.00  0.00    +0.282 C 
ATOM     38  O   LIG    1       25.089 -28.422  11.962  0.00  0.00    -0.342 OA
BRANCH  36  39
ATOM     39  O   LIG    1       27.555 -29.578   9.445  0.00  0.00    -0.384 OA
ATOM     40  H   LIG    1       28.461 -29.842   9.714  0.00  0.00    +0.210 HD
ENDBRANCH  36  39
BRANCH  35  41
ATOM     41  O   LIG    1       29.211 -28.886  11.548  0.00  0.00    -0.386 OA
ATOM     42  H   LIG    1       29.405 -29.229  10.653  0.00  0.00    +0.210 HD
ENDBRANCH  35  41
BRANCH  34  43
ATOM     43  O   LIG    1       28.056 -28.873  14.183  0.00  0.00    -0.387 OA
ATOM     44  H   LIG    1       28.869 -28.337  14.232  0.00  0.00    +0.210 HD
ENDBRANCH  34  43
BRANCH  33  45
ATOM     45  C   LIG    1       25.270 -27.622  14.226  0.00  0.00    +0.112 C 
BRANCH  45  46
ATOM     46  N   LIG    1       26.054 -26.382  14.206  0.00  0.00    -0.328 NA
ATOM     47  H   LIG    1       26.973 -26.585  14.604  0.00  0.00    +0.118 HD
ATOM     48  H   LIG    1       25.618 -25.698  14.824  0.00  0.00    +0.118 HD
ENDBRANCH  45  46
ENDBRANCH  33  45
ENDBRANCH  32  37
ENDBRANCH   1  32
TORSDOF 17
ENDMDL
MODEL 4
REMARK VINA RESULT:      -5.4      2.533      3.951
REMARK  Name = *****
REMARK                            x       y       z     vdW  Elec       q    Type
REMARK                         _______ _______ _______ _____ _____    ______ ____
ROOT
ATOM      1  C   LIG    1       23.348 -29.925  13.183  0.00  0.00    +0.169 C 
ATOM      2  C   LIG    1       22.900 -31.344  13.650  0.00  0.00    +0.084 C 
ATOM      3  C   LIG    1       21.564 -31.753  13.023  0.00  0.00    +0.042 C 
ATOM      4  C   LIG    1       21.766 -31.923  11.519  0.00  0.00    +0.084 C 
ATOM      5  C   LIG    1       22.440 -30.705  10.833  0.00  0.00    +0.169 C 
ATOM      6  C   LIG    1       22.696 -29.524  11.822  0.00  0.00    +0.175 C 
ENDROOT
BRANCH   2   7
ATOM      7  N   LIG    1       22.758 -31.492  15.109  0.00  0.00    -0.325 NA
ATOM      8  H   LIG    1       23.668 -31.410  15.569  0.00  0.00    +0.118 HD
ATOM      9  H   LIG    1       22.275 -30.668  15.477  0.00  0.00    +0.118 HD
ENDBRANCH   2   7
BRANCH   4  10
ATOM     10  N   LIG    1       20.490 -32.262  10.871  0.00  0.00    -0.325 NA
ATOM     11  H   LIG    1       19.720 -32.020  11.498  0.00  0.00    +0.118 HD
ATOM     12  H   LIG    1       20.367 -31.661  10.054  0.00  0.00    +0.118 HD
ENDBRANCH   4  10
BRANCH   6  13
ATOM     13  O   LIG    1       21.459 -28.844  12.125  0.00  0.00    -0.387 OA
ATOM     14  H   LIG    1       21.419 -28.675  13.083  0.00  0.00    +0.210 HD
ENDBRANCH   6  13
BRANCH   5  15
ATOM     15  O   LIG    1       23.673 -31.066  10.183  0.00  0.00    -0.341 OA
BRANCH  15  16
ATOM     16  C   LIG    1       23.761 -30.757   8.767  0.00  0.00    +0.281 C 
ATOM     17  C   LIG    1       24.129 -32.101   8.097  0.00  0.00    +0.189 C 
ATOM     18  C   LIG    1       24.424 -31.974   6.588  0.00  0.00    +0.116 C 
ATOM     19  C   LIG    1       25.455 -30.844   6.383  0.00  0.00    +0.165 C 
ATOM     20  C   LIG    1       25.082 -29.547   7.130  0.00  0.00    +0.177 C 
ATOM     21  O   LIG    1       24.762 -29.768   8.521  0.00  0.00    -0.341 OA
BRANCH  18  22
ATOM     22  N   LIG    1       23.217 -31.787   5.750  0.00  0.00    -0.323 NA
ATOM     23  H   LIG    1       23.438 -32.122   4.810  0.00  0.00    +0.119 HD
ATOM     24  H   LIG    1       22.495 -32.433   6.078  0.00  0.00    +0.119 HD
ENDBRANCH  18  22
BRANCH  19  25
ATOM     25  O   LIG    1       26.746 -31.295   6.828  0.00  0.00    -0.388 OA
ATOM     26  H   LIG    1       27.034 -30.682   7.539  0.00  0.00    +0.210 HD
ENDBRANCH  19  25
BRANCH  17  27
ATOM     27  O   LIG    1       25.327 -32.618   8.729  0.00  0.00    -0.385 OA
ATOM     28  H   LIG    1       25.144 -33.575   8.849  0.00  0.00    +0.210 HD
ENDBRANCH  17  27
BRANCH  20  29
ATOM     29  C   LIG    1       24.025 -28.696   6.391  0.00  0.00    +0.190 C 
BRANCH  29  30
ATOM     30  O   LIG    1       23.919 -28.950   5.000  0.00  0.00    -0.392 OA
ATOM     31  H   LIG    1       24.800 -28.754   4.591  0.00  0.00    +0.209 HD
ENDBRANCH  29  30
ENDBRANCH  20  29
ENDBRANCH  15  16
ENDBRANCH   5  15
BRANCH   1  32
ATOM     32  O   LIG    1       24.778 -29.785  13.055  0.00  0.00    -0.341 OA
BRANCH  32  37
ATOM     33  C   LIG    1       26.367 -27.481  13.574  0.00  0.00    +0.166 C 
ATOM     34  C   LIG    1       27.762 -27.984  13.150  0.00  0.00    +0.175 C 
ATOM     35  C   LIG    1       27.690 -29.362  12.494  0.00  0.00    +0.179 C 
ATOM     36  C   LIG    1       26.636 -29.351  11.394  0.00  0.00    +0.201 C 
ATOM     37  C   LIG    1       25.275 -28.947  12.007  0.00  0.00    +0.282 C 
ATOM     38  O   LIG    1       25.406 -27.603  12.507  0.00  0.00    -0.342 OA
BRANCH  36  39
ATOM     39  O   LIG    1       26.637 -30.606  10.711  0.00  0.00    -0.384 OA
ATOM     40  H   LIG    1       25.773 -31.014  10.933  0.00  0.00    +0.210 HD
ENDBRANCH  36  39
BRANCH  35  41
ATOM     41  O   LIG    1       28.959 -29.701  11.910  0.00  0.00    -0.386 OA
ATOM     42  H   LIG    1       28.966 -29.282  11.027  0.00  0.00    +0.210 HD
ENDBRANCH  35  41
BRANCH  34  43
ATOM     43  O   LIG    1       28.675 -28.056  14.253  0.00  0.00    -0.387 OA
ATOM     44  H   LIG    1       29.495 -27.593  13.999  0.00  0.00    +0.210 HD
ENDBRANCH  34  43
BRANCH  33  45
ATOM     45  C   LIG    1       26.445 -25.989  13.960  0.00  0.00    +0.112 C 
BRANCH  45  46
ATOM     46  N   LIG    1       27.530 -25.305  13.248  0.00  0.00    -0.328 NA
ATOM     47  H   LIG    1       27.271 -25.252  12.260  0.00  0.00    +0.118 HD
ATOM     48  H   LIG    1       28.374 -25.874  13.294  0.00  0.00    +0.118 HD
ENDBRANCH  45  46
ENDBRANCH  33  45
ENDBRANCH  32  37
ENDBRANCH   1  32
TORSDOF 17
ENDMDL
MODEL 5
REMARK VINA RESULT:      -5.3      3.137      5.973
REMARK  Name = *****
REMARK                            x       y       z     vdW  Elec       q    Type
REMARK                         _______ _______ _______ _____ _____    ______ ____
ROOT
ATOM      1  C   LIG    1       24.795 -28.846  13.795  0.00  0.00    +0.169 C 
ATOM      2  C   LIG    1       25.239 -27.591  12.984  0.00  0.00    +0.084 C 
ATOM      3  C   LIG    1       26.681 -27.717  12.485  0.00  0.00    +0.042 C 
ATOM      4  C   LIG    1       26.742 -28.843  11.455  0.00  0.00    +0.084 C 
ATOM      5  C   LIG    1       26.122 -30.178  11.946  0.00  0.00    +0.169 C 
ATOM      6  C   LIG    1       25.639 -30.108  13.429  0.00  0.00    +0.175 C 
ENDROOT
BRANCH   2   7
ATOM      7  N   LIG    1       25.147 -26.320  13.724  0.00  0.00    -0.325 NA
ATOM      8  H   LIG    1       26.040 -25.821  13.693  0.00  0.00    +0.118 HD
ATOM      9  H   LIG    1       24.543 -25.679  13.203  0.00  0.00    +0.118 HD
ENDBRANCH   2   7
BRANCH   4  10
ATOM     10  N   LIG    1       28.124 -29.034  10.993  0.00  0.00    -0.325 NA
ATOM     11  H   LIG    1       28.745 -28.422  11.525  0.00  0.00    +0.118 HD
ATOM     12  H   LIG    1       28.421 -29.983  11.227  0.00  0.00    +0.118 HD
ENDBRANCH   4  10
BRANCH   6  13
ATOM     13  O   LIG    1       26.768 -30.142  14.328  0.00  0.00    -0.387 OA
ATOM     14  H   LIG    1       26.464 -30.438  15.204  0.00  0.00    +0.210 HD
ENDBRANCH   6  13
BRANCH   5  15
ATOM     15  O   LIG    1       25.036 -30.611  11.104  0.00  0.00    -0.341 OA
BRANCH  15  16
ATOM     16  C   LIG    1       25.355 -30.807   9.702  0.00  0.00    +0.281 C 
ATOM     17  C   LIG    1       24.269 -30.014   8.940  0.00  0.00    +0.189 C 
ATOM     18  C   LIG    1       24.326 -30.208   7.410  0.00  0.00    +0.116 C 
ATOM     19  C   LIG    1       24.356 -31.721   7.108  0.00  0.00    +0.165 C 
ATOM     20  C   LIG    1       25.406 -32.481   7.946  0.00  0.00    +0.177 C 
ATOM     21  O   LIG    1       25.318 -32.192   9.359  0.00  0.00    -0.341 OA
BRANCH  18  22
ATOM     22  N   LIG    1       25.439 -29.485   6.751  0.00  0.00    -0.323 NA
ATOM     23  H   LIG    1       25.050 -28.639   6.328  0.00  0.00    +0.119 HD
ATOM     24  H   LIG    1       26.066 -29.131   7.477  0.00  0.00    +0.119 HD
ENDBRANCH  18  22
BRANCH  19  25
ATOM     25  O   LIG    1       23.054 -32.279   7.358  0.00  0.00    -0.388 OA
ATOM     26  H   LIG    1       22.691 -32.559   6.489  0.00  0.00    +0.210 HD
ENDBRANCH  19  25
BRANCH  17  27
ATOM     27  O   LIG    1       22.968 -30.473   9.384  0.00  0.00    -0.385 OA
ATOM     28  H   LIG    1       23.103 -31.423   9.592  0.00  0.00    +0.210 HD
ENDBRANCH  17  27
BRANCH  20  29
ATOM     29  C   LIG    1       26.842 -32.357   7.388  0.00  0.00    +0.190 C 
BRANCH  29  30
ATOM     30  O   LIG    1       26.923 -31.983   6.023  0.00  0.00    -0.392 OA
ATOM     31  H   LIG    1       26.644 -32.766   5.481  0.00  0.00    +0.209 HD
ENDBRANCH  29  30
ENDBRANCH  20  29
ENDBRANCH  15  16
ENDBRANCH   5  15
BRANCH   1  32
ATOM     32  O   LIG    1       23.400 -29.176  13.628  0.00  0.00    -0.341 OA
BRANCH  32  37
ATOM     33  C   LIG    1       21.007 -30.251  12.524  0.00  0.00    +0.166 C 
ATOM     34  C   LIG    1       19.949 -29.317  13.146  0.00  0.00    +0.175 C 
ATOM     35  C   LIG    1       20.597 -28.158  13.904  0.00  0.00    +0.179 C 
ATOM     36  C   LIG    1       21.628 -27.478  13.014  0.00  0.00    +0.201 C 
ATOM     37  C   LIG    1       22.682 -28.523  12.577  0.00  0.00    +0.282 C 
ATOM     38  O   LIG    1       22.004 -29.517  11.787  0.00  0.00    -0.342 OA
BRANCH  36  39
ATOM     39  O   LIG    1       22.162 -26.333  13.681  0.00  0.00    -0.384 OA
ATOM     40  H   LIG    1       22.165 -25.624  13.003  0.00  0.00    +0.210 HD
ENDBRANCH  36  39
BRANCH  35  41
ATOM     41  O   LIG    1       19.601 -27.190  14.275  0.00  0.00    -0.386 OA
ATOM     42  H   LIG    1       20.095 -26.408  14.592  0.00  0.00    +0.210 HD
ENDBRANCH  35  41
BRANCH  34  43
ATOM     43  O   LIG    1       19.070 -30.009  14.043  0.00  0.00    -0.387 OA
ATOM     44  H   LIG    1       18.423 -30.507  13.509  0.00  0.00    +0.210 HD
ENDBRANCH  34  43
BRANCH  33  45
ATOM     45  C   LIG    1       20.327 -31.227  11.540  0.00  0.00    +0.112 C 
BRANCH  45  46
ATOM     46  N   LIG    1       19.902 -30.544  10.313  0.00  0.00    -0.328 NA
ATOM     47  H   LIG    1       20.719 -30.455   9.705  0.00  0.00    +0.118 HD
ATOM     48  H   LIG    1       19.608 -29.596  10.541  0.00  0.00    +0.118 HD
ENDBRANCH  45  46
ENDBRANCH  33  45
ENDBRANCH  32  37
ENDBRANCH   1  32
TORSDOF 17
ENDMDL
MODEL 6
REMARK VINA RESULT:      -5.3      2.688      6.810
REMARK  Name = *****
REMARK                            x       y       z     vdW  Elec       q    Type
REMARK                         _______ _______ _______ _____ _____    ______ ____
ROOT
ATOM      1  C   LIG    1       22.925 -30.963  10.407  0.00  0.00    +0.169 C 
ATOM      2  C   LIG    1       21.758 -30.163  11.064  0.00  0.00    +0.084 C 
ATOM      3  C   LIG    1       21.740 -30.330  12.586  0.00  0.00    +0.042 C 
ATOM      4  C   LIG    1       22.989 -29.668  13.162  0.00  0.00    +0.084 C 
ATOM      5  C   LIG    1       24.311 -30.127  12.490  0.00  0.00    +0.169 C 
ATOM      6  C   LIG    1       24.086 -31.238  11.416  0.00  0.00    +0.175 C 
ENDROOT
BRANCH   2   7
ATOM      7  N   LIG    1       20.417 -30.525  10.572  0.00  0.00    -0.325 NA
ATOM      8  H   LIG    1       20.463 -30.836   9.598  0.00  0.00    +0.118 HD
ATOM      9  H   LIG    1       20.115 -31.383  11.041  0.00  0.00    +0.118 HD
ENDBRANCH   2   7
BRANCH   4  10
ATOM     10  N   LIG    1       23.038 -29.856  14.619  0.00  0.00    -0.325 NA
ATOM     11  H   LIG    1       23.501 -30.743  14.828  0.00  0.00    +0.118 HD
ATOM     12  H   LIG    1       23.643 -29.139  15.023  0.00  0.00    +0.118 HD
ENDBRANCH   4  10
BRANCH   6  13
ATOM     13  O   LIG    1       23.807 -32.504  12.052  0.00  0.00    -0.387 OA
ATOM     14  H   LIG    1       22.942 -32.827  11.745  0.00  0.00    +0.210 HD
ENDBRANCH   6  13
BRANCH   5  15
ATOM     15  O   LIG    1       25.029 -29.026  11.902  0.00  0.00    -0.341 OA
BRANCH  15  16
ATOM     16  C   LIG    1       25.264 -27.884  12.767  0.00  0.00    +0.281 C 
ATOM     17  C   LIG    1       26.473 -27.157  12.133  0.00  0.00    +0.189 C 
ATOM     18  C   LIG    1       26.997 -25.981  12.982  0.00  0.00    +0.116 C 
ATOM     19  C   LIG    1       27.225 -26.481  14.425  0.00  0.00    +0.165 C 
ATOM     20  C   LIG    1       26.019 -27.263  14.987  0.00  0.00    +0.177 C 
ATOM     21  O   LIG    1       25.557 -28.304  14.099  0.00  0.00    -0.341 OA
BRANCH  18  22
ATOM     22  N   LIG    1       26.138 -24.775  12.939  0.00  0.00    -0.323 NA
ATOM     23  H   LIG    1       26.732 -23.982  12.686  0.00  0.00    +0.119 HD
ATOM     24  H   LIG    1       25.498 -24.865  12.147  0.00  0.00    +0.119 HD
ENDBRANCH  18  22
BRANCH  19  25
ATOM     25  O   LIG    1       28.392 -27.319  14.456  0.00  0.00    -0.388 OA
ATOM     26  H   LIG    1       28.668 -27.392  15.396  0.00  0.00    +0.210 HD
ENDBRANCH  19  25
BRANCH  17  27
ATOM     27  O   LIG    1       27.559 -28.107  11.994  0.00  0.00    -0.385 OA
ATOM     28  H   LIG    1       27.450 -28.714  12.758  0.00  0.00    +0.210 HD
ENDBRANCH  17  27
BRANCH  20  29
ATOM     29  C   LIG    1       24.881 -26.351  15.499  0.00  0.00    +0.190 C 
BRANCH  29  30
ATOM     30  O   LIG    1       23.576 -26.884  15.351  0.00  0.00    -0.392 OA
ATOM     31  H   LIG    1       23.608 -27.561  14.627  0.00  0.00    +0.209 HD
ENDBRANCH  29  30
ENDBRANCH  20  29
ENDBRANCH  15  16
ENDBRANCH   5  15
BRANCH   1  32
ATOM     32  O   LIG    1       23.484 -30.316   9.246  0.00  0.00    -0.341 OA
BRANCH  32  37
ATOM     33  C   LIG    1       24.024 -31.158   6.580  0.00  0.00    +0.166 C 
ATOM     34  C   LIG    1       24.773 -29.929   6.028  0.00  0.00    +0.175 C 
ATOM     35  C   LIG    1       25.061 -28.905   7.126  0.00  0.00    +0.179 C 
ATOM     36  C   LIG    1       25.722 -29.596   8.311  0.00  0.00    +0.201 C 
ATOM     37  C   LIG    1       24.789 -30.720   8.820  0.00  0.00    +0.282 C 
ATOM     38  O   LIG    1       24.657 -31.687   7.762  0.00  0.00    -0.342 OA
BRANCH  36  39
ATOM     39  O   LIG    1       26.085 -28.627   9.295  0.00  0.00    -0.384 OA
ATOM     40  H   LIG    1       25.234 -28.312   9.666  0.00  0.00    +0.210 HD
ENDBRANCH  36  39
BRANCH  35  41
ATOM     41  O   LIG    1       25.950 -27.887   6.635  0.00  0.00    -0.386 OA
ATOM     42  H   LIG    1       25.550 -27.035   6.897  0.00  0.00    +0.210 HD
ENDBRANCH  35  41
BRANCH  34  43
ATOM     43  O   LIG    1       24.049 -29.274   4.978  0.00  0.00    -0.387 OA
ATOM     44  H   LIG    1       24.345 -28.346   4.939  0.00  0.00    +0.210 HD
ENDBRANCH  34  43
BRANCH  33  45
ATOM     45  C   LIG    1       24.009 -32.280   5.520  0.00  0.00    +0.112 C 
BRANCH  45  46
ATOM     46  N   LIG    1       25.077 -32.098   4.530  0.00  0.00    -0.328 NA
ATOM     47  H   LIG    1       24.683 -32.285   3.606  0.00  0.00    +0.118 HD
ATOM     48  H   LIG    1       25.799 -32.801   4.682  0.00  0.00    +0.118 HD
ENDBRANCH  45  46
ENDBRANCH  33  45
ENDBRANCH  32  37
ENDBRANCH   1  32
TORSDOF 17
ENDMDL
MODEL 7
REMARK VINA RESULT:      -5.2      3.576      7.832
REMARK  Name = *****
REMARK                            x       y       z     vdW  Elec       q    Type
REMARK                         _______ _______ _______ _____ _____    ______ ____
ROOT
ATOM      1  C   LIG    1       24.597 -30.491  11.299  0.00  0.00    +0.169 C 
ATOM      2  C   LIG    1       24.437 -31.668  12.310  0.00  0.00    +0.084 C 
ATOM      3  C   LIG    1       23.984 -31.176  13.688  0.00  0.00    +0.042 C 
ATOM      4  C   LIG    1       22.567 -30.622  13.563  0.00  0.00    +0.084 C 
ATOM      5  C   LIG    1       22.397 -29.576  12.429  0.00  0.00    +0.169 C 
ATOM      6  C   LIG    1       23.742 -29.250  11.706  0.00  0.00    +0.175 C 
ENDROOT
BRANCH   2   7
ATOM      7  N   LIG    1       25.658 -32.468  12.516  0.00  0.00    -0.325 NA
ATOM      8  H   LIG    1       26.370 -32.220  11.824  0.00  0.00    +0.118 HD
ATOM      9  H   LIG    1       26.108 -32.163  13.383  0.00  0.00    +0.118 HD
ENDBRANCH   2   7
BRANCH   4  10
ATOM     10  N   LIG    1       22.115 -30.086  14.855  0.00  0.00    -0.325 NA
ATOM     11  H   LIG    1       21.095 -30.134  14.901  0.00  0.00    +0.118 HD
ATOM     12  H   LIG    1       22.444 -30.703  15.600  0.00  0.00    +0.118 HD
ENDBRANCH   4  10
BRANCH   6  13
ATOM     13  O   LIG    1       24.573 -28.415  12.541  0.00  0.00    -0.387 OA
ATOM     14  H   LIG    1       25.494 -28.723  12.476  0.00  0.00    +0.210 HD
ENDBRANCH   6  13
BRANCH   5  15
ATOM     15  O   LIG    1       21.414 -29.985  11.459  0.00  0.00    -0.341 OA
BRANCH  15  16
ATOM     16  C   LIG    1       20.462 -30.987  11.900  0.00  0.00    +0.281 C 
ATOM     17  C   LIG    1       19.787 -31.483  10.600  0.00  0.00    +0.189 C 
ATOM     18  C   LIG    1       18.618 -32.460  10.849  0.00  0.00    +0.116 C 
ATOM     19  C   LIG    1       17.658 -31.823  11.876  0.00  0.00    +0.165 C 
ATOM     20  C   LIG    1       18.386 -31.278  13.123  0.00  0.00    +0.177 C 
ATOM     21  O   LIG    1       19.504 -30.423  12.795  0.00  0.00    -0.341 OA
BRANCH  18  22
ATOM     22  N   LIG    1       19.043 -33.820  11.250  0.00  0.00    -0.323 NA
ATOM     23  H   LIG    1       19.013 -33.865  12.271  0.00  0.00    +0.119 HD
ATOM     24  H   LIG    1       18.323 -34.482  10.954  0.00  0.00    +0.119 HD
ENDBRANCH  18  22
BRANCH  19  25
ATOM     25  O   LIG    1       16.930 -30.756  11.245  0.00  0.00    -0.388 OA
ATOM     26  H   LIG    1       17.228 -30.719  10.310  0.00  0.00    +0.210 HD
ENDBRANCH  19  25
BRANCH  17  27
ATOM     27  O   LIG    1       19.249 -30.337   9.895  0.00  0.00    -0.385 OA
ATOM     28  H   LIG    1       18.562 -30.715   9.305  0.00  0.00    +0.210 HD
ENDBRANCH  17  27
BRANCH  20  29
ATOM     29  C   LIG    1       18.740 -32.372  14.154  0.00  0.00    +0.190 C 
BRANCH  29  30
ATOM     30  O   LIG    1       19.637 -31.965  15.174  0.00  0.00    -0.392 OA
ATOM     31  H   LIG    1       19.185 -31.263  15.709  0.00  0.00    +0.209 HD
ENDBRANCH  29  30
ENDBRANCH  20  29
ENDBRANCH  15  16
ENDBRANCH   5  15
BRANCH   1  32
ATOM     32  O   LIG    1       24.254 -30.847   9.943  0.00  0.00    -0.341 OA
BRANCH  32  37
ATOM     33  C   LIG    1       23.787 -31.655   7.254  0.00  0.00    +0.166 C 
ATOM     34  C   LIG    1       24.307 -30.426   6.482  0.00  0.00    +0.175 C 
ATOM     35  C   LIG    1       24.986 -29.422   7.413  0.00  0.00    +0.179 C 
ATOM     36  C   LIG    1       26.018 -30.138   8.274  0.00  0.00    +0.201 C 
ATOM     37  C   LIG    1       25.313 -31.259   9.073  0.00  0.00    +0.282 C 
ATOM     38  O   LIG    1       24.794 -32.209   8.124  0.00  0.00    -0.342 OA
BRANCH  36  39
ATOM     39  O   LIG    1       26.725 -29.188   9.072  0.00  0.00    -0.384 OA
ATOM     40  H   LIG    1       27.523 -29.665   9.385  0.00  0.00    +0.210 HD
ENDBRANCH  36  39
BRANCH  35  41
ATOM     41  O   LIG    1       25.655 -28.407   6.645  0.00  0.00    -0.386 OA
ATOM     42  H   LIG    1       26.404 -28.107   7.197  0.00  0.00    +0.210 HD
ENDBRANCH  35  41
BRANCH  34  43
ATOM     43  O   LIG    1       23.265 -29.749   5.768  0.00  0.00    -0.387 OA
ATOM     44  H   LIG    1       23.661 -28.989   5.302  0.00  0.00    +0.210 HD
ENDBRANCH  34  43
BRANCH  33  45
ATOM     45  C   LIG    1       23.375 -32.761   6.258  0.00  0.00    +0.112 C 
BRANCH  45  46
ATOM     46  N   LIG    1       24.018 -32.576   4.953  0.00  0.00    -0.328 NA
ATOM     47  H   LIG    1       23.313 -32.216   4.305  0.00  0.00    +0.118 HD
ATOM     48  H   LIG    1       24.307 -33.482   4.588  0.00  0.00    +0.118 HD
ENDBRANCH  45  46
ENDBRANCH  33  45
ENDBRANCH  32  37
ENDBRANCH   1  32
TORSDOF 17
ENDMDL
MODEL 8
REMARK VINA RESULT:      -5.1      2.044      7.232
REMARK  Name = *****
REMARK                            x       y       z     vdW  Elec       q    Type
REMARK                         _______ _______ _______ _____ _____    ______ ____
ROOT
ATOM      1  C   LIG    1       25.257 -30.049   8.120  0.00  0.00    +0.169 C 
ATOM      2  C   LIG    1       24.067 -30.821   8.768  0.00  0.00    +0.084 C 
ATOM      3  C   LIG    1       24.543 -31.797   9.848  0.00  0.00    +0.042 C 
ATOM      4  C   LIG    1       25.115 -30.991  11.011  0.00  0.00    +0.084 C 
ATOM      5  C   LIG    1       26.182 -29.946  10.588  0.00  0.00    +0.169 C 
ATOM      6  C   LIG    1       26.503 -29.999   9.061  0.00  0.00    +0.175 C 
ENDROOT
BRANCH   2   7
ATOM      7  N   LIG    1       23.249 -31.594   7.816  0.00  0.00    -0.325 NA
ATOM      8  H   LIG    1       22.254 -31.491   8.032  0.00  0.00    +0.118 HD
ATOM      9  H   LIG    1       23.301 -31.145   6.898  0.00  0.00    +0.118 HD
ENDBRANCH   2   7
BRANCH   4  10
ATOM     10  N   LIG    1       25.636 -31.895  12.048  0.00  0.00    -0.325 NA
ATOM     11  H   LIG    1       26.640 -31.740  12.154  0.00  0.00    +0.118 HD
ATOM     12  H   LIG    1       25.229 -31.633  12.947  0.00  0.00    +0.118 HD
ENDBRANCH   4  10
BRANCH   6  13
ATOM     13  O   LIG    1       27.314 -31.154   8.757  0.00  0.00    -0.387 OA
ATOM     14  H   LIG    1       26.896 -31.650   8.032  0.00  0.00    +0.210 HD
ENDBRANCH   6  13
BRANCH   5  15
ATOM     15  O   LIG    1       25.800 -28.606  10.955  0.00  0.00    -0.341 OA
BRANCH  15  16
ATOM     16  C   LIG    1       25.634 -28.357  12.376  0.00  0.00    +0.281 C 
ATOM     17  C   LIG    1       26.074 -26.887  12.568  0.00  0.00    +0.189 C 
ATOM     18  C   LIG    1       26.121 -26.449  14.046  0.00  0.00    +0.116 C 
ATOM     19  C   LIG    1       26.950 -27.483  14.839  0.00  0.00    +0.165 C 
ATOM     20  C   LIG    1       26.522 -28.938  14.558  0.00  0.00    +0.177 C 
ATOM     21  O   LIG    1       26.445 -29.243  13.148  0.00  0.00    -0.341 OA
BRANCH  18  22
ATOM     22  N   LIG    1       24.789 -26.220  14.651  0.00  0.00    -0.323 NA
ATOM     23  H   LIG    1       24.112 -26.780  14.128  0.00  0.00    +0.119 HD
ATOM     24  H   LIG    1       24.784 -26.636  15.584  0.00  0.00    +0.119 HD
ENDBRANCH  18  22
BRANCH  19  25
ATOM     25  O   LIG    1       28.341 -27.324  14.512  0.00  0.00    -0.388 OA
ATOM     26  H   LIG    1       28.426 -27.469  13.544  0.00  0.00    +0.210 HD
ENDBRANCH  19  25
BRANCH  17  27
ATOM     27  O   LIG    1       27.411 -26.734  12.029  0.00  0.00    -0.385 OA
ATOM     28  H   LIG    1       27.977 -26.592  12.819  0.00  0.00    +0.210 HD
ENDBRANCH  17  27
BRANCH  20  29
ATOM     29  C   LIG    1       25.262 -29.370  15.342  0.00  0.00    +0.190 C 
BRANCH  29  30
ATOM     30  O   LIG    1       24.679 -30.589  14.913  0.00  0.00    -0.392 OA
ATOM     31  H   LIG    1       24.003 -30.371  14.222  0.00  0.00    +0.209 HD
ENDBRANCH  29  30
ENDBRANCH  20  29
ENDBRANCH  15  16
ENDBRANCH   5  15
BRANCH   1  32
ATOM     32  O   LIG    1       24.927 -28.697   7.740  0.00  0.00    -0.341 OA
BRANCH  32  37
ATOM     33  C   LIG    1       24.635 -26.089   6.637  0.00  0.00    +0.166 C 
ATOM     34  C   LIG    1       25.828 -26.047   5.660  0.00  0.00    +0.175 C 
ATOM     35  C   LIG    1       26.522 -27.405   5.558  0.00  0.00    +0.179 C 
ATOM     36  C   LIG    1       25.488 -28.489   5.282  0.00  0.00    +0.201 C 
ATOM     37  C   LIG    1       24.435 -28.478   6.415  0.00  0.00    +0.282 C 
ATOM     38  O   LIG    1       23.763 -27.205   6.371  0.00  0.00    -0.342 OA
BRANCH  36  39
ATOM     39  O   LIG    1       26.143 -29.742   5.085  0.00  0.00    -0.384 OA
ATOM     40  H   LIG    1       25.647 -30.377   5.645  0.00  0.00    +0.210 HD
ENDBRANCH  36  39
BRANCH  35  41
ATOM     41  O   LIG    1       27.475 -27.396   4.483  0.00  0.00    -0.386 OA
ATOM     42  H   LIG    1       28.241 -26.884   4.810  0.00  0.00    +0.210 HD
ENDBRANCH  35  41
BRANCH  34  43
ATOM     43  O   LIG    1       26.805 -25.067   6.034  0.00  0.00    -0.387 OA
ATOM     44  H   LIG    1       27.682 -25.394   5.763  0.00  0.00    +0.210 HD
ENDBRANCH  34  43
BRANCH  33  45
ATOM     45  C   LIG    1       23.797 -24.801   6.493  0.00  0.00    +0.112 C 
BRANCH  45  46
ATOM     46  N   LIG    1       24.301 -23.949   5.410  0.00  0.00    -0.328 NA
ATOM     47  H   LIG    1       23.982 -24.348   4.524  0.00  0.00    +0.118 HD
ATOM     48  H   LIG    1       25.319 -23.992   5.395  0.00  0.00    +0.118 HD
ENDBRANCH  45  46
ENDBRANCH  33  45
ENDBRANCH  32  37
ENDBRANCH   1  32
TORSDOF 17
ENDMDL
MODEL 9
REMARK VINA RESULT:      -5.0      1.681      7.041
REMARK  Name = *****
REMARK                            x       y       z     vdW  Elec       q    Type
REMARK                         _______ _______ _______ _____ _____    ______ ____
ROOT
ATOM      1  C   LIG    1       25.260 -30.189   7.944  0.00  0.00    +0.169 C 
ATOM      2  C   LIG    1       24.099 -31.147   8.351  0.00  0.00    +0.084 C 
ATOM      3  C   LIG    1       24.553 -32.184   9.383  0.00  0.00    +0.042 C 
ATOM      4  C   LIG    1       24.887 -31.459  10.685  0.00  0.00    +0.084 C 
ATOM      5  C   LIG    1       25.868 -30.269  10.509  0.00  0.00    +0.169 C 
ATOM      6  C   LIG    1       26.372 -30.117   9.039  0.00  0.00    +0.175 C 
ENDROOT
BRANCH   2   7
ATOM      7  N   LIG    1       23.494 -31.887   7.230  0.00  0.00    -0.325 NA
ATOM      8  H   LIG    1       23.908 -32.820   7.152  0.00  0.00    +0.118 HD
ATOM      9  H   LIG    1       22.527 -32.118   7.472  0.00  0.00    +0.118 HD
ENDBRANCH   2   7
BRANCH   4  10
ATOM     10  N   LIG    1       25.383 -32.415  11.685  0.00  0.00    -0.325 NA
ATOM     11  H   LIG    1       26.365 -32.625  11.493  0.00  0.00    +0.118 HD
ATOM     12  H   LIG    1       25.383 -31.963  12.601  0.00  0.00    +0.118 HD
ENDBRANCH   4  10
BRANCH   6  13
ATOM     13  O   LIG    1       27.341 -31.141   8.730  0.00  0.00    -0.387 OA
ATOM     14  H   LIG    1       27.059 -31.976   9.142  0.00  0.00    +0.210 HD
ENDBRANCH   6  13
BRANCH   5  15
ATOM     15  O   LIG    1       25.294 -29.025  10.953  0.00  0.00    -0.341 OA
BRANCH  15  16
ATOM     16  C   LIG    1       26.084 -28.262  11.902  0.00  0.00    +0.281 C 
ATOM     17  C   LIG    1       26.463 -29.280  13.003  0.00  0.00    +0.189 C 
ATOM     18  C   LIG    1       27.188 -28.641  14.206  0.00  0.00    +0.116 C 
ATOM     19  C   LIG    1       26.358 -27.435  14.695  0.00  0.00    +0.165 C 
ATOM     20  C   LIG    1       25.943 -26.487  13.551  0.00  0.00    +0.177 C 
ATOM     21  O   LIG    1       25.328 -27.177  12.440  0.00  0.00    -0.341 OA
BRANCH  18  22
ATOM     22  N   LIG    1       28.598 -28.277  13.937  0.00  0.00    -0.323 NA
ATOM     23  H   LIG    1       28.847 -28.660  13.022  0.00  0.00    +0.119 HD
ATOM     24  H   LIG    1       28.648 -27.265  13.801  0.00  0.00    +0.119 HD
ENDBRANCH  18  22
BRANCH  19  25
ATOM     25  O   LIG    1       25.181 -27.913  15.368  0.00  0.00    -0.388 OA
ATOM     26  H   LIG    1       24.471 -27.979  14.693  0.00  0.00    +0.210 HD
ENDBRANCH  19  25
BRANCH  17  27
ATOM     27  O   LIG    1       25.246 -29.887  13.505  0.00  0.00    -0.385 OA
ATOM     28  H   LIG    1       25.433 -30.851  13.493  0.00  0.00    +0.210 HD
ENDBRANCH  17  27
BRANCH  20  29
ATOM     29  C   LIG    1       27.066 -25.519  13.117  0.00  0.00    +0.190 C 
BRANCH  29  30
ATOM     30  O   LIG    1       28.102 -25.340  14.070  0.00  0.00    -0.392 OA
ATOM     31  H   LIG    1       27.716 -24.855  14.843  0.00  0.00    +0.209 HD
ENDBRANCH  29  30
ENDBRANCH  20  29
ENDBRANCH  15  16
ENDBRANCH   5  15
BRANCH   1  32
ATOM     32  O   LIG    1       24.823 -28.843   7.659  0.00  0.00    -0.341 OA
BRANCH  32  37
ATOM     33  C   LIG    1       24.605 -26.185   6.663  0.00  0.00    +0.166 C 
ATOM     34  C   LIG    1       25.817 -26.126   5.712  0.00  0.00    +0.175 C 
ATOM     35  C   LIG    1       26.486 -27.493   5.566  0.00  0.00    +0.179 C 
ATOM     36  C   LIG    1       25.437 -28.542   5.223  0.00  0.00    +0.201 C 
ATOM     37  C   LIG    1       24.362 -28.558   6.335  0.00  0.00    +0.282 C 
ATOM     38  O   LIG    1       23.716 -27.271   6.334  0.00  0.00    -0.342 OA
BRANCH  36  39
ATOM     39  O   LIG    1       26.071 -29.799   4.985  0.00  0.00    -0.384 OA
ATOM     40  H   LIG    1       26.110 -30.233   5.864  0.00  0.00    +0.210 HD
ENDBRANCH  36  39
BRANCH  35  41
ATOM     41  O   LIG    1       27.460 -27.457   4.509  0.00  0.00    -0.386 OA
ATOM     42  H   LIG    1       27.157 -28.108   3.846  0.00  0.00    +0.210 HD
ENDBRANCH  35  41
BRANCH  34  43
ATOM     43  O   LIG    1       26.805 -25.183   6.147  0.00  0.00    -0.387 OA
ATOM     44  H   LIG    1       27.143 -25.476   7.014  0.00  0.00    +0.210 HD
ENDBRANCH  34  43
BRANCH  33  45
ATOM     45  C   LIG    1       23.795 -24.875   6.560  0.00  0.00    +0.112 C 
BRANCH  45  46
ATOM     46  N   LIG    1       24.306 -24.010   5.491  0.00  0.00    -0.328 NA
ATOM     47  H   LIG    1       24.065 -24.442   4.596  0.00  0.00    +0.118 HD
ATOM     48  H   LIG    1       25.324 -23.988   5.534  0.00  0.00    +0.118 HD
ENDBRANCH  45  46
ENDBRANCH  33  45
ENDBRANCH  32  37
ENDBRANCH   1  32
TORSDOF 17
ENDMDL
