MODEL 1
REMARK VINA RESULT:      -5.6      0.000      0.000
REMARK  Name = *****
REMARK                            x       y       z     vdW  Elec       q    Type
REMARK                         _______ _______ _______ _____ _____    ______ ____
ROOT
ATOM      1  C   LIG    1       22.749 -20.495   4.758  0.00  0.00    +0.118 A 
ATOM      2  N   LIG    1       24.064 -20.728   4.599  0.00  0.00    -0.216 NA
ATOM      3  C   LIG    1       24.835 -19.705   4.170  0.00  0.00    +0.146 A 
ATOM      4  C   LIG    1       24.333 -18.425   3.888  0.00  0.00    +0.126 A 
ATOM      5  C   LIG    1       22.965 -18.217   4.061  0.00  0.00    +0.036 A 
ATOM      6  C   LIG    1       22.160 -19.267   4.493  0.00  0.00    +0.045 A 
ENDROOT
BRANCH   1   7
ATOM      7  N   LIG    1       21.971 -21.570   5.180  0.00  0.00    -0.343 N 
ATOM      8  H   LIG    1       22.339 -21.862   6.083  0.00  0.00    +0.144 HD
ATOM      9  H   LIG    1       20.992 -21.319   5.241  0.00  0.00    +0.144 HD
ENDBRANCH   1   7
BRANCH   3  10
ATOM     10  N   LIG    1       26.205 -19.990   4.069  0.00  0.00    -0.341 N 
ATOM     11  H   LIG    1       26.707 -19.186   4.435  0.00  0.00    +0.144 HD
ATOM     12  H   LIG    1       26.421 -20.852   4.560  0.00  0.00    +0.144 HD
ENDBRANCH   3  10
BRANCH   4  13
ATOM     13  N   LIG    1       25.162 -17.362   3.482  0.00  0.00    -0.146 NA
ATOM     14  N   LIG    1       24.677 -16.272   3.856  0.00  0.00    -0.149 NA
BRANCH  14  15
ATOM     15  C   LIG    1       25.500 -15.187   3.490  0.00  0.00    +0.086 A 
ATOM     16  C   LIG    1       24.993 -13.995   2.951  0.00  0.00    +0.029 A 
ATOM     17  C   LIG    1       25.847 -12.936   2.630  0.00  0.00    +0.002 A 
ATOM     18  C   LIG    1       27.218 -13.055   2.854  0.00  0.00    +0.000 A 
ATOM     19  C   LIG    1       27.734 -14.228   3.402  0.00  0.00    +0.002 A 
ATOM     20  C   LIG    1       26.877 -15.284   3.721  0.00  0.00    +0.029 A 
ENDBRANCH  14  15
ENDBRANCH   4  13
TORSDOF 4
ENDMDL
MODEL 2
REMARK VINA RESULT:      -4.6      1.803      6.732
REMARK  Name = *****
REMARK                            x       y       z     vdW  Elec       q    Type
REMARK                         _______ _______ _______ _____ _____    ______ ____
ROOT
ATOM      1  C   LIG    1       27.107 -13.266   3.174  0.00  0.00    +0.118 A 
ATOM      2  N   LIG    1       25.779 -13.055   3.186  0.00  0.00    -0.216 NA
ATOM      3  C   LIG    1       24.975 -14.121   3.390  0.00  0.00    +0.146 A 
ATOM      4  C   LIG    1       25.458 -15.425   3.590  0.00  0.00    +0.126 A 
ATOM      5  C   LIG    1       26.840 -15.609   3.570  0.00  0.00    +0.036 A 
ATOM      6  C   LIG    1       27.676 -14.519   3.350  0.00  0.00    +0.045 A 
ENDROOT
BRANCH   1   7
ATOM      7  N   LIG    1       27.913 -12.155   2.941  0.00  0.00    -0.343 N 
ATOM      8  H   LIG    1       27.938 -11.622   3.808  0.00  0.00    +0.144 HD
ATOM      9  H   LIG    1       28.843 -12.427   2.645  0.00  0.00    +0.144 HD
ENDBRANCH   1   7
BRANCH   3  10
ATOM     10  N   LIG    1       23.603 -13.836   3.442  0.00  0.00    -0.341 N 
ATOM     11  H   LIG    1       23.461 -13.176   4.201  0.00  0.00    +0.144 HD
ATOM     12  H   LIG    1       23.283 -13.486   2.545  0.00  0.00    +0.144 HD
ENDBRANCH   3  10
BRANCH   4  13
ATOM     13  N   LIG    1       24.604 -16.515   3.843  0.00  0.00    -0.146 NA
ATOM     14  N   LIG    1       25.169 -17.585   3.529  0.00  0.00    -0.149 NA
BRANCH  14  15
ATOM     15  C   LIG    1       24.350 -18.700   3.797  0.00  0.00    +0.086 A 
ATOM     16  C   LIG    1       24.780 -20.023   3.611  0.00  0.00    +0.029 A 
ATOM     17  C   LIG    1       23.941 -21.097   3.918  0.00  0.00    +0.002 A 
ATOM     18  C   LIG    1       22.664 -20.860   4.425  0.00  0.00    +0.000 A 
ATOM     19  C   LIG    1       22.228 -19.552   4.628  0.00  0.00    +0.002 A 
ATOM     20  C   LIG    1       23.071 -18.481   4.320  0.00  0.00    +0.029 A 
ENDBRANCH  14  15
ENDBRANCH   4  13
TORSDOF 4
ENDMDL
MODEL 3
REMARK VINA RESULT:      -4.2      1.623      2.464
REMARK  Name = *****
REMARK                            x       y       z     vdW  Elec       q    Type
REMARK                         _______ _______ _______ _____ _____    ______ ____
ROOT
ATOM      1  C   LIG    1       25.649 -20.307   4.763  0.00  0.00    +0.118 A 
ATOM      2  N   LIG    1       26.787 -19.592   4.782  0.00  0.00    -0.216 NA
ATOM      3  C   LIG    1       26.771 -18.370   4.205  0.00  0.00    +0.146 A 
ATOM      4  C   LIG    1       25.632 -17.819   3.597  0.00  0.00    +0.126 A 
ATOM      5  C   LIG    1       24.468 -18.588   3.592  0.00  0.00    +0.036 A 
ATOM      6  C   LIG    1       24.477 -19.851   4.175  0.00  0.00    +0.045 A 
ENDROOT
BRANCH   1   7
ATOM      7  N   LIG    1       25.696 -21.572   5.345  0.00  0.00    -0.343 N 
ATOM      8  H   LIG    1       25.958 -22.224   4.609  0.00  0.00    +0.144 HD
ATOM      9  H   LIG    1       26.352 -21.600   6.117  0.00  0.00    +0.144 HD
ENDBRANCH   1   7
BRANCH   3  10
ATOM     10  N   LIG    1       27.970 -17.648   4.297  0.00  0.00    -0.341 N 
ATOM     11  H   LIG    1       28.089 -17.384   5.270  0.00  0.00    +0.144 HD
ATOM     12  H   LIG    1       28.741 -18.203   3.937  0.00  0.00    +0.144 HD
ENDBRANCH   3  10
BRANCH   4  13
ATOM     13  N   LIG    1       25.626 -16.526   3.038  0.00  0.00    -0.146 NA
ATOM     14  N   LIG    1       25.126 -15.713   3.846  0.00  0.00    -0.149 NA
BRANCH  14  15
ATOM     15  C   LIG    1       25.132 -14.402   3.328  0.00  0.00    +0.086 A 
ATOM     16  C   LIG    1       26.272 -13.812   2.760  0.00  0.00    +0.029 A 
ATOM     17  C   LIG    1       26.222 -12.519   2.235  0.00  0.00    +0.002 A 
ATOM     18  C   LIG    1       25.026 -11.802   2.262  0.00  0.00    +0.000 A 
ATOM     19  C   LIG    1       23.882 -12.379   2.810  0.00  0.00    +0.002 A 
ATOM     20  C   LIG    1       23.937 -13.673   3.335  0.00  0.00    +0.029 A 
ENDBRANCH  14  15
ENDBRANCH   4  13
TORSDOF 4
ENDMDL
MODEL 4
REMARK VINA RESULT:      -4.1      1.124      2.133
REMARK  Name = *****
REMARK                            x       y       z     vdW  Elec       q    Type
REMARK                         _______ _______ _______ _____ _____    ______ ____
ROOT
ATOM      1  C   LIG    1       22.983 -20.459   4.784  0.00  0.00    +0.118 A 
ATOM      2  N   LIG    1       22.339 -19.280   4.850  0.00  0.00    -0.216 NA
ATOM      3  C   LIG    1       22.978 -18.188   4.378  0.00  0.00    +0.146 A 
ATOM      4  C   LIG    1       24.269 -18.227   3.827  0.00  0.00    +0.126 A 
ATOM      5  C   LIG    1       24.911 -19.464   3.776  0.00  0.00    +0.036 A 
ATOM      6  C   LIG    1       24.265 -20.594   4.268  0.00  0.00    +0.045 A 
ENDROOT
BRANCH   1   7
ATOM      7  N   LIG    1       22.312 -21.567   5.295  0.00  0.00    -0.343 N 
ATOM      8  H   LIG    1       21.491 -21.214   5.783  0.00  0.00    +0.144 HD
ATOM      9  H   LIG    1       22.057 -22.218   4.562  0.00  0.00    +0.144 HD
ENDBRANCH   1   7
BRANCH   3  10
ATOM     10  N   LIG    1       22.242 -16.995   4.426  0.00  0.00    -0.341 N 
ATOM     11  H   LIG    1       21.296 -17.213   4.127  0.00  0.00    +0.144 HD
ATOM     12  H   LIG    1       22.282 -16.595   5.358  0.00  0.00    +0.144 HD
ENDBRANCH   3  10
BRANCH   4  13
ATOM     13  N   LIG    1       24.901 -17.082   3.304  0.00  0.00    -0.146 NA
ATOM     14  N   LIG    1       24.684 -16.097   4.043  0.00  0.00    -0.149 NA
BRANCH  14  15
ATOM     15  C   LIG    1       25.328 -14.939   3.562  0.00  0.00    +0.086 A 
ATOM     16  C   LIG    1       26.709 -14.881   3.317  0.00  0.00    +0.029 A 
ATOM     17  C   LIG    1       27.297 -13.719   2.813  0.00  0.00    +0.002 A 
ATOM     18  C   LIG    1       26.509 -12.602   2.538  0.00  0.00    +0.000 A 
ATOM     19  C   LIG    1       25.135 -12.649   2.764  0.00  0.00    +0.002 A 
ATOM     20  C   LIG    1       24.550 -13.813   3.268  0.00  0.00    +0.029 A 
ENDBRANCH  14  15
ENDBRANCH   4  13
TORSDOF 4
ENDMDL
MODEL 5
REMARK VINA RESULT:      -4.1      1.830      6.468
REMARK  Name = *****
REMARK                            x       y       z     vdW  Elec       q    Type
REMARK                         _______ _______ _______ _____ _____    ______ ____
ROOT
ATOM      1  C   LIG    1       26.917 -13.207   3.020  0.00  0.00    +0.118 A 
ATOM      2  N   LIG    1       27.556 -14.353   3.316  0.00  0.00    -0.216 NA
ATOM      3  C   LIG    1       26.803 -15.422   3.658  0.00  0.00    +0.146 A 
ATOM      4  C   LIG    1       25.401 -15.391   3.717  0.00  0.00    +0.126 A 
ATOM      5  C   LIG    1       24.770 -14.186   3.407  0.00  0.00    +0.036 A 
ATOM      6  C   LIG    1       25.536 -13.078   3.062  0.00  0.00    +0.045 A 
ENDROOT
BRANCH   1   7
ATOM      7  N   LIG    1       27.716 -12.115   2.691  0.00  0.00    -0.343 N 
ATOM      8  H   LIG    1       27.757 -11.521   3.516  0.00  0.00    +0.144 HD
ATOM      9  H   LIG    1       28.640 -12.406   2.396  0.00  0.00    +0.144 HD
ENDBRANCH   1   7
BRANCH   3  10
ATOM     10  N   LIG    1       27.518 -16.602   3.908  0.00  0.00    -0.341 N 
ATOM     11  H   LIG    1       28.039 -16.823   3.065  0.00  0.00    +0.144 HD
ATOM     12  H   LIG    1       28.111 -16.487   4.724  0.00  0.00    +0.144 HD
ENDBRANCH   3  10
BRANCH   4  13
ATOM     13  N   LIG    1       24.634 -16.528   4.036  0.00  0.00    -0.146 NA
ATOM     14  N   LIG    1       25.055 -17.520   3.403  0.00  0.00    -0.149 NA
BRANCH  14  15
ATOM     15  C   LIG    1       24.327 -18.684   3.723  0.00  0.00    +0.086 A 
ATOM     16  C   LIG    1       24.864 -19.975   3.607  0.00  0.00    +0.029 A 
ATOM     17  C   LIG    1       24.111 -21.097   3.963  0.00  0.00    +0.002 A 
ATOM     18  C   LIG    1       22.814 -20.940   4.450  0.00  0.00    +0.000 A 
ATOM     19  C   LIG    1       22.272 -19.663   4.583  0.00  0.00    +0.002 A 
ATOM     20  C   LIG    1       23.028 -18.544   4.225  0.00  0.00    +0.029 A 
ENDBRANCH  14  15
ENDBRANCH   4  13
TORSDOF 4
ENDMDL
MODEL 6
REMARK VINA RESULT:      -4.0      2.014      6.359
REMARK  Name = *****
REMARK                            x       y       z     vdW  Elec       q    Type
REMARK                         _______ _______ _______ _____ _____    ______ ____
ROOT
ATOM      1  C   LIG    1       25.223 -12.808   2.639  0.00  0.00    +0.118 A 
ATOM      2  N   LIG    1       26.163 -13.760   2.778  0.00  0.00    -0.216 NA
ATOM      3  C   LIG    1       25.793 -14.930   3.341  0.00  0.00    +0.146 A 
ATOM      4  C   LIG    1       24.486 -15.197   3.781  0.00  0.00    +0.126 A 
ATOM      5  C   LIG    1       23.536 -14.188   3.624  0.00  0.00    +0.036 A 
ATOM      6  C   LIG    1       23.909 -12.975   3.054  0.00  0.00    +0.045 A 
ENDROOT
BRANCH   1   7
ATOM      7  N   LIG    1       25.634 -11.602   2.075  0.00  0.00    -0.343 N 
ATOM      8  H   LIG    1       25.347 -11.622   1.099  0.00  0.00    +0.144 HD
ATOM      9  H   LIG    1       25.236 -10.809   2.564  0.00  0.00    +0.144 HD
ENDBRANCH   1   7
BRANCH   3  10
ATOM     10  N   LIG    1       26.800 -15.904   3.416  0.00  0.00    -0.341 N 
ATOM     11  H   LIG    1       26.405 -16.774   3.072  0.00  0.00    +0.144 HD
ATOM     12  H   LIG    1       27.617 -15.604   2.893  0.00  0.00    +0.144 HD
ENDBRANCH   3  10
BRANCH   4  13
ATOM     13  N   LIG    1       24.113 -16.440   4.327  0.00  0.00    -0.146 NA
ATOM     14  N   LIG    1       24.274 -17.345   3.481  0.00  0.00    -0.149 NA
BRANCH  14  15
ATOM     15  C   LIG    1       23.937 -18.609   4.007  0.00  0.00    +0.086 A 
ATOM     16  C   LIG    1       22.669 -18.902   4.532  0.00  0.00    +0.029 A 
ATOM     17  C   LIG    1       22.374 -20.179   5.017  0.00  0.00    +0.002 A 
ATOM     18  C   LIG    1       23.341 -21.182   4.972  0.00  0.00    +0.000 A 
ATOM     19  C   LIG    1       24.600 -20.910   4.441  0.00  0.00    +0.002 A 
ATOM     20  C   LIG    1       24.892 -19.632   3.957  0.00  0.00    +0.029 A 
ENDBRANCH  14  15
ENDBRANCH   4  13
TORSDOF 4
ENDMDL
MODEL 7
REMARK VINA RESULT:      -3.3      3.849      5.958
REMARK  Name = *****
REMARK                            x       y       z     vdW  Elec       q    Type
REMARK                         _______ _______ _______ _____ _____    ______ ____
ROOT
ATOM      1  C   LIG    1       28.164 -20.699   6.553  0.00  0.00    +0.118 A 
ATOM      2  N   LIG    1       27.911 -19.841   5.549  0.00  0.00    -0.216 NA
ATOM      3  C   LIG    1       26.665 -19.834   5.028  0.00  0.00    +0.146 A 
ATOM      4  C   LIG    1       25.633 -20.670   5.483  0.00  0.00    +0.126 A 
ATOM      5  C   LIG    1       25.929 -21.550   6.523  0.00  0.00    +0.036 A 
ATOM      6  C   LIG    1       27.212 -21.572   7.061  0.00  0.00    +0.045 A 
ENDROOT
BRANCH   1   7
ATOM      7  N   LIG    1       29.461 -20.702   7.060  0.00  0.00    -0.343 N 
ATOM      8  H   LIG    1       29.990 -21.375   6.509  0.00  0.00    +0.144 HD
ATOM      9  H   LIG    1       29.878 -19.780   7.019  0.00  0.00    +0.144 HD
ENDBRANCH   1   7
BRANCH   3  10
ATOM     10  N   LIG    1       26.444 -18.886   4.018  0.00  0.00    -0.341 N 
ATOM     11  H   LIG    1       26.939 -18.041   4.284  0.00  0.00    +0.144 HD
ATOM     12  H   LIG    1       26.740 -19.255   3.120  0.00  0.00    +0.144 HD
ENDBRANCH   3  10
BRANCH   4  13
ATOM     13  N   LIG    1       24.329 -20.617   4.952  0.00  0.00    -0.146 NA
ATOM     14  N   LIG    1       23.801 -19.517   5.224  0.00  0.00    -0.149 NA
BRANCH  14  15
ATOM     15  C   LIG    1       22.503 -19.419   4.681  0.00  0.00    +0.086 A 
ATOM     16  C   LIG    1       21.985 -18.225   4.156  0.00  0.00    +0.029 A 
ATOM     17  C   LIG    1       20.703 -18.185   3.603  0.00  0.00    +0.002 A 
ATOM     18  C   LIG    1       19.927 -19.343   3.559  0.00  0.00    +0.000 A 
ATOM     19  C   LIG    1       20.433 -20.538   4.064  0.00  0.00    +0.002 A 
ATOM     20  C   LIG    1       21.716 -20.574   4.617  0.00  0.00    +0.029 A 
ENDBRANCH  14  15
ENDBRANCH   4  13
TORSDOF 4
ENDMDL
MODEL 8
REMARK VINA RESULT:      -3.1      1.443      2.243
REMARK  Name = *****
REMARK                            x       y       z     vdW  Elec       q    Type
REMARK                         _______ _______ _______ _____ _____    ______ ____
ROOT
ATOM      1  C   LIG    1       24.476 -20.313   4.799  0.00  0.00    +0.118 A 
ATOM      2  N   LIG    1       23.402 -19.504   4.777  0.00  0.00    -0.216 NA
ATOM      3  C   LIG    1       23.554 -18.274   4.240  0.00  0.00    +0.146 A 
ATOM      4  C   LIG    1       24.767 -17.808   3.708  0.00  0.00    +0.126 A 
ATOM      5  C   LIG    1       25.862 -18.671   3.748  0.00  0.00    +0.036 A 
ATOM      6  C   LIG    1       25.719 -19.937   4.308  0.00  0.00    +0.045 A 
ENDROOT
BRANCH   1   7
ATOM      7  N   LIG    1       24.300 -21.568   5.377  0.00  0.00    -0.343 N 
ATOM      8  H   LIG    1       23.297 -21.710   5.471  0.00  0.00    +0.144 HD
ATOM      9  H   LIG    1       24.727 -22.297   4.818  0.00  0.00    +0.144 HD
ENDBRANCH   1   7
BRANCH   3  10
ATOM     10  N   LIG    1       22.391 -17.490   4.198  0.00  0.00    -0.341 N 
ATOM     11  H   LIG    1       21.980 -17.512   5.126  0.00  0.00    +0.144 HD
ATOM     12  H   LIG    1       22.612 -16.551   3.882  0.00  0.00    +0.144 HD
ENDBRANCH   3  10
BRANCH   4  13
ATOM     13  N   LIG    1       24.892 -16.537   3.115  0.00  0.00    -0.146 NA
ATOM     14  N   LIG    1       24.678 -15.645   3.964  0.00  0.00    -0.149 NA
BRANCH  14  15
ATOM     15  C   LIG    1       24.825 -14.357   3.409  0.00  0.00    +0.086 A 
ATOM     16  C   LIG    1       23.816 -13.384   3.466  0.00  0.00    +0.029 A 
ATOM     17  C   LIG    1       24.019 -12.111   2.925  0.00  0.00    +0.002 A 
ATOM     18  C   LIG    1       25.239 -11.794   2.330  0.00  0.00    +0.000 A 
ATOM     19  C   LIG    1       26.255 -12.746   2.278  0.00  0.00    +0.002 A 
ATOM     20  C   LIG    1       26.048 -14.017   2.820  0.00  0.00    +0.029 A 
ENDBRANCH  14  15
ENDBRANCH   4  13
TORSDOF 4
ENDMDL
MODEL 9
REMARK VINA RESULT:      -2.7      1.399      1.982
REMARK  Name = *****
REMARK                            x       y       z     vdW  Elec       q    Type
REMARK                         _______ _______ _______ _____ _____    ______ ____
ROOT
ATOM      1  C   LIG    1       24.435 -20.389   3.848  0.00  0.00    +0.118 A 
ATOM      2  N   LIG    1       25.701 -20.454   4.297  0.00  0.00    -0.216 NA
ATOM      3  C   LIG    1       26.440 -19.324   4.258  0.00  0.00    +0.146 A 
ATOM      4  C   LIG    1       25.952 -18.098   3.778  0.00  0.00    +0.126 A 
ATOM      5  C   LIG    1       24.636 -18.065   3.317  0.00  0.00    +0.036 A 
ATOM      6  C   LIG    1       23.869 -19.226   3.344  0.00  0.00    +0.045 A 
ENDROOT
BRANCH   1   7
ATOM      7  N   LIG    1       23.700 -21.571   3.880  0.00  0.00    -0.343 N 
ATOM      8  H   LIG    1       23.210 -21.636   2.990  0.00  0.00    +0.144 HD
ATOM      9  H   LIG    1       24.297 -22.375   4.035  0.00  0.00    +0.144 HD
ENDBRANCH   1   7
BRANCH   3  10
ATOM     10  N   LIG    1       27.736 -19.437   4.784  0.00  0.00    -0.341 N 
ATOM     11  H   LIG    1       28.209 -20.169   4.262  0.00  0.00    +0.144 HD
ATOM     12  H   LIG    1       28.212 -18.542   4.737  0.00  0.00    +0.144 HD
ENDBRANCH   3  10
BRANCH   4  13
ATOM     13  N   LIG    1       26.727 -16.923   3.785  0.00  0.00    -0.146 NA
ATOM     14  N   LIG    1       26.014 -15.938   3.494  0.00  0.00    -0.149 NA
BRANCH  14  15
ATOM     15  C   LIG    1       26.755 -14.738   3.522  0.00  0.00    +0.086 A 
ATOM     16  C   LIG    1       27.617 -14.399   4.576  0.00  0.00    +0.029 A 
ATOM     17  C   LIG    1       28.352 -13.211   4.544  0.00  0.00    +0.002 A 
ATOM     18  C   LIG    1       28.241 -12.353   3.451  0.00  0.00    +0.000 A 
ATOM     19  C   LIG    1       27.400 -12.682   2.391  0.00  0.00    +0.002 A 
ATOM     20  C   LIG    1       26.666 -13.871   2.426  0.00  0.00    +0.029 A 
ENDBRANCH  14  15
ENDBRANCH   4  13
TORSDOF 4
ENDMDL
