MODEL 1
REMARK VINA RESULT:       1.2      0.000      0.000
REMARK  Name = *****
REMARK                            x       y       z     vdW  Elec       q    Type
REMARK                         _______ _______ _______ _____ _____    ______ ____
ROOT
ATOM      1  N   LIG    1       23.210 -17.011   4.940  0.00  0.00    -0.302 NA
ATOM      2  C   LIG    1       24.303 -16.985   3.950  0.00  0.00    +0.087 C 
ATOM      3  C   LIG    1       24.172 -15.877   2.902  0.00  0.00    +0.055 C 
ATOM      4  C   LIG    1       24.029 -14.476   3.535  0.00  0.00    +0.093 C 
ATOM      5  C   LIG    1       22.909 -14.537   4.595  0.00  0.00    +0.055 C 
ATOM      6  C   LIG    1       23.102 -15.694   5.578  0.00  0.00    +0.087 C 
ENDROOT
BRANCH   4   7
ATOM      7  C   LIG    1       25.365 -13.872   3.992  0.00  0.00    -0.016 A 
ATOM      8  C   LIG    1       26.491 -13.943   3.144  0.00  0.00    +0.007 A 
ATOM      9  C   LIG    1       27.716 -13.363   3.495  0.00  0.00    +0.015 A 
ATOM     10  C   LIG    1       27.836 -12.685   4.701  0.00  0.00    +0.018 A 
ATOM     11 BR   LIG    1       29.475 -11.873   5.173  0.00  0.00    -0.050 Br
ATOM     12  C   LIG    1       26.743 -12.585   5.555  0.00  0.00    +0.015 A 
ATOM     13  C   LIG    1       25.521 -13.170   5.199  0.00  0.00    +0.007 A 
ENDBRANCH   4   7
BRANCH   4  14
ATOM     14  O   LIG    1       23.568 -13.602   2.486  0.00  0.00    -0.384 OA
ATOM     15  H   LIG    1       24.358 -13.253   2.038  0.00  0.00    +0.211 HD
ENDBRANCH   4  14
BRANCH   1  16
ATOM     16  C   LIG    1       21.948 -17.512   4.357  0.00  0.00    +0.085 C 
BRANCH  16  17
ATOM     17  C   LIG    1       21.975 -19.021   4.041  0.00  0.00    +0.023 C 
BRANCH  17  18
ATOM     18  C   LIG    1       23.382 -19.632   4.063  0.00  0.00    +0.081 C 
BRANCH  18  20
ATOM     19  O   LIG    1       22.828 -20.771   6.118  0.00  0.00    -0.292 OA
ATOM     20  C   LIG    1       23.703 -20.349   5.369  0.00  0.00    +0.163 C 
BRANCH  20  21
ATOM     21  C   LIG    1       25.137 -20.522   5.766  0.00  0.00    +0.018 A 
ATOM     22  C   LIG    1       26.107 -19.768   5.083  0.00  0.00    +0.014 A 
ATOM     23  C   LIG    1       27.463 -19.919   5.383  0.00  0.00    +0.039 A 
ATOM     24  C   LIG    1       27.847 -20.822   6.366  0.00  0.00    +0.123 A 
ATOM     25  F   LIG    1       29.147 -20.981   6.644  0.00  0.00    -0.205 F 
ATOM     26  C   LIG    1       26.901 -21.566   7.061  0.00  0.00    +0.039 A 
ATOM     27  C   LIG    1       25.542 -21.416   6.766  0.00  0.00    +0.014 A 
ENDBRANCH  20  21
ENDBRANCH  18  20
ENDBRANCH  17  18
ENDBRANCH  16  17
ENDBRANCH   1  16
TORSDOF 7
ENDMDL
