MODEL 1
REMARK VINA RESULT:      -3.4      0.000      0.000
REMARK  Name = *****
REMARK                            x       y       z     vdW  Elec       q    Type
REMARK                         _______ _______ _______ _____ _____    ______ ____
ROOT
ATOM      1  S   LIG    1       25.070 -19.879   3.201  0.00  0.00    -0.041 S 
ENDROOT
BRANCH   1   2
ATOM      2  C   LIG    1       25.877 -20.314   4.710  0.00  0.00    +0.132 A 
ATOM      3  C   LIG    1       27.063 -19.732   5.102  0.00  0.00    +0.118 A 
ATOM      4  C   LIG    1       27.702 -20.170   6.246  0.00  0.00    +0.182 A 
ATOM      5  N   LIG    1       28.896 -19.527   6.418  0.00  0.00    -0.216 NA
ATOM      6  C   LIG    1       28.969 -18.670   5.423  0.00  0.00    +0.199 A 
ATOM      7  N   LIG    1       27.195 -21.111   7.061  0.00  0.00    -0.214 NA
ATOM      8  C   LIG    1       26.008 -21.571   6.649  0.00  0.00    +0.225 A 
ATOM      9  N   LIG    1       27.862 -18.732   4.620  0.00  0.00    -0.341 N 
ATOM     10  H   LIG    1       27.675 -18.152   3.809  0.00  0.00    +0.167 HD
ATOM     11  N   LIG    1       25.335 -21.249   5.523  0.00  0.00    -0.227 NA
ENDBRANCH   1   2
BRANCH   1  14
ATOM     12  C   LIG    1       22.175 -20.363   4.559  0.00  0.00    +0.151 C 
ATOM     13  N   LIG    1       22.745 -19.048   4.378  0.00  0.00    -0.323 N 
ATOM     14  C   LIG    1       23.954 -18.694   3.817  0.00  0.00    +0.182 A 
ATOM     15  C   LIG    1       23.988 -17.310   3.935  0.00  0.00    +0.399 A 
ATOM     16  N   LIG    1       22.830 -16.834   4.521  0.00  0.00    -0.170 NA
ATOM     17  C   LIG    1       22.106 -17.898   4.762  0.00  0.00    +0.207 A 
BRANCH  15  18
ATOM     18  N   LIG    1       24.999 -16.356   3.538  0.00  0.00    +0.103 N 
ATOM     19  O   LIG    1       26.089 -16.780   3.144  0.00  0.00    -0.575 OA
ATOM     20  O   LIG    1       24.700 -15.146   3.637  0.00  0.00    +0.043 OA
ENDBRANCH  15  18
ENDBRANCH   1  14
TORSDOF 3
ENDMDL
MODEL 2
REMARK VINA RESULT:      -3.1      1.842      4.631
REMARK  Name = *****
REMARK                            x       y       z     vdW  Elec       q    Type
REMARK                         _______ _______ _______ _____ _____    ______ ____
ROOT
ATOM      1  S   LIG    1       24.971 -19.976   3.399  0.00  0.00    -0.041 S 
ENDROOT
BRANCH   1   2
ATOM      2  C   LIG    1       24.183 -18.432   3.740  0.00  0.00    +0.132 A 
ATOM      3  C   LIG    1       24.846 -17.230   3.630  0.00  0.00    +0.118 A 
ATOM      4  C   LIG    1       24.214 -16.057   3.995  0.00  0.00    +0.182 A 
ATOM      5  N   LIG    1       25.062 -14.989   3.890  0.00  0.00    -0.216 NA
ATOM      6  C   LIG    1       26.183 -15.489   3.419  0.00  0.00    +0.199 A 
ATOM      7  N   LIG    1       22.934 -16.003   4.401  0.00  0.00    -0.214 NA
ATOM      8  C   LIG    1       22.340 -17.202   4.410  0.00  0.00    +0.225 A 
ATOM      9  N   LIG    1       26.088 -16.838   3.212  0.00  0.00    -0.341 N 
ATOM     10  H   LIG    1       26.810 -17.439   2.828  0.00  0.00    +0.167 HD
ATOM     11  N   LIG    1       22.887 -18.404   4.127  0.00  0.00    -0.227 NA
ENDBRANCH   1   2
BRANCH   1  14
ATOM     12  C   LIG    1       23.068 -21.481   5.535  0.00  0.00    +0.151 C 
ATOM     13  N   LIG    1       24.430 -21.103   5.831  0.00  0.00    -0.323 N 
ATOM     14  C   LIG    1       25.347 -20.459   5.028  0.00  0.00    +0.182 A 
ATOM     15  C   LIG    1       26.490 -20.384   5.814  0.00  0.00    +0.399 A 
ATOM     16  N   LIG    1       26.270 -20.937   7.062  0.00  0.00    -0.170 NA
ATOM     17  C   LIG    1       25.026 -21.345   7.041  0.00  0.00    +0.207 A 
BRANCH  15  18
ATOM     18  N   LIG    1       27.793 -19.826   5.530  0.00  0.00    +0.103 N 
ATOM     19  O   LIG    1       28.791 -20.403   5.972  0.00  0.00    -0.575 OA
ATOM     20  O   LIG    1       27.820 -18.772   4.859  0.00  0.00    +0.043 OA
ENDBRANCH  15  18
ENDBRANCH   1  14
TORSDOF 3
ENDMDL
MODEL 3
REMARK VINA RESULT:      -2.6      2.059      5.015
REMARK  Name = *****
REMARK                            x       y       z     vdW  Elec       q    Type
REMARK                         _______ _______ _______ _____ _____    ______ ____
ROOT
ATOM      1  S   LIG    1       25.176 -19.618   3.239  0.00  0.00    -0.041 S 
ENDROOT
BRANCH   1   2
ATOM      2  C   LIG    1       25.258 -17.868   3.464  0.00  0.00    +0.132 A 
ATOM      3  C   LIG    1       24.187 -17.138   3.932  0.00  0.00    +0.118 A 
ATOM      4  C   LIG    1       24.270 -15.761   4.005  0.00  0.00    +0.182 A 
ATOM      5  N   LIG    1       23.083 -15.219   4.414  0.00  0.00    -0.216 NA
ATOM      6  C   LIG    1       22.296 -16.249   4.637  0.00  0.00    +0.199 A 
ATOM      7  N   LIG    1       25.383 -15.070   3.704  0.00  0.00    -0.214 NA
ATOM      8  C   LIG    1       26.399 -15.858   3.330  0.00  0.00    +0.225 A 
ATOM      9  N   LIG    1       22.934 -17.435   4.393  0.00  0.00    -0.341 N 
ATOM     10  H   LIG    1       22.545 -18.363   4.520  0.00  0.00    +0.167 HD
ATOM     11  N   LIG    1       26.397 -17.200   3.173  0.00  0.00    -0.227 NA
ENDBRANCH   1   2
BRANCH   1  14
ATOM     12  C   LIG    1       22.695 -20.616   5.055  0.00  0.00    +0.151 C 
ATOM     13  N   LIG    1       24.045 -20.520   5.559  0.00  0.00    -0.323 N 
ATOM     14  C   LIG    1       25.190 -20.112   4.908  0.00  0.00    +0.182 A 
ATOM     15  C   LIG    1       26.189 -20.249   5.862  0.00  0.00    +0.399 A 
ATOM     16  N   LIG    1       25.670 -20.700   7.062  0.00  0.00    -0.170 NA
ATOM     17  C   LIG    1       24.386 -20.840   6.848  0.00  0.00    +0.207 A 
BRANCH  15  18
ATOM     18  N   LIG    1       27.609 -19.987   5.784  0.00  0.00    +0.103 N 
ATOM     19  O   LIG    1       27.990 -18.972   5.196  0.00  0.00    -0.575 OA
ATOM     20  O   LIG    1       28.366 -20.829   6.313  0.00  0.00    +0.043 OA
ENDBRANCH  15  18
ENDBRANCH   1  14
TORSDOF 3
ENDMDL
MODEL 4
REMARK VINA RESULT:      -2.5      1.907      2.648
REMARK  Name = *****
REMARK                            x       y       z     vdW  Elec       q    Type
REMARK                         _______ _______ _______ _____ _____    ______ ____
ROOT
ATOM      1  S   LIG    1       25.225 -19.422   3.087  0.00  0.00    -0.041 S 
ENDROOT
BRANCH   1   2
ATOM      2  C   LIG    1       25.661 -20.136   4.643  0.00  0.00    +0.132 A 
ATOM      3  C   LIG    1       26.874 -19.889   5.249  0.00  0.00    +0.118 A 
ATOM      4  C   LIG    1       27.205 -20.542   6.420  0.00  0.00    +0.182 A 
ATOM      5  N   LIG    1       28.475 -20.224   6.817  0.00  0.00    -0.216 NA
ATOM      6  C   LIG    1       28.900 -19.351   5.931  0.00  0.00    +0.199 A 
ATOM      7  N   LIG    1       26.371 -21.378   7.062  0.00  0.00    -0.214 NA
ATOM      8  C   LIG    1       25.189 -21.506   6.448  0.00  0.00    +0.225 A 
ATOM      9  N   LIG    1       27.950 -19.089   4.982  0.00  0.00    -0.341 N 
ATOM     10  H   LIG    1       28.034 -18.431   4.214  0.00  0.00    +0.167 HD
ATOM     11  N   LIG    1       24.795 -20.958   5.277  0.00  0.00    -0.227 NA
ENDBRANCH   1   2
BRANCH   1  14
ATOM     12  C   LIG    1       26.302 -16.377   3.241  0.00  0.00    +0.151 C 
ATOM     13  N   LIG    1       24.975 -16.760   3.663  0.00  0.00    -0.323 N 
ATOM     14  C   LIG    1       24.387 -18.007   3.659  0.00  0.00    +0.182 A 
ATOM     15  C   LIG    1       23.105 -17.778   4.140  0.00  0.00    +0.399 A 
ATOM     16  N   LIG    1       22.924 -16.444   4.454  0.00  0.00    -0.170 NA
ATOM     17  C   LIG    1       24.065 -15.868   4.167  0.00  0.00    +0.207 A 
BRANCH  15  18
ATOM     18  N   LIG    1       22.005 -18.690   4.362  0.00  0.00    +0.103 N 
ATOM     19  O   LIG    1       20.978 -18.550   3.690  0.00  0.00    -0.575 OA
ATOM     20  O   LIG    1       22.165 -19.561   5.243  0.00  0.00    +0.043 OA
ENDBRANCH  15  18
ENDBRANCH   1  14
TORSDOF 3
ENDMDL
MODEL 5
REMARK VINA RESULT:      -2.5      2.472      5.166
REMARK  Name = *****
REMARK                            x       y       z     vdW  Elec       q    Type
REMARK                         _______ _______ _______ _____ _____    ______ ____
ROOT
ATOM      1  S   LIG    1       25.474 -19.508   3.357  0.00  0.00    -0.041 S 
ENDROOT
BRANCH   1   2
ATOM      2  C   LIG    1       24.509 -18.075   3.727  0.00  0.00    +0.132 A 
ATOM      3  C   LIG    1       25.029 -16.802   3.652  0.00  0.00    +0.118 A 
ATOM      4  C   LIG    1       24.262 -15.719   4.039  0.00  0.00    +0.182 A 
ATOM      5  N   LIG    1       24.981 -14.558   3.968  0.00  0.00    -0.216 NA
ATOM      6  C   LIG    1       26.157 -14.913   3.498  0.00  0.00    +0.199 A 
ATOM      7  N   LIG    1       22.982 -15.824   4.433  0.00  0.00    -0.214 NA
ATOM      8  C   LIG    1       22.531 -17.084   4.406  0.00  0.00    +0.225 A 
ATOM      9  N   LIG    1       26.220 -16.258   3.257  0.00  0.00    -0.341 N 
ATOM     10  H   LIG    1       27.010 -16.762   2.867  0.00  0.00    +0.167 HD
ATOM     11  N   LIG    1       23.216 -18.207   4.101  0.00  0.00    -0.227 NA
ENDBRANCH   1   2
BRANCH   1  14
ATOM     12  C   LIG    1       28.105 -19.304   5.225  0.00  0.00    +0.151 C 
ATOM     13  N   LIG    1       26.886 -19.949   5.656  0.00  0.00    -0.323 N 
ATOM     14  C   LIG    1       25.700 -20.113   4.973  0.00  0.00    +0.182 A 
ATOM     15  C   LIG    1       24.878 -20.772   5.878  0.00  0.00    +0.399 A 
ATOM     16  N   LIG    1       25.546 -21.025   7.061  0.00  0.00    -0.170 NA
ATOM     17  C   LIG    1       26.746 -20.531   6.889  0.00  0.00    +0.207 A 
BRANCH  15  18
ATOM     18  N   LIG    1       23.507 -21.216   5.754  0.00  0.00    +0.103 N 
ATOM     19  O   LIG    1       23.041 -21.385   4.624  0.00  0.00    -0.575 OA
ATOM     20  O   LIG    1       22.874 -21.387   6.818  0.00  0.00    +0.043 OA
ENDBRANCH  15  18
ENDBRANCH   1  14
TORSDOF 3
ENDMDL
MODEL 6
REMARK VINA RESULT:      -2.1      2.494      4.790
REMARK  Name = *****
REMARK                            x       y       z     vdW  Elec       q    Type
REMARK                         _______ _______ _______ _____ _____    ______ ____
ROOT
ATOM      1  S   LIG    1       25.805 -18.584   2.957  0.00  0.00    -0.041 S 
ENDROOT
BRANCH   1   2
ATOM      2  C   LIG    1       25.206 -17.016   3.507  0.00  0.00    +0.132 A 
ATOM      3  C   LIG    1       26.018 -15.906   3.583  0.00  0.00    +0.118 A 
ATOM      4  C   LIG    1       25.527 -14.725   4.105  0.00  0.00    +0.182 A 
ATOM      5  N   LIG    1       26.505 -13.772   4.170  0.00  0.00    -0.216 NA
ATOM      6  C   LIG    1       27.571 -14.341   3.650  0.00  0.00    +0.199 A 
ATOM      7  N   LIG    1       24.250 -14.564   4.493  0.00  0.00    -0.214 NA
ATOM      8  C   LIG    1       23.510 -15.665   4.317  0.00  0.00    +0.225 A 
ATOM      9  N   LIG    1       27.314 -15.623   3.247  0.00  0.00    -0.341 N 
ATOM     10  H   LIG    1       27.967 -16.252   2.792  0.00  0.00    +0.167 HD
ATOM     11  N   LIG    1       23.912 -16.876   3.873  0.00  0.00    -0.227 NA
ENDBRANCH   1   2
BRANCH   1  14
ATOM     12  C   LIG    1       23.212 -19.958   4.316  0.00  0.00    +0.151 C 
ATOM     13  N   LIG    1       24.525 -19.997   4.918  0.00  0.00    -0.323 N 
ATOM     14  C   LIG    1       25.708 -19.458   4.460  0.00  0.00    +0.182 A 
ATOM     15  C   LIG    1       26.641 -19.826   5.420  0.00  0.00    +0.399 A 
ATOM     16  N   LIG    1       26.045 -20.542   6.442  0.00  0.00    -0.170 NA
ATOM     17  C   LIG    1       24.779 -20.615   6.114  0.00  0.00    +0.207 A 
BRANCH  15  18
ATOM     18  N   LIG    1       28.061 -19.567   5.502  0.00  0.00    +0.103 N 
ATOM     19  O   LIG    1       28.497 -18.512   5.032  0.00  0.00    -0.575 OA
ATOM     20  O   LIG    1       28.764 -20.451   6.038  0.00  0.00    +0.043 OA
ENDBRANCH  15  18
ENDBRANCH   1  14
TORSDOF 3
ENDMDL
MODEL 7
REMARK VINA RESULT:      -2.0      1.483      2.809
REMARK  Name = *****
REMARK                            x       y       z     vdW  Elec       q    Type
REMARK                         _______ _______ _______ _____ _____    ______ ____
ROOT
ATOM      1  S   LIG    1       25.277 -18.903   2.894  0.00  0.00    -0.041 S 
ENDROOT
BRANCH   1   2
ATOM      2  C   LIG    1       25.822 -19.620   4.413  0.00  0.00    +0.132 A 
ATOM      3  C   LIG    1       25.000 -20.408   5.189  0.00  0.00    +0.118 A 
ATOM      4  C   LIG    1       25.443 -20.872   6.413  0.00  0.00    +0.182 A 
ATOM      5  N   LIG    1       24.458 -21.563   7.062  0.00  0.00    -0.216 NA
ATOM      6  C   LIG    1       23.440 -21.567   6.230  0.00  0.00    +0.199 A 
ATOM      7  N   LIG    1       26.684 -20.653   6.881  0.00  0.00    -0.214 NA
ATOM      8  C   LIG    1       27.442 -19.945   6.035  0.00  0.00    +0.225 A 
ATOM      9  N   LIG    1       23.734 -20.911   5.066  0.00  0.00    -0.341 N 
ATOM     10  H   LIG    1       23.122 -20.806   4.264  0.00  0.00    +0.167 HD
ATOM     11  N   LIG    1       27.083 -19.402   4.851  0.00  0.00    -0.227 NA
ENDBRANCH   1   2
BRANCH   1  14
ATOM     12  C   LIG    1       22.370 -18.278   4.163  0.00  0.00    +0.151 C 
ATOM     13  N   LIG    1       23.397 -17.272   4.027  0.00  0.00    -0.323 N 
ATOM     14  C   LIG    1       24.668 -17.391   3.506  0.00  0.00    +0.182 A 
ATOM     15  C   LIG    1       25.215 -16.124   3.655  0.00  0.00    +0.399 A 
ATOM     16  N   LIG    1       24.302 -15.253   4.221  0.00  0.00    -0.170 NA
ATOM     17  C   LIG    1       23.224 -15.970   4.419  0.00  0.00    +0.207 A 
BRANCH  15  18
ATOM     18  N   LIG    1       26.522 -15.615   3.306  0.00  0.00    +0.103 N 
ATOM     19  O   LIG    1       26.622 -14.859   2.336  0.00  0.00    -0.575 OA
ATOM     20  O   LIG    1       27.480 -15.995   4.014  0.00  0.00    +0.043 OA
ENDBRANCH  15  18
ENDBRANCH   1  14
TORSDOF 3
ENDMDL
MODEL 8
REMARK VINA RESULT:      -1.7      2.448      5.365
REMARK  Name = *****
REMARK                            x       y       z     vdW  Elec       q    Type
REMARK                         _______ _______ _______ _____ _____    ______ ____
ROOT
ATOM      1  S   LIG    1       25.340 -19.544   3.206  0.00  0.00    -0.041 S 
ENDROOT
BRANCH   1   2
ATOM      2  C   LIG    1       25.360 -17.794   3.450  0.00  0.00    +0.132 A 
ATOM      3  C   LIG    1       24.263 -17.107   3.922  0.00  0.00    +0.118 A 
ATOM      4  C   LIG    1       24.298 -15.729   4.009  0.00  0.00    +0.182 A 
ATOM      5  N   LIG    1       23.091 -15.233   4.420  0.00  0.00    -0.216 NA
ATOM      6  C   LIG    1       22.340 -16.292   4.629  0.00  0.00    +0.199 A 
ATOM      7  N   LIG    1       25.387 -14.997   3.719  0.00  0.00    -0.214 NA
ATOM      8  C   LIG    1       26.431 -15.745   3.341  0.00  0.00    +0.225 A 
ATOM      9  N   LIG    1       23.020 -17.452   4.376  0.00  0.00    -0.341 N 
ATOM     10  H   LIG    1       22.663 -18.394   4.492  0.00  0.00    +0.167 HD
ATOM     11  N   LIG    1       26.476 -17.084   3.170  0.00  0.00    -0.227 NA
ENDBRANCH   1   2
BRANCH   1  14
ATOM     12  C   LIG    1       27.897 -19.592   5.185  0.00  0.00    +0.151 C 
ATOM     13  N   LIG    1       26.580 -20.017   5.598  0.00  0.00    -0.323 N 
ATOM     14  C   LIG    1       25.410 -20.055   4.869  0.00  0.00    +0.182 A 
ATOM     15  C   LIG    1       24.463 -20.517   5.774  0.00  0.00    +0.399 A 
ATOM     16  N   LIG    1       25.038 -20.778   7.003  0.00  0.00    -0.170 NA
ATOM     17  C   LIG    1       26.305 -20.479   6.858  0.00  0.00    +0.207 A 
BRANCH  15  18
ATOM     18  N   LIG    1       23.047 -20.763   5.612  0.00  0.00    +0.103 N 
ATOM     19  O   LIG    1       22.441 -20.159   4.723  0.00  0.00    -0.575 OA
ATOM     20  O   LIG    1       22.523 -21.572   6.408  0.00  0.00    +0.043 OA
ENDBRANCH  15  18
ENDBRANCH   1  14
TORSDOF 3
ENDMDL
MODEL 9
REMARK VINA RESULT:      -1.2      3.191      5.415
REMARK  Name = *****
REMARK                            x       y       z     vdW  Elec       q    Type
REMARK                         _______ _______ _______ _____ _____    ______ ____
ROOT
ATOM      1  S   LIG    1       23.818 -14.830   4.404  0.00  0.00    -0.041 S 
ENDROOT
BRANCH   1   2
ATOM      2  C   LIG    1       24.342 -16.456   3.956  0.00  0.00    +0.132 A 
ATOM      3  C   LIG    1       23.547 -17.564   4.155  0.00  0.00    +0.118 A 
ATOM      4  C   LIG    1       24.037 -18.824   3.873  0.00  0.00    +0.182 A 
ATOM      5  N   LIG    1       23.131 -19.790   4.212  0.00  0.00    -0.216 NA
ATOM      6  C   LIG    1       22.080 -19.133   4.651  0.00  0.00    +0.199 A 
ATOM      7  N   LIG    1       25.251 -19.042   3.338  0.00  0.00    -0.214 NA
ATOM      8  C   LIG    1       25.929 -17.912   3.107  0.00  0.00    +0.225 A 
ATOM      9  N   LIG    1       22.272 -17.779   4.600  0.00  0.00    -0.341 N 
ATOM     10  H   LIG    1       21.597 -17.067   4.857  0.00  0.00    +0.167 HD
ATOM     11  N   LIG    1       25.560 -16.646   3.401  0.00  0.00    -0.227 NA
ENDBRANCH   1   2
BRANCH   1  14
ATOM     12  C   LIG    1       23.600 -12.902   1.818  0.00  0.00    +0.151 C 
ATOM     13  N   LIG    1       24.839 -13.122   2.528  0.00  0.00    -0.323 N 
ATOM     14  C   LIG    1       25.079 -13.911   3.633  0.00  0.00    +0.182 A 
ATOM     15  C   LIG    1       26.429 -13.719   3.898  0.00  0.00    +0.399 A 
ATOM     16  N   LIG    1       26.999 -12.864   2.973  0.00  0.00    -0.170 NA
ATOM     17  C   LIG    1       26.023 -12.536   2.163  0.00  0.00    +0.207 A 
BRANCH  15  18
ATOM     18  N   LIG    1       27.273 -14.269   4.935  0.00  0.00    +0.103 N 
ATOM     19  O   LIG    1       27.251 -13.746   6.053  0.00  0.00    -0.575 OA
ATOM     20  O   LIG    1       27.990 -15.242   4.619  0.00  0.00    +0.043 OA
ENDBRANCH  15  18
ENDBRANCH   1  14
TORSDOF 3
ENDMDL
