MODEL 1
REMARK VINA RESULT:      -5.6      0.000      0.000
REMARK  Name = *****
REMARK                            x       y       z     vdW  Elec       q    Type
REMARK                         _______ _______ _______ _____ _____    ______ ____
ROOT
ATOM      1  C   LIG    1       26.576 -20.287   6.977  0.00  0.00    +0.053 C 
ENDROOT
BRANCH   1   2
ATOM      2  C   LIG    1       25.273 -20.516   6.244  0.00  0.00    -0.046 A 
ATOM      3  C   LIG    1       24.103 -20.848   6.942  0.00  0.00    +0.003 A 
ATOM      4  C   LIG    1       22.903 -21.048   6.257  0.00  0.00    +0.000 A 
ATOM      5  C   LIG    1       22.861 -20.932   4.870  0.00  0.00    +0.000 A 
ATOM      6  C   LIG    1       24.021 -20.616   4.164  0.00  0.00    +0.000 A 
ATOM      7  C   LIG    1       25.220 -20.410   4.848  0.00  0.00    +0.003 A 
ENDBRANCH   1   2
BRANCH   1   8
ATOM      8  C   LIG    1       27.856 -20.610   6.163  0.00  0.00    +0.055 C 
ATOM      9  C   LIG    1       28.953 -21.193   7.062  0.00  0.00    +0.024 C 
BRANCH   8  11
ATOM     10  C   LIG    1       29.462 -18.751   6.109  0.00  0.00    +0.101 C 
ATOM     11  N   LIG    1       28.293 -19.366   5.495  0.00  0.00    -0.316 NA
ATOM     12  H   LIG    1       28.511 -19.575   4.519  0.00  0.00    +0.122 HD
ENDBRANCH   8  11
ENDBRANCH   1   8
TORSDOF 3
ENDMDL
MODEL 2
REMARK VINA RESULT:      -5.3      1.502      2.440
REMARK  Name = *****
REMARK                            x       y       z     vdW  Elec       q    Type
REMARK                         _______ _______ _______ _____ _____    ______ ____
ROOT
ATOM      1  C   LIG    1       25.739 -21.223   5.617  0.00  0.00    +0.053 C 
ENDROOT
BRANCH   1   2
ATOM      2  C   LIG    1       24.592 -20.368   5.127  0.00  0.00    -0.046 A 
ATOM      3  C   LIG    1       24.749 -19.510   4.030  0.00  0.00    +0.003 A 
ATOM      4  C   LIG    1       23.680 -18.733   3.580  0.00  0.00    +0.000 A 
ATOM      5  C   LIG    1       22.449 -18.794   4.228  0.00  0.00    +0.000 A 
ATOM      6  C   LIG    1       22.284 -19.633   5.328  0.00  0.00    +0.000 A 
ATOM      7  C   LIG    1       23.350 -20.415   5.776  0.00  0.00    +0.003 A 
ENDBRANCH   1   2
BRANCH   1   8
ATOM      8  C   LIG    1       26.893 -20.447   6.304  0.00  0.00    +0.055 C 
ATOM      9  C   LIG    1       27.734 -19.678   5.276  0.00  0.00    +0.024 C 
BRANCH   8  11
ATOM     10  C   LIG    1       29.134 -21.140   7.037  0.00  0.00    +0.101 C 
ATOM     11  N   LIG    1       27.705 -21.423   7.062  0.00  0.00    -0.316 NA
ATOM     12  H   LIG    1       27.391 -21.427   8.034  0.00  0.00    +0.122 HD
ENDBRANCH   8  11
ENDBRANCH   1   8
TORSDOF 3
ENDMDL
MODEL 3
REMARK VINA RESULT:      -5.1      1.469      2.197
REMARK  Name = *****
REMARK                            x       y       z     vdW  Elec       q    Type
REMARK                         _______ _______ _______ _____ _____    ______ ____
ROOT
ATOM      1  C   LIG    1       25.377 -21.386   4.726  0.00  0.00    +0.053 C 
ENDROOT
BRANCH   1   2
ATOM      2  C   LIG    1       24.253 -20.385   4.576  0.00  0.00    -0.046 A 
ATOM      3  C   LIG    1       22.989 -20.632   5.129  0.00  0.00    +0.003 A 
ATOM      4  C   LIG    1       21.962 -19.696   4.992  0.00  0.00    +0.000 A 
ATOM      5  C   LIG    1       22.181 -18.513   4.291  0.00  0.00    +0.000 A 
ATOM      6  C   LIG    1       23.430 -18.263   3.724  0.00  0.00    +0.000 A 
ATOM      7  C   LIG    1       24.460 -19.194   3.866  0.00  0.00    +0.003 A 
ENDBRANCH   1   2
BRANCH   1   8
ATOM      8  C   LIG    1       26.416 -21.051   5.829  0.00  0.00    +0.055 C 
ATOM      9  C   LIG    1       25.738 -20.440   7.062  0.00  0.00    +0.024 C 
BRANCH   8  11
ATOM     10  C   LIG    1       28.608 -19.967   6.068  0.00  0.00    +0.101 C 
ATOM     11  N   LIG    1       27.420 -20.140   5.241  0.00  0.00    -0.316 NA
ATOM     12  H   LIG    1       27.707 -20.507   4.333  0.00  0.00    +0.122 HD
ENDBRANCH   8  11
ENDBRANCH   1   8
TORSDOF 3
ENDMDL
MODEL 4
REMARK VINA RESULT:      -4.9      7.203      7.942
REMARK  Name = *****
REMARK                            x       y       z     vdW  Elec       q    Type
REMARK                         _______ _______ _______ _____ _____    ______ ____
ROOT
ATOM      1  C   LIG    1       26.401 -14.807   3.267  0.00  0.00    +0.053 C 
ENDROOT
BRANCH   1   2
ATOM      2  C   LIG    1       25.458 -13.628   3.167  0.00  0.00    -0.046 A 
ATOM      3  C   LIG    1       25.373 -12.871   1.990  0.00  0.00    +0.003 A 
ATOM      4  C   LIG    1       24.492 -11.791   1.906  0.00  0.00    +0.000 A 
ATOM      5  C   LIG    1       23.700 -11.447   2.998  0.00  0.00    +0.000 A 
ATOM      6  C   LIG    1       23.786 -12.183   4.178  0.00  0.00    +0.000 A 
ATOM      7  C   LIG    1       24.661 -13.267   4.262  0.00  0.00    +0.003 A 
ENDBRANCH   1   2
BRANCH   1   8
ATOM      8  C   LIG    1       27.668 -14.568   4.128  0.00  0.00    +0.055 C 
ATOM      9  C   LIG    1       27.314 -13.896   5.460  0.00  0.00    +0.024 C 
BRANCH   8  11
ATOM     10  C   LIG    1       29.006 -12.513   3.983  0.00  0.00    +0.101 C 
ATOM     11  N   LIG    1       28.609 -13.754   3.330  0.00  0.00    -0.316 NA
ATOM     12  H   LIG    1       29.447 -14.306   3.145  0.00  0.00    +0.122 HD
ENDBRANCH   8  11
ENDBRANCH   1   8
TORSDOF 3
ENDMDL
MODEL 5
REMARK VINA RESULT:      -4.8      6.515      8.484
REMARK  Name = *****
REMARK                            x       y       z     vdW  Elec       q    Type
REMARK                         _______ _______ _______ _____ _____    ______ ____
ROOT
ATOM      1  C   LIG    1       25.381 -14.930   3.720  0.00  0.00    +0.053 C 
ENDROOT
BRANCH   1   2
ATOM      2  C   LIG    1       26.603 -14.082   3.997  0.00  0.00    -0.046 A 
ATOM      3  C   LIG    1       27.565 -13.858   3.002  0.00  0.00    +0.003 A 
ATOM      4  C   LIG    1       28.684 -13.065   3.266  0.00  0.00    +0.000 A 
ATOM      5  C   LIG    1       28.862 -12.502   4.526  0.00  0.00    +0.000 A 
ATOM      6  C   LIG    1       27.920 -12.731   5.528  0.00  0.00    +0.000 A 
ATOM      7  C   LIG    1       26.798 -13.517   5.265  0.00  0.00    +0.003 A 
ENDBRANCH   1   2
BRANCH   1   8
ATOM      8  C   LIG    1       24.028 -14.286   4.118  0.00  0.00    +0.055 C 
ATOM      9  C   LIG    1       22.988 -15.355   4.475  0.00  0.00    +0.024 C 
BRANCH   8  11
ATOM     10  C   LIG    1       23.882 -12.022   3.173  0.00  0.00    +0.101 C 
ATOM     11  N   LIG    1       23.583 -13.437   2.992  0.00  0.00    -0.316 NA
ATOM     12  H   LIG    1       24.040 -13.759   2.137  0.00  0.00    +0.122 HD
ENDBRANCH   8  11
ENDBRANCH   1   8
TORSDOF 3
ENDMDL
MODEL 6
REMARK VINA RESULT:      -4.7      2.309      4.966
REMARK  Name = *****
REMARK                            x       y       z     vdW  Elec       q    Type
REMARK                         _______ _______ _______ _____ _____    ______ ____
ROOT
ATOM      1  C   LIG    1       24.148 -20.350   4.161  0.00  0.00    +0.053 C 
ENDROOT
BRANCH   1   2
ATOM      2  C   LIG    1       25.379 -20.388   5.040  0.00  0.00    -0.046 A 
ATOM      3  C   LIG    1       26.531 -19.667   4.697  0.00  0.00    +0.003 A 
ATOM      4  C   LIG    1       27.658 -19.701   5.521  0.00  0.00    +0.000 A 
ATOM      5  C   LIG    1       27.651 -20.466   6.685  0.00  0.00    +0.000 A 
ATOM      6  C   LIG    1       26.517 -21.199   7.028  0.00  0.00    +0.000 A 
ATOM      7  C   LIG    1       25.387 -21.160   6.209  0.00  0.00    +0.003 A 
ENDBRANCH   1   2
BRANCH   1   8
ATOM      8  C   LIG    1       22.837 -19.939   4.880  0.00  0.00    +0.055 C 
ATOM      9  C   LIG    1       21.919 -21.150   5.095  0.00  0.00    +0.024 C 
BRANCH   8  11
ATOM     10  C   LIG    1       22.305 -17.553   4.635  0.00  0.00    +0.101 C 
ATOM     11  N   LIG    1       22.185 -18.890   4.067  0.00  0.00    -0.316 NA
ATOM     12  H   LIG    1       22.605 -18.887   3.137  0.00  0.00    +0.122 HD
ENDBRANCH   8  11
ENDBRANCH   1   8
TORSDOF 3
ENDMDL
MODEL 7
REMARK VINA RESULT:      -4.2      2.474      3.372
REMARK  Name = *****
REMARK                            x       y       z     vdW  Elec       q    Type
REMARK                         _______ _______ _______ _____ _____    ______ ____
ROOT
ATOM      1  C   LIG    1       25.851 -18.315   3.162  0.00  0.00    +0.053 C 
ENDROOT
BRANCH   1   2
ATOM      2  C   LIG    1       24.762 -19.017   3.942  0.00  0.00    -0.046 A 
ATOM      3  C   LIG    1       25.043 -20.161   4.702  0.00  0.00    +0.003 A 
ATOM      4  C   LIG    1       24.031 -20.795   5.427  0.00  0.00    +0.000 A 
ATOM      5  C   LIG    1       22.729 -20.302   5.390  0.00  0.00    +0.000 A 
ATOM      6  C   LIG    1       22.435 -19.174   4.626  0.00  0.00    +0.000 A 
ATOM      7  C   LIG    1       23.446 -18.535   3.906  0.00  0.00    +0.003 A 
ENDBRANCH   1   2
BRANCH   1   8
ATOM      8  C   LIG    1       26.585 -17.182   3.925  0.00  0.00    +0.055 C 
ATOM      9  C   LIG    1       26.311 -15.815   3.286  0.00  0.00    +0.024 C 
BRANCH   8  11
ATOM     10  C   LIG    1       28.418 -18.386   5.032  0.00  0.00    +0.101 C 
ATOM     11  N   LIG    1       28.027 -17.507   3.938  0.00  0.00    -0.316 NA
ATOM     12  H   LIG    1       28.271 -17.957   3.055  0.00  0.00    +0.122 HD
ENDBRANCH   8  11
ENDBRANCH   1   8
TORSDOF 3
ENDMDL
MODEL 8
REMARK VINA RESULT:      -4.2      5.241      6.107
REMARK  Name = *****
REMARK                            x       y       z     vdW  Elec       q    Type
REMARK                         _______ _______ _______ _____ _____    ______ ____
ROOT
ATOM      1  C   LIG    1       23.305 -15.140   4.388  0.00  0.00    +0.053 C 
ENDROOT
BRANCH   1   2
ATOM      2  C   LIG    1       23.354 -16.646   4.249  0.00  0.00    -0.046 A 
ATOM      3  C   LIG    1       24.478 -17.283   3.706  0.00  0.00    +0.003 A 
ATOM      4  C   LIG    1       24.517 -18.674   3.592  0.00  0.00    +0.000 A 
ATOM      5  C   LIG    1       23.430 -19.441   4.005  0.00  0.00    +0.000 A 
ATOM      6  C   LIG    1       22.300 -18.818   4.533  0.00  0.00    +0.000 A 
ATOM      7  C   LIG    1       22.263 -17.427   4.653  0.00  0.00    +0.003 A 
ENDBRANCH   1   2
BRANCH   1   8
ATOM      8  C   LIG    1       24.426 -14.372   3.641  0.00  0.00    +0.055 C 
ATOM      9  C   LIG    1       25.457 -13.802   4.624  0.00  0.00    +0.024 C 
BRANCH   8  11
ATOM     10  C   LIG    1       23.916 -11.979   3.411  0.00  0.00    +0.101 C 
ATOM     11  N   LIG    1       23.787 -13.312   2.834  0.00  0.00    -0.316 NA
ATOM     12  H   LIG    1       24.209 -13.305   1.905  0.00  0.00    +0.122 HD
ENDBRANCH   8  11
ENDBRANCH   1   8
TORSDOF 3
ENDMDL
MODEL 9
REMARK VINA RESULT:      -4.1      6.000      6.856
REMARK  Name = *****
REMARK                            x       y       z     vdW  Elec       q    Type
REMARK                         _______ _______ _______ _____ _____    ______ ____
ROOT
ATOM      1  C   LIG    1       27.216 -15.193   3.378  0.00  0.00    +0.053 C 
ENDROOT
BRANCH   1   2
ATOM      2  C   LIG    1       26.066 -14.212   3.326  0.00  0.00    -0.046 A 
ATOM      3  C   LIG    1       25.900 -13.354   2.230  0.00  0.00    +0.003 A 
ATOM      4  C   LIG    1       24.828 -12.459   2.189  0.00  0.00    +0.000 A 
ATOM      5  C   LIG    1       23.922 -12.402   3.244  0.00  0.00    +0.000 A 
ATOM      6  C   LIG    1       24.085 -13.241   4.345  0.00  0.00    +0.000 A 
ATOM      7  C   LIG    1       25.151 -14.140   4.386  0.00  0.00    +0.003 A 
ENDBRANCH   1   2
BRANCH   1   8
ATOM      8  C   LIG    1       26.878 -16.575   3.996  0.00  0.00    +0.055 C 
ATOM      9  C   LIG    1       28.143 -17.285   4.495  0.00  0.00    +0.024 C 
BRANCH   8  11
ATOM     10  C   LIG    1       25.382 -18.465   3.518  0.00  0.00    +0.101 C 
ATOM     11  N   LIG    1       26.168 -17.367   2.970  0.00  0.00    -0.316 NA
ATOM     12  H   LIG    1       25.543 -16.749   2.450  0.00  0.00    +0.122 HD
ENDBRANCH   8  11
ENDBRANCH   1   8
TORSDOF 3
ENDMDL
