MODEL 1
REMARK VINA RESULT:      -7.3      0.000      0.000
REMARK  Name = *****
REMARK                            x       y       z     vdW  Elec       q    Type
REMARK                         _______ _______ _______ _____ _____    ______ ____
ROOT
ATOM      1  C   LIG    1       28.390 -21.251   7.700  0.00  0.00    +0.240 C 
ENDROOT
BRANCH   1   2
ATOM      2  O   LIG    1       27.960 -19.928   7.275  0.00  0.00    -0.456 OA
BRANCH   2   3
ATOM      3  C   LIG    1       27.962 -19.628   5.951  0.00  0.00    +0.307 C 
ATOM      4  O   LIG    1       28.856 -19.032   5.351  0.00  0.00    -0.251 OA
BRANCH   3   5
ATOM      5  C   LIG    1       26.735 -20.178   5.280  0.00  0.00    +0.120 C 
BRANCH   5   6
ATOM      6  C   LIG    1       26.223 -19.263   4.167  0.00  0.00    +0.011 C 
BRANCH   6   7
ATOM      7  C   LIG    1       24.953 -19.775   3.509  0.00  0.00    +0.000 C 
BRANCH   7   8
ATOM      8  C   LIG    1       24.371 -20.978   4.236  0.00  0.00    +0.000 C 
BRANCH   8   9
ATOM      9  C   LIG    1       22.938 -20.749   4.715  0.00  0.00    -0.000 C 
BRANCH   9  10
ATOM     10  C   LIG    1       22.579 -19.397   5.311  0.00  0.00    -0.000 C 
BRANCH  10  11
ATOM     11  C   LIG    1       22.010 -18.356   4.381  0.00  0.00    -0.000 C 
BRANCH  11  12
ATOM     12  C   LIG    1       22.149 -16.963   4.860  0.00  0.00    -0.000 C 
BRANCH  12  13
ATOM     13  C   LIG    1       23.311 -16.299   4.105  0.00  0.00    -0.000 C 
BRANCH  13  14
ATOM     14  C   LIG    1       23.490 -14.831   4.460  0.00  0.00    -0.000 C 
BRANCH  14  15
ATOM     15  C   LIG    1       24.670 -14.060   3.843  0.00  0.00    -0.000 C 
BRANCH  15  16
ATOM     16  C   LIG    1       25.908 -13.838   4.700  0.00  0.00    -0.003 C 
ATOM     17  C   LIG    1       27.178 -13.814   3.862  0.00  0.00    +0.004 C 
ENDBRANCH  15  16
ENDBRANCH  14  15
ENDBRANCH  13  14
ENDBRANCH  12  13
ENDBRANCH  11  12
ENDBRANCH  10  11
ENDBRANCH   9  10
ENDBRANCH   8   9
ENDBRANCH   7   8
ENDBRANCH   6   7
ENDBRANCH   5   6
ENDBRANCH   3   5
ENDBRANCH   2   3
ENDBRANCH   1   2
BRANCH   1  18
ATOM     18  C   LIG    1       27.183 -22.084   8.198  0.00  0.00    +0.279 C 
BRANCH  18  19
ATOM     19  O   LIG    1       26.080 -21.405   8.770  0.00  0.00    -0.461 OA
BRANCH  19  20
ATOM     20  C   LIG    1       24.943 -21.692   8.085  0.00  0.00    +0.307 C 
ATOM     21  O   LIG    1       24.022 -21.004   8.101  0.00  0.00    -0.251 OA
BRANCH  20  22
ATOM     22  C   LIG    1       25.176 -22.902   7.187  0.00  0.00    +0.120 C 
BRANCH  22  23
ATOM     23  C   LIG    1       23.851 -23.597   6.926  0.00  0.00    +0.011 C 
BRANCH  23  24
ATOM     24  C   LIG    1       23.923 -24.944   6.191  0.00  0.00    +0.000 C 
BRANCH  24  25
ATOM     25  C   LIG    1       25.147 -25.085   5.284  0.00  0.00    +0.000 C 
BRANCH  25  26
ATOM     26  C   LIG    1       25.179 -26.463   4.702  0.00  0.00    -0.000 C 
BRANCH  26  27
ATOM     27  C   LIG    1       25.956 -27.624   5.286  0.00  0.00    -0.000 C 
BRANCH  27  28
ATOM     28  C   LIG    1       25.086 -28.826   5.504  0.00  0.00    -0.000 C 
BRANCH  28  29
ATOM     29  C   LIG    1       24.429 -28.835   6.879  0.00  0.00    -0.000 C 
BRANCH  29  30
ATOM     30  C   LIG    1       25.118 -29.695   7.955  0.00  0.00    -0.000 C 
BRANCH  30  31
ATOM     31  C   LIG    1       26.024 -28.910   8.927  0.00  0.00    -0.000 C 
BRANCH  31  32
ATOM     32  C   LIG    1       26.881 -29.836   9.834  0.00  0.00    -0.000 C 
BRANCH  32  34
ATOM     33  C   LIG    1       26.913 -27.753  11.427  0.00  0.00    +0.004 C 
ATOM     34  C   LIG    1       27.510 -29.115  11.047  0.00  0.00    -0.003 C 
ENDBRANCH  32  34
ENDBRANCH  31  32
ENDBRANCH  30  31
ENDBRANCH  29  30
ENDBRANCH  28  29
ENDBRANCH  27  28
ENDBRANCH  26  27
ENDBRANCH  25  26
ENDBRANCH  24  25
ENDBRANCH  23  24
ENDBRANCH  22  23
ENDBRANCH  20  22
ENDBRANCH  19  20
ENDBRANCH  18  19
ENDBRANCH   1  18
BRANCH   1  35
ATOM     35  C   LIG    1       29.801 -21.192   8.388  0.00  0.00    +0.220 C 
BRANCH  35  36
ATOM     36  O   LIG    1       30.299 -19.981   8.888  0.00  0.00    -0.283 OA
BRANCH  36  37
ATOM     37  P   LIG    1       31.321 -19.064   8.076  0.00  0.00    +0.475 P 
ATOM     38  O   LIG    1       31.869 -19.496   6.759  0.00  0.00    -0.227 OA
BRANCH  37  39
ATOM     39  O   LIG    1       30.333 -17.878   7.795  0.00  0.00    -0.302 OA
ATOM     40  H   LIG    1       30.087 -17.830   6.866  0.00  0.00    +0.222 HD
ENDBRANCH  37  39
BRANCH  37  41
ATOM     41  O   LIG    1       32.282 -18.239   9.039  0.00  0.00    -0.284 OA
BRANCH  41  42
ATOM     42  C   LIG    1       32.153 -16.878   9.319  0.00  0.00    +0.205 C 
BRANCH  42  43
ATOM     43  C   LIG    1       32.356 -16.563  10.756  0.00  0.00    +0.166 C 
BRANCH  43  44
ATOM     44  O   LIG    1       32.912 -15.268  10.896  0.00  0.00    -0.387 OA
ATOM     45  H   LIG    1       33.403 -15.025  10.087  0.00  0.00    +0.210 HD
ENDBRANCH  43  44
BRANCH  43  46
ATOM     46  C   LIG    1       31.044 -16.909  11.465  0.00  0.00    +0.189 C 
BRANCH  46  47
ATOM     47  O   LIG    1       30.688 -18.279  11.393  0.00  0.00    -0.392 OA
ATOM     48  H   LIG    1       30.270 -18.433  10.528  0.00  0.00    +0.209 HD
ENDBRANCH  46  47
ENDBRANCH  43  46
ENDBRANCH  42  43
ENDBRANCH  41  42
ENDBRANCH  37  41
ENDBRANCH  36  37
ENDBRANCH  35  36
ENDBRANCH   1  35
TORSDOF 39
ENDMDL
MODEL 2
REMARK VINA RESULT:      -6.9      1.734      9.472
REMARK  Name = *****
REMARK                            x       y       z     vdW  Elec       q    Type
REMARK                         _______ _______ _______ _____ _____    ______ ____
ROOT
ATOM      1  C   LIG    1       27.660 -20.346   7.046  0.00  0.00    +0.240 C 
ENDROOT
BRANCH   1   2
ATOM      2  O   LIG    1       27.343 -21.600   7.713  0.00  0.00    -0.456 OA
BRANCH   2   3
ATOM      3  C   LIG    1       26.238 -21.667   8.499  0.00  0.00    +0.307 C 
ATOM      4  O   LIG    1       25.902 -20.830   9.336  0.00  0.00    -0.251 OA
BRANCH   3   5
ATOM      5  C   LIG    1       25.426 -22.888   8.173  0.00  0.00    +0.120 C 
BRANCH   5   6
ATOM      6  C   LIG    1       25.703 -23.409   6.763  0.00  0.00    +0.011 C 
BRANCH   6   7
ATOM      7  C   LIG    1       24.923 -24.668   6.427  0.00  0.00    +0.000 C 
BRANCH   7   8
ATOM      8  C   LIG    1       25.103 -25.089   4.976  0.00  0.00    +0.000 C 
BRANCH   8   9
ATOM      9  C   LIG    1       25.737 -26.473   4.831  0.00  0.00    -0.000 C 
BRANCH   9  10
ATOM     10  C   LIG    1       25.635 -27.444   5.997  0.00  0.00    -0.000 C 
BRANCH  10  11
ATOM     11  C   LIG    1       24.388 -28.283   6.095  0.00  0.00    -0.000 C 
BRANCH  11  12
ATOM     12  C   LIG    1       24.514 -29.471   6.969  0.00  0.00    -0.000 C 
BRANCH  12  13
ATOM     13  C   LIG    1       24.097 -30.715   6.167  0.00  0.00    -0.000 C 
BRANCH  13  14
ATOM     14  C   LIG    1       24.944 -31.937   6.485  0.00  0.00    -0.000 C 
BRANCH  14  15
ATOM     15  C   LIG    1       26.358 -32.032   5.888  0.00  0.00    -0.000 C 
BRANCH  15  16
ATOM     16  C   LIG    1       27.458 -32.650   6.740  0.00  0.00    -0.003 C 
ATOM     17  C   LIG    1       26.998 -32.886   8.171  0.00  0.00    +0.004 C 
ENDBRANCH  15  16
ENDBRANCH  14  15
ENDBRANCH  13  14
ENDBRANCH  12  13
ENDBRANCH  11  12
ENDBRANCH  10  11
ENDBRANCH   9  10
ENDBRANCH   8   9
ENDBRANCH   7   8
ENDBRANCH   6   7
ENDBRANCH   5   6
ENDBRANCH   3   5
ENDBRANCH   2   3
ENDBRANCH   1   2
BRANCH   1  18
ATOM     18  C   LIG    1       26.981 -20.281   5.655  0.00  0.00    +0.279 C 
BRANCH  18  19
ATOM     19  O   LIG    1       27.106 -19.092   4.896  0.00  0.00    -0.461 OA
BRANCH  19  20
ATOM     20  C   LIG    1       26.170 -19.062   3.911  0.00  0.00    +0.307 C 
ATOM     21  O   LIG    1       25.557 -19.987   3.613  0.00  0.00    -0.251 OA
BRANCH  20  22
ATOM     22  C   LIG    1       25.951 -17.624   3.455  0.00  0.00    +0.120 C 
BRANCH  22  23
ATOM     23  C   LIG    1       27.247 -16.845   3.608  0.00  0.00    +0.011 C 
BRANCH  23  24
ATOM     24  C   LIG    1       27.107 -15.359   3.971  0.00  0.00    +0.000 C 
BRANCH  24  25
ATOM     25  C   LIG    1       26.790 -14.461   2.774  0.00  0.00    +0.000 C 
BRANCH  25  26
ATOM     26  C   LIG    1       25.574 -13.642   3.075  0.00  0.00    -0.000 C 
BRANCH  26  27
ATOM     27  C   LIG    1       24.646 -13.880   4.247  0.00  0.00    -0.000 C 
BRANCH  27  28
ATOM     28  C   LIG    1       23.415 -14.633   3.841  0.00  0.00    -0.000 C 
BRANCH  28  29
ATOM     29  C   LIG    1       22.899 -15.554   4.941  0.00  0.00    -0.000 C 
BRANCH  29  30
ATOM     30  C   LIG    1       22.093 -16.782   4.476  0.00  0.00    -0.000 C 
BRANCH  30  31
ATOM     31  C   LIG    1       22.768 -18.141   4.757  0.00  0.00    -0.000 C 
BRANCH  31  32
ATOM     32  C   LIG    1       21.851 -19.350   4.422  0.00  0.00    -0.000 C 
BRANCH  32  34
ATOM     33  C   LIG    1       23.198 -20.596   6.296  0.00  0.00    +0.004 C 
ATOM     34  C   LIG    1       22.330 -20.686   5.033  0.00  0.00    -0.003 C 
ENDBRANCH  32  34
ENDBRANCH  31  32
ENDBRANCH  30  31
ENDBRANCH  29  30
ENDBRANCH  28  29
ENDBRANCH  27  28
ENDBRANCH  26  27
ENDBRANCH  25  26
ENDBRANCH  24  25
ENDBRANCH  23  24
ENDBRANCH  22  23
ENDBRANCH  20  22
ENDBRANCH  19  20
ENDBRANCH  18  19
ENDBRANCH   1  18
BRANCH   1  35
ATOM     35  C   LIG    1       29.130 -19.894   7.364  0.00  0.00    +0.220 C 
BRANCH  35  36
ATOM     36  O   LIG    1       29.725 -20.220   8.591  0.00  0.00    -0.283 OA
BRANCH  36  37
ATOM     37  P   LIG    1       31.293 -20.464   8.755  0.00  0.00    +0.475 P 
ATOM     38  O   LIG    1       31.830 -21.799   9.142  0.00  0.00    -0.227 OA
BRANCH  37  39
ATOM     39  O   LIG    1       31.682 -20.230   7.255  0.00  0.00    -0.302 OA
ATOM     40  H   LIG    1       32.637 -20.220   7.130  0.00  0.00    +0.222 HD
ENDBRANCH  37  39
BRANCH  37  41
ATOM     41  O   LIG    1       32.045 -19.178   9.313  0.00  0.00    -0.284 OA
BRANCH  41  42
ATOM     42  C   LIG    1       32.132 -17.955   8.648  0.00  0.00    +0.205 C 
BRANCH  42  43
ATOM     43  C   LIG    1       32.054 -16.791   9.567  0.00  0.00    +0.166 C 
BRANCH  43  44
ATOM     44  O   LIG    1       32.659 -15.658   8.969  0.00  0.00    -0.387 OA
ATOM     45  H   LIG    1       32.882 -14.997   9.654  0.00  0.00    +0.210 HD
ENDBRANCH  43  44
BRANCH  43  46
ATOM     46  C   LIG    1       30.603 -16.715  10.049  0.00  0.00    +0.189 C 
BRANCH  46  47
ATOM     47  O   LIG    1       30.264 -17.682  11.027  0.00  0.00    -0.392 OA
ATOM     48  H   LIG    1       29.322 -17.569  11.244  0.00  0.00    +0.209 HD
ENDBRANCH  46  47
ENDBRANCH  43  46
ENDBRANCH  42  43
ENDBRANCH  41  42
ENDBRANCH  37  41
ENDBRANCH  36  37
ENDBRANCH  35  36
ENDBRANCH   1  35
TORSDOF 39
ENDMDL
MODEL 3
REMARK VINA RESULT:      -6.9      1.305      9.123
REMARK  Name = *****
REMARK                            x       y       z     vdW  Elec       q    Type
REMARK                         _______ _______ _______ _____ _____    ______ ____
ROOT
ATOM      1  C   LIG    1       27.460 -20.501   6.879  0.00  0.00    +0.240 C 
ENDROOT
BRANCH   1   2
ATOM      2  O   LIG    1       26.824 -21.594   7.598  0.00  0.00    -0.456 OA
BRANCH   2   3
ATOM      3  C   LIG    1       25.793 -21.319   8.439  0.00  0.00    +0.307 C 
ATOM      4  O   LIG    1       25.867 -20.647   9.467  0.00  0.00    -0.251 OA
BRANCH   3   5
ATOM      5  C   LIG    1       24.511 -21.900   7.915  0.00  0.00    +0.120 C 
BRANCH   5   6
ATOM      6  C   LIG    1       24.747 -22.900   6.783  0.00  0.00    +0.011 C 
BRANCH   6   7
ATOM      7  C   LIG    1       23.808 -24.093   6.834  0.00  0.00    +0.000 C 
BRANCH   7   8
ATOM      8  C   LIG    1       24.016 -25.042   5.664  0.00  0.00    +0.000 C 
BRANCH   8   9
ATOM      9  C   LIG    1       25.444 -25.582   5.581  0.00  0.00    -0.000 C 
BRANCH   9  10
ATOM     10  C   LIG    1       25.712 -26.789   4.694  0.00  0.00    -0.000 C 
BRANCH  10  11
ATOM     11  C   LIG    1       25.984 -28.105   5.375  0.00  0.00    -0.000 C 
BRANCH  11  12
ATOM     12  C   LIG    1       24.790 -28.962   5.553  0.00  0.00    -0.000 C 
BRANCH  12  13
ATOM     13  C   LIG    1       24.408 -28.966   7.041  0.00  0.00    -0.000 C 
BRANCH  13  14
ATOM     14  C   LIG    1       25.503 -29.526   7.935  0.00  0.00    -0.000 C 
BRANCH  14  15
ATOM     15  C   LIG    1       26.111 -28.615   9.016  0.00  0.00    -0.000 C 
BRANCH  15  16
ATOM     16  C   LIG    1       26.239 -29.166  10.430  0.00  0.00    -0.003 C 
ATOM     17  C   LIG    1       27.336 -28.462  11.213  0.00  0.00    +0.004 C 
ENDBRANCH  15  16
ENDBRANCH  14  15
ENDBRANCH  13  14
ENDBRANCH  12  13
ENDBRANCH  11  12
ENDBRANCH  10  11
ENDBRANCH   9  10
ENDBRANCH   8   9
ENDBRANCH   7   8
ENDBRANCH   6   7
ENDBRANCH   5   6
ENDBRANCH   3   5
ENDBRANCH   2   3
ENDBRANCH   1   2
BRANCH   1  18
ATOM     18  C   LIG    1       26.770 -20.272   5.511  0.00  0.00    +0.279 C 
BRANCH  18  19
ATOM     19  O   LIG    1       27.146 -19.144   4.743  0.00  0.00    -0.461 OA
BRANCH  19  20
ATOM     20  C   LIG    1       26.225 -18.907   3.773  0.00  0.00    +0.307 C 
ATOM     21  O   LIG    1       25.522 -19.725   3.375  0.00  0.00    -0.251 OA
BRANCH  20  22
ATOM     22  C   LIG    1       26.158 -17.412   3.483  0.00  0.00    +0.120 C 
BRANCH  22  23
ATOM     23  C   LIG    1       27.478 -16.765   3.866  0.00  0.00    +0.011 C 
BRANCH  23  24
ATOM     24  C   LIG    1       27.474 -15.235   3.994  0.00  0.00    +0.000 C 
BRANCH  24  25
ATOM     25  C   LIG    1       26.958 -14.514   2.747  0.00  0.00    +0.000 C 
BRANCH  25  26
ATOM     26  C   LIG    1       25.816 -13.624   3.123  0.00  0.00    -0.000 C 
BRANCH  26  27
ATOM     27  C   LIG    1       25.181 -13.575   4.496  0.00  0.00    -0.000 C 
BRANCH  27  28
ATOM     28  C   LIG    1       23.696 -13.774   4.432  0.00  0.00    -0.000 C 
BRANCH  28  29
ATOM     29  C   LIG    1       23.309 -15.191   4.025  0.00  0.00    -0.000 C 
BRANCH  29  30
ATOM     30  C   LIG    1       22.568 -16.025   5.087  0.00  0.00    -0.000 C 
BRANCH  30  31
ATOM     31  C   LIG    1       21.813 -17.252   4.533  0.00  0.00    -0.000 C 
BRANCH  31  32
ATOM     32  C   LIG    1       22.734 -18.489   4.338  0.00  0.00    -0.000 C 
BRANCH  32  34
ATOM     33  C   LIG    1       22.140 -20.952   5.016  0.00  0.00    +0.004 C 
ATOM     34  C   LIG    1       22.596 -19.552   5.450  0.00  0.00    -0.003 C 
ENDBRANCH  32  34
ENDBRANCH  31  32
ENDBRANCH  30  31
ENDBRANCH  29  30
ENDBRANCH  28  29
ENDBRANCH  27  28
ENDBRANCH  26  27
ENDBRANCH  25  26
ENDBRANCH  24  25
ENDBRANCH  23  24
ENDBRANCH  22  23
ENDBRANCH  20  22
ENDBRANCH  19  20
ENDBRANCH  18  19
ENDBRANCH   1  18
BRANCH   1  35
ATOM     35  C   LIG    1       29.011 -20.487   7.130  0.00  0.00    +0.220 C 
BRANCH  35  36
ATOM     36  O   LIG    1       29.527 -20.762   8.404  0.00  0.00    -0.283 OA
BRANCH  36  37
ATOM     37  P   LIG    1       31.071 -20.590   8.768  0.00  0.00    +0.475 P 
ATOM     38  O   LIG    1       31.904 -21.757   9.173  0.00  0.00    -0.227 OA
BRANCH  37  39
ATOM     39  O   LIG    1       31.557 -20.152   7.342  0.00  0.00    -0.302 OA
ATOM     40  H   LIG    1       30.819 -20.023   6.738  0.00  0.00    +0.222 HD
ENDBRANCH  37  39
BRANCH  37  41
ATOM     41  O   LIG    1       31.370 -19.193   9.468  0.00  0.00    -0.284 OA
BRANCH  41  42
ATOM     42  C   LIG    1       31.630 -18.001   8.791  0.00  0.00    +0.205 C 
BRANCH  42  43
ATOM     43  C   LIG    1       32.315 -16.993   9.639  0.00  0.00    +0.166 C 
BRANCH  43  44
ATOM     44  O   LIG    1       32.676 -15.866   8.861  0.00  0.00    -0.387 OA
ATOM     45  H   LIG    1       31.896 -15.294   8.718  0.00  0.00    +0.210 HD
ENDBRANCH  43  44
BRANCH  43  46
ATOM     46  C   LIG    1       31.444 -16.810  10.885  0.00  0.00    +0.189 C 
BRANCH  46  47
ATOM     47  O   LIG    1       30.053 -16.755  10.619  0.00  0.00    -0.392 OA
ATOM     48  H   LIG    1       29.821 -17.534  10.084  0.00  0.00    +0.209 HD
ENDBRANCH  46  47
ENDBRANCH  43  46
ENDBRANCH  42  43
ENDBRANCH  41  42
ENDBRANCH  37  41
ENDBRANCH  36  37
ENDBRANCH  35  36
ENDBRANCH   1  35
TORSDOF 39
ENDMDL
MODEL 4
REMARK VINA RESULT:      -6.9      1.776      3.001
REMARK  Name = *****
REMARK                            x       y       z     vdW  Elec       q    Type
REMARK                         _______ _______ _______ _____ _____    ______ ____
ROOT
ATOM      1  C   LIG    1       27.505 -21.477   7.194  0.00  0.00    +0.240 C 
ENDROOT
BRANCH   1   2
ATOM      2  O   LIG    1       26.390 -20.542   7.182  0.00  0.00    -0.456 OA
BRANCH   2   3
ATOM      3  C   LIG    1       25.481 -20.587   8.190  0.00  0.00    +0.307 C 
ATOM      4  O   LIG    1       25.733 -20.462   9.388  0.00  0.00    -0.251 OA
BRANCH   3   5
ATOM      5  C   LIG    1       24.092 -20.753   7.646  0.00  0.00    +0.120 C 
BRANCH   5   6
ATOM      6  C   LIG    1       24.016 -20.451   6.149  0.00  0.00    +0.011 C 
BRANCH   6   7
ATOM      7  C   LIG    1       22.658 -19.928   5.713  0.00  0.00    +0.000 C 
BRANCH   7   8
ATOM      8  C   LIG    1       22.702 -19.285   4.335  0.00  0.00    +0.000 C 
BRANCH   8   9
ATOM      9  C   LIG    1       24.091 -19.333   3.698  0.00  0.00    -0.000 C 
BRANCH   9  10
ATOM     10  C   LIG    1       24.851 -18.029   3.513  0.00  0.00    -0.000 C 
BRANCH  10  11
ATOM     11  C   LIG    1       26.353 -18.106   3.421  0.00  0.00    -0.000 C 
BRANCH  11  12
ATOM     12  C   LIG    1       27.056 -16.853   3.775  0.00  0.00    -0.000 C 
BRANCH  12  13
ATOM     13  C   LIG    1       26.296 -15.672   3.150  0.00  0.00    -0.000 C 
BRANCH  13  14
ATOM     14  C   LIG    1       26.519 -14.363   3.891  0.00  0.00    -0.000 C 
BRANCH  14  15
ATOM     15  C   LIG    1       25.293 -13.577   4.387  0.00  0.00    -0.000 C 
BRANCH  15  16
ATOM     16  C   LIG    1       23.929 -13.939   3.817  0.00  0.00    -0.003 C 
ATOM     17  C   LIG    1       23.260 -15.047   4.615  0.00  0.00    +0.004 C 
ENDBRANCH  15  16
ENDBRANCH  14  15
ENDBRANCH  13  14
ENDBRANCH  12  13
ENDBRANCH  11  12
ENDBRANCH  10  11
ENDBRANCH   9  10
ENDBRANCH   8   9
ENDBRANCH   7   8
ENDBRANCH   6   7
ENDBRANCH   5   6
ENDBRANCH   3   5
ENDBRANCH   2   3
ENDBRANCH   1   2
BRANCH   1  18
ATOM     18  C   LIG    1       26.992 -22.938   7.227  0.00  0.00    +0.279 C 
BRANCH  18  19
ATOM     19  O   LIG    1       26.064 -23.353   6.241  0.00  0.00    -0.461 OA
BRANCH  19  20
ATOM     20  C   LIG    1       25.206 -24.270   6.758  0.00  0.00    +0.307 C 
ATOM     21  O   LIG    1       24.108 -24.024   6.994  0.00  0.00    -0.251 OA
BRANCH  20  22
ATOM     22  C   LIG    1       25.867 -25.643   6.768  0.00  0.00    +0.120 C 
BRANCH  22  23
ATOM     23  C   LIG    1       25.652 -26.315   5.423  0.00  0.00    +0.011 C 
BRANCH  23  24
ATOM     24  C   LIG    1       24.547 -27.380   5.364  0.00  0.00    +0.000 C 
BRANCH  24  25
ATOM     25  C   LIG    1       24.767 -28.550   6.324  0.00  0.00    +0.000 C 
BRANCH  25  26
ATOM     26  C   LIG    1       25.306 -29.722   5.567  0.00  0.00    -0.000 C 
BRANCH  26  27
ATOM     27  C   LIG    1       24.817 -31.145   5.726  0.00  0.00    -0.000 C 
BRANCH  27  28
ATOM     28  C   LIG    1       25.948 -32.105   5.941  0.00  0.00    -0.000 C 
BRANCH  28  29
ATOM     29  C   LIG    1       26.615 -31.932   7.301  0.00  0.00    -0.000 C 
BRANCH  29  30
ATOM     30  C   LIG    1       25.753 -32.278   8.530  0.00  0.00    -0.000 C 
BRANCH  30  31
ATOM     31  C   LIG    1       25.519 -31.106   9.504  0.00  0.00    -0.000 C 
BRANCH  31  32
ATOM     32  C   LIG    1       26.702 -30.098   9.530  0.00  0.00    -0.000 C 
BRANCH  32  34
ATOM     33  C   LIG    1       27.259 -28.117  11.156  0.00  0.00    +0.004 C 
ATOM     34  C   LIG    1       26.327 -28.707  10.088  0.00  0.00    -0.003 C 
ENDBRANCH  32  34
ENDBRANCH  31  32
ENDBRANCH  30  31
ENDBRANCH  29  30
ENDBRANCH  28  29
ENDBRANCH  27  28
ENDBRANCH  26  27
ENDBRANCH  25  26
ENDBRANCH  24  25
ENDBRANCH  23  24
ENDBRANCH  22  23
ENDBRANCH  20  22
ENDBRANCH  19  20
ENDBRANCH  18  19
ENDBRANCH   1  18
BRANCH   1  35
ATOM     35  C   LIG    1       28.705 -20.914   8.037  0.00  0.00    +0.220 C 
BRANCH  35  36
ATOM     36  O   LIG    1       29.989 -21.461   7.900  0.00  0.00    -0.283 OA
BRANCH  36  37
ATOM     37  P   LIG    1       31.059 -21.462   9.083  0.00  0.00    +0.475 P 
ATOM     38  O   LIG    1       30.761 -22.104  10.394  0.00  0.00    -0.227 OA
BRANCH  37  39
ATOM     39  O   LIG    1       32.133 -22.355   8.369  0.00  0.00    -0.302 OA
ATOM     40  H   LIG    1       32.334 -23.147   8.877  0.00  0.00    +0.222 HD
ENDBRANCH  37  39
BRANCH  37  41
ATOM     41  O   LIG    1       31.942 -20.138   9.094  0.00  0.00    -0.284 OA
BRANCH  41  42
ATOM     42  C   LIG    1       31.536 -18.906   8.583  0.00  0.00    +0.205 C 
BRANCH  42  43
ATOM     43  C   LIG    1       32.070 -17.756   9.357  0.00  0.00    +0.166 C 
BRANCH  43  44
ATOM     44  O   LIG    1       32.481 -16.725   8.477  0.00  0.00    -0.387 OA
ATOM     45  H   LIG    1       33.431 -16.534   8.606  0.00  0.00    +0.210 HD
ENDBRANCH  43  44
BRANCH  43  46
ATOM     46  C   LIG    1       31.044 -17.457  10.453  0.00  0.00    +0.189 C 
BRANCH  46  47
ATOM     47  O   LIG    1       29.789 -18.088  10.263  0.00  0.00    -0.392 OA
ATOM     48  H   LIG    1       29.102 -17.399  10.288  0.00  0.00    +0.209 HD
ENDBRANCH  46  47
ENDBRANCH  43  46
ENDBRANCH  42  43
ENDBRANCH  41  42
ENDBRANCH  37  41
ENDBRANCH  36  37
ENDBRANCH  35  36
ENDBRANCH   1  35
TORSDOF 39
ENDMDL
MODEL 5
REMARK VINA RESULT:      -6.8      1.333      2.900
REMARK  Name = *****
REMARK                            x       y       z     vdW  Elec       q    Type
REMARK                         _______ _______ _______ _____ _____    ______ ____
ROOT
ATOM      1  C   LIG    1       27.542 -21.349   7.613  0.00  0.00    +0.240 C 
ENDROOT
BRANCH   1   2
ATOM      2  O   LIG    1       27.249 -20.034   7.062  0.00  0.00    -0.456 OA
BRANCH   2   3
ATOM      3  C   LIG    1       27.327 -19.849   5.719  0.00  0.00    +0.307 C 
ATOM      4  O   LIG    1       28.348 -19.576   5.090  0.00  0.00    -0.251 OA
BRANCH   3   5
ATOM      5  C   LIG    1       25.991 -20.083   5.073  0.00  0.00    +0.120 C 
BRANCH   5   6
ATOM      6  C   LIG    1       25.909 -19.474   3.673  0.00  0.00    +0.011 C 
BRANCH   6   7
ATOM      7  C   LIG    1       25.513 -18.007   3.681  0.00  0.00    +0.000 C 
BRANCH   7   8
ATOM      8  C   LIG    1       26.620 -17.108   3.154  0.00  0.00    +0.000 C 
BRANCH   8   9
ATOM      9  C   LIG    1       26.627 -15.725   3.806  0.00  0.00    -0.000 C 
BRANCH   9  10
ATOM     10  C   LIG    1       25.701 -14.655   3.248  0.00  0.00    -0.000 C 
BRANCH  10  11
ATOM     11  C   LIG    1       24.611 -14.139   4.151  0.00  0.00    -0.000 C 
BRANCH  11  12
ATOM     12  C   LIG    1       23.282 -14.746   3.920  0.00  0.00    -0.000 C 
BRANCH  12  13
ATOM     13  C   LIG    1       23.004 -15.760   5.041  0.00  0.00    -0.000 C 
BRANCH  13  14
ATOM     14  C   LIG    1       21.948 -16.787   4.665  0.00  0.00    -0.000 C 
BRANCH  14  15
ATOM     15  C   LIG    1       22.403 -18.206   4.279  0.00  0.00    -0.000 C 
BRANCH  15  16
ATOM     16  C   LIG    1       22.435 -19.270   5.367  0.00  0.00    -0.003 C 
ATOM     17  C   LIG    1       22.279 -20.670   4.793  0.00  0.00    +0.004 C 
ENDBRANCH  15  16
ENDBRANCH  14  15
ENDBRANCH  13  14
ENDBRANCH  12  13
ENDBRANCH  11  12
ENDBRANCH  10  11
ENDBRANCH   9  10
ENDBRANCH   8   9
ENDBRANCH   7   8
ENDBRANCH   6   7
ENDBRANCH   5   6
ENDBRANCH   3   5
ENDBRANCH   2   3
ENDBRANCH   1   2
BRANCH   1  18
ATOM     18  C   LIG    1       26.357 -21.858   8.471  0.00  0.00    +0.279 C 
BRANCH  18  19
ATOM     19  O   LIG    1       25.116 -21.182   8.382  0.00  0.00    -0.461 OA
BRANCH  19  20
ATOM     20  C   LIG    1       24.182 -21.985   7.811  0.00  0.00    +0.307 C 
ATOM     21  O   LIG    1       23.056 -21.760   7.867  0.00  0.00    -0.251 OA
BRANCH  20  22
ATOM     22  C   LIG    1       24.869 -23.050   6.963  0.00  0.00    +0.120 C 
BRANCH  22  23
ATOM     23  C   LIG    1       23.873 -24.148   6.630  0.00  0.00    +0.011 C 
BRANCH  23  24
ATOM     24  C   LIG    1       24.356 -25.230   5.654  0.00  0.00    +0.000 C 
BRANCH  24  25
ATOM     25  C   LIG    1       25.742 -25.785   5.987  0.00  0.00    +0.000 C 
BRANCH  25  26
ATOM     26  C   LIG    1       25.605 -27.169   6.538  0.00  0.00    -0.000 C 
BRANCH  26  27
ATOM     27  C   LIG    1       24.332 -27.987   6.499  0.00  0.00    -0.000 C 
BRANCH  27  28
ATOM     28  C   LIG    1       24.337 -28.976   5.372  0.00  0.00    -0.000 C 
BRANCH  28  29
ATOM     29  C   LIG    1       25.445 -30.015   5.506  0.00  0.00    -0.000 C 
BRANCH  29  30
ATOM     30  C   LIG    1       25.059 -31.334   6.202  0.00  0.00    -0.000 C 
BRANCH  30  31
ATOM     31  C   LIG    1       25.892 -31.669   7.457  0.00  0.00    -0.000 C 
BRANCH  31  32
ATOM     32  C   LIG    1       25.829 -30.554   8.538  0.00  0.00    -0.000 C 
BRANCH  32  34
ATOM     33  C   LIG    1       24.369 -29.991  10.642  0.00  0.00    +0.004 C 
ATOM     34  C   LIG    1       24.426 -30.356   9.152  0.00  0.00    -0.003 C 
ENDBRANCH  32  34
ENDBRANCH  31  32
ENDBRANCH  30  31
ENDBRANCH  29  30
ENDBRANCH  28  29
ENDBRANCH  27  28
ENDBRANCH  26  27
ENDBRANCH  25  26
ENDBRANCH  24  25
ENDBRANCH  23  24
ENDBRANCH  22  23
ENDBRANCH  20  22
ENDBRANCH  19  20
ENDBRANCH  18  19
ENDBRANCH   1  18
BRANCH   1  35
ATOM     35  C   LIG    1       29.061 -21.477   7.990  0.00  0.00    +0.220 C 
BRANCH  35  36
ATOM     36  O   LIG    1       29.727 -20.422   8.630  0.00  0.00    -0.283 OA
BRANCH  36  37
ATOM     37  P   LIG    1       31.299 -20.427   8.899  0.00  0.00    +0.475 P 
ATOM     38  O   LIG    1       32.016 -21.681   9.265  0.00  0.00    -0.227 OA
BRANCH  37  39
ATOM     39  O   LIG    1       31.745 -20.053   7.443  0.00  0.00    -0.302 OA
ATOM     40  H   LIG    1       31.870 -19.104   7.340  0.00  0.00    +0.222 HD
ENDBRANCH  37  39
BRANCH  37  41
ATOM     41  O   LIG    1       31.798 -19.071   9.566  0.00  0.00    -0.284 OA
BRANCH  41  42
ATOM     42  C   LIG    1       31.693 -17.810   8.981  0.00  0.00    +0.205 C 
BRANCH  42  43
ATOM     43  C   LIG    1       32.410 -16.758   9.745  0.00  0.00    +0.166 C 
BRANCH  43  44
ATOM     44  O   LIG    1       32.815 -15.715   8.876  0.00  0.00    -0.387 OA
ATOM     45  H   LIG    1       33.447 -16.057   8.214  0.00  0.00    +0.210 HD
ENDBRANCH  43  44
BRANCH  43  46
ATOM     46  C   LIG    1       31.540 -16.438  10.964  0.00  0.00    +0.189 C 
BRANCH  46  47
ATOM     47  O   LIG    1       30.179 -16.805  10.819  0.00  0.00    -0.392 OA
ATOM     48  H   LIG    1       29.932 -17.344  11.591  0.00  0.00    +0.209 HD
ENDBRANCH  46  47
ENDBRANCH  43  46
ENDBRANCH  42  43
ENDBRANCH  41  42
ENDBRANCH  37  41
ENDBRANCH  36  37
ENDBRANCH  35  36
ENDBRANCH   1  35
TORSDOF 39
ENDMDL
MODEL 6
REMARK VINA RESULT:      -6.8      1.324      3.025
REMARK  Name = *****
REMARK                            x       y       z     vdW  Elec       q    Type
REMARK                         _______ _______ _______ _____ _____    ______ ____
ROOT
ATOM      1  C   LIG    1       28.166 -20.374   6.533  0.00  0.00    +0.240 C 
ENDROOT
BRANCH   1   2
ATOM      2  O   LIG    1       28.223 -19.465   5.398  0.00  0.00    -0.456 OA
BRANCH   2   3
ATOM      3  C   LIG    1       29.192 -18.513   5.364  0.00  0.00    +0.307 C 
ATOM      4  O   LIG    1       30.403 -18.724   5.318  0.00  0.00    -0.251 OA
BRANCH   3   5
ATOM      5  C   LIG    1       28.586 -17.140   5.329  0.00  0.00    +0.120 C 
BRANCH   5   6
ATOM      6  C   LIG    1       27.695 -16.930   4.104  0.00  0.00    +0.011 C 
BRANCH   6   7
ATOM      7  C   LIG    1       27.328 -15.474   3.874  0.00  0.00    +0.000 C 
BRANCH   7   8
ATOM      8  C   LIG    1       26.000 -15.321   3.148  0.00  0.00    +0.000 C 
BRANCH   8   9
ATOM      9  C   LIG    1       25.055 -14.334   3.833  0.00  0.00    -0.000 C 
BRANCH   9  10
ATOM     10  C   LIG    1       23.709 -14.841   4.327  0.00  0.00    -0.000 C 
BRANCH  10  11
ATOM     11  C   LIG    1       23.478 -16.330   4.309  0.00  0.00    -0.000 C 
BRANCH  11  12
ATOM     12  C   LIG    1       22.122 -16.746   4.732  0.00  0.00    -0.000 C 
BRANCH  12  13
ATOM     13  C   LIG    1       21.876 -18.182   4.242  0.00  0.00    -0.000 C 
BRANCH  13  14
ATOM     14  C   LIG    1       22.550 -19.231   5.113  0.00  0.00    -0.000 C 
BRANCH  14  15
ATOM     15  C   LIG    1       22.699 -20.661   4.565  0.00  0.00    -0.000 C 
BRANCH  15  16
ATOM     16  C   LIG    1       23.998 -21.027   3.860  0.00  0.00    -0.003 C 
ATOM     17  C   LIG    1       24.868 -19.806   3.608  0.00  0.00    +0.004 C 
ENDBRANCH  15  16
ENDBRANCH  14  15
ENDBRANCH  13  14
ENDBRANCH  12  13
ENDBRANCH  11  12
ENDBRANCH  10  11
ENDBRANCH   9  10
ENDBRANCH   8   9
ENDBRANCH   7   8
ENDBRANCH   6   7
ENDBRANCH   5   6
ENDBRANCH   3   5
ENDBRANCH   2   3
ENDBRANCH   1   2
BRANCH   1  18
ATOM     18  C   LIG    1       26.788 -21.079   6.600  0.00  0.00    +0.279 C 
BRANCH  18  19
ATOM     19  O   LIG    1       25.649 -20.310   6.938  0.00  0.00    -0.461 OA
BRANCH  19  20
ATOM     20  C   LIG    1       24.718 -21.089   7.546  0.00  0.00    +0.307 C 
ATOM     21  O   LIG    1       23.768 -20.657   8.026  0.00  0.00    -0.251 OA
BRANCH  20  22
ATOM     22  C   LIG    1       25.043 -22.560   7.305  0.00  0.00    +0.120 C 
BRANCH  22  23
ATOM     23  C   LIG    1       23.777 -23.294   6.897  0.00  0.00    +0.011 C 
BRANCH  23  24
ATOM     24  C   LIG    1       23.959 -24.731   6.388  0.00  0.00    +0.000 C 
BRANCH  24  25
ATOM     25  C   LIG    1       25.279 -24.960   5.650  0.00  0.00    +0.000 C 
BRANCH  25  26
ATOM     26  C   LIG    1       25.309 -26.352   5.102  0.00  0.00    -0.000 C 
BRANCH  26  27
ATOM     27  C   LIG    1       24.385 -27.468   5.541  0.00  0.00    -0.000 C 
BRANCH  27  28
ATOM     28  C   LIG    1       25.070 -28.430   6.465  0.00  0.00    -0.000 C 
BRANCH  28  29
ATOM     29  C   LIG    1       24.383 -29.790   6.513  0.00  0.00    -0.000 C 
BRANCH  29  30
ATOM     30  C   LIG    1       24.210 -30.415   7.911  0.00  0.00    -0.000 C 
BRANCH  30  31
ATOM     31  C   LIG    1       25.410 -31.254   8.395  0.00  0.00    -0.000 C 
BRANCH  31  32
ATOM     32  C   LIG    1       25.876 -30.870   9.827  0.00  0.00    -0.000 C 
BRANCH  32  34
ATOM     33  C   LIG    1       26.699 -28.381   9.893  0.00  0.00    +0.004 C 
ATOM     34  C   LIG    1       27.056 -29.874   9.855  0.00  0.00    -0.003 C 
ENDBRANCH  32  34
ENDBRANCH  31  32
ENDBRANCH  30  31
ENDBRANCH  29  30
ENDBRANCH  28  29
ENDBRANCH  27  28
ENDBRANCH  26  27
ENDBRANCH  25  26
ENDBRANCH  24  25
ENDBRANCH  23  24
ENDBRANCH  22  23
ENDBRANCH  20  22
ENDBRANCH  19  20
ENDBRANCH  18  19
ENDBRANCH   1  18
BRANCH   1  35
ATOM     35  C   LIG    1       28.952 -19.792   7.763  0.00  0.00    +0.220 C 
BRANCH  35  36
ATOM     36  O   LIG    1       29.608 -20.648   8.658  0.00  0.00    -0.283 OA
BRANCH  36  37
ATOM     37  P   LIG    1       31.193 -20.665   8.836  0.00  0.00    +0.475 P 
ATOM     38  O   LIG    1       31.918 -21.920   9.180  0.00  0.00    -0.227 OA
BRANCH  37  39
ATOM     39  O   LIG    1       31.557 -20.317   7.350  0.00  0.00    -0.302 OA
ATOM     40  H   LIG    1       31.656 -21.109   6.812  0.00  0.00    +0.222 HD
ENDBRANCH  37  39
BRANCH  37  41
ATOM     41  O   LIG    1       31.742 -19.304   9.451  0.00  0.00    -0.284 OA
BRANCH  41  42
ATOM     42  C   LIG    1       32.024 -18.153   8.715  0.00  0.00    +0.205 C 
BRANCH  42  43
ATOM     43  C   LIG    1       31.963 -16.916   9.534  0.00  0.00    +0.166 C 
BRANCH  43  44
ATOM     44  O   LIG    1       32.641 -15.862   8.873  0.00  0.00    -0.387 OA
ATOM     45  H   LIG    1       32.386 -15.003   9.264  0.00  0.00    +0.210 HD
ENDBRANCH  43  44
BRANCH  43  46
ATOM     46  C   LIG    1       30.500 -16.739   9.946  0.00  0.00    +0.189 C 
BRANCH  46  47
ATOM     47  O   LIG    1       30.320 -16.313  11.286  0.00  0.00    -0.392 OA
ATOM     48  H   LIG    1       29.387 -16.060  11.396  0.00  0.00    +0.209 HD
ENDBRANCH  46  47
ENDBRANCH  43  46
ENDBRANCH  42  43
ENDBRANCH  41  42
ENDBRANCH  37  41
ENDBRANCH  36  37
ENDBRANCH  35  36
ENDBRANCH   1  35
TORSDOF 39
ENDMDL
MODEL 7
REMARK VINA RESULT:      -6.7      1.450      2.867
REMARK  Name = *****
REMARK                            x       y       z     vdW  Elec       q    Type
REMARK                         _______ _______ _______ _____ _____    ______ ____
ROOT
ATOM      1  C   LIG    1       27.347 -21.715   7.076  0.00  0.00    +0.240 C 
ENDROOT
BRANCH   1   2
ATOM      2  O   LIG    1       26.453 -20.578   7.229  0.00  0.00    -0.456 OA
BRANCH   2   3
ATOM      3  C   LIG    1       25.593 -20.553   8.281  0.00  0.00    +0.307 C 
ATOM      4  O   LIG    1       25.912 -20.470   9.466  0.00  0.00    -0.251 OA
BRANCH   3   5
ATOM      5  C   LIG    1       24.169 -20.580   7.804  0.00  0.00    +0.120 C 
BRANCH   5   6
ATOM      6  C   LIG    1       24.067 -20.524   6.279  0.00  0.00    +0.011 C 
BRANCH   6   7
ATOM      7  C   LIG    1       22.813 -21.190   5.739  0.00  0.00    +0.000 C 
BRANCH   7   8
ATOM      8  C   LIG    1       22.015 -20.268   4.830  0.00  0.00    +0.000 C 
BRANCH   8   9
ATOM      9  C   LIG    1       22.848 -19.113   4.274  0.00  0.00    -0.000 C 
BRANCH   9  10
ATOM     10  C   LIG    1       22.341 -17.692   4.472  0.00  0.00    -0.000 C 
BRANCH  10  11
ATOM     11  C   LIG    1       23.279 -16.565   4.126  0.00  0.00    -0.000 C 
BRANCH  11  12
ATOM     12  C   LIG    1       22.980 -15.286   4.807  0.00  0.00    -0.000 C 
BRANCH  12  13
ATOM     13  C   LIG    1       23.475 -14.132   3.921  0.00  0.00    -0.000 C 
BRANCH  13  14
ATOM     14  C   LIG    1       24.973 -13.897   4.032  0.00  0.00    -0.000 C 
BRANCH  14  15
ATOM     15  C   LIG    1       25.807 -13.822   2.741  0.00  0.00    -0.000 C 
BRANCH  15  16
ATOM     16  C   LIG    1       27.288 -14.163   2.823  0.00  0.00    -0.003 C 
ATOM     17  C   LIG    1       27.874 -13.814   4.182  0.00  0.00    +0.004 C 
ENDBRANCH  15  16
ENDBRANCH  14  15
ENDBRANCH  13  14
ENDBRANCH  12  13
ENDBRANCH  11  12
ENDBRANCH  10  11
ENDBRANCH   9  10
ENDBRANCH   8   9
ENDBRANCH   7   8
ENDBRANCH   6   7
ENDBRANCH   5   6
ENDBRANCH   3   5
ENDBRANCH   2   3
ENDBRANCH   1   2
BRANCH   1  18
ATOM     18  C   LIG    1       26.566 -23.046   7.203  0.00  0.00    +0.279 C 
BRANCH  18  19
ATOM     19  O   LIG    1       25.724 -23.442   6.136  0.00  0.00    -0.461 OA
BRANCH  19  20
ATOM     20  C   LIG    1       24.970 -24.511   6.503  0.00  0.00    +0.307 C 
ATOM     21  O   LIG    1       23.865 -24.413   6.803  0.00  0.00    -0.251 OA
BRANCH  20  22
ATOM     22  C   LIG    1       25.748 -25.798   6.254  0.00  0.00    +0.120 C 
BRANCH  22  23
ATOM     23  C   LIG    1       24.901 -26.745   5.421  0.00  0.00    +0.011 C 
BRANCH  23  24
ATOM     24  C   LIG    1       24.360 -27.987   6.145  0.00  0.00    +0.000 C 
BRANCH  24  25
ATOM     25  C   LIG    1       25.114 -29.274   5.806  0.00  0.00    +0.000 C 
BRANCH  25  26
ATOM     26  C   LIG    1       25.192 -30.141   7.022  0.00  0.00    -0.000 C 
BRANCH  26  27
ATOM     27  C   LIG    1       24.222 -30.082   8.183  0.00  0.00    -0.000 C 
BRANCH  27  28
ATOM     28  C   LIG    1       24.911 -29.743   9.471  0.00  0.00    -0.000 C 
BRANCH  28  29
ATOM     29  C   LIG    1       26.090 -28.796   9.276  0.00  0.00    -0.000 C 
BRANCH  29  30
ATOM     30  C   LIG    1       26.969 -28.542  10.516  0.00  0.00    -0.000 C 
BRANCH  30  31
ATOM     31  C   LIG    1       26.599 -29.387  11.753  0.00  0.00    -0.000 C 
BRANCH  31  32
ATOM     32  C   LIG    1       26.519 -28.544  13.057  0.00  0.00    -0.000 C 
BRANCH  32  34
ATOM     33  C   LIG    1       23.956 -28.050  12.811  0.00  0.00    +0.004 C 
ATOM     34  C   LIG    1       25.371 -27.511  13.065  0.00  0.00    -0.003 C 
ENDBRANCH  32  34
ENDBRANCH  31  32
ENDBRANCH  30  31
ENDBRANCH  29  30
ENDBRANCH  28  29
ENDBRANCH  27  28
ENDBRANCH  26  27
ENDBRANCH  25  26
ENDBRANCH  24  25
ENDBRANCH  23  24
ENDBRANCH  22  23
ENDBRANCH  20  22
ENDBRANCH  19  20
ENDBRANCH  18  19
ENDBRANCH   1  18
BRANCH   1  35
ATOM     35  C   LIG    1       28.751 -21.419   7.715  0.00  0.00    +0.220 C 
BRANCH  35  36
ATOM     36  O   LIG    1       29.431 -20.229   7.419  0.00  0.00    -0.283 OA
BRANCH  36  37
ATOM     37  P   LIG    1       30.789 -19.805   8.140  0.00  0.00    +0.475 P 
ATOM     38  O   LIG    1       31.461 -20.710   9.114  0.00  0.00    -0.227 OA
BRANCH  37  39
ATOM     39  O   LIG    1       31.686 -19.766   6.855  0.00  0.00    -0.302 OA
ATOM     40  H   LIG    1       32.095 -18.903   6.730  0.00  0.00    +0.222 HD
ENDBRANCH  37  39
BRANCH  37  41
ATOM     41  O   LIG    1       30.855 -18.240   8.421  0.00  0.00    -0.284 OA
BRANCH  41  42
ATOM     42  C   LIG    1       31.708 -17.631   9.342  0.00  0.00    +0.205 C 
BRANCH  42  43
ATOM     43  C   LIG    1       31.043 -17.333  10.636  0.00  0.00    +0.166 C 
BRANCH  43  44
ATOM     44  O   LIG    1       30.734 -18.539  11.313  0.00  0.00    -0.387 OA
ATOM     45  H   LIG    1       30.484 -18.349  12.238  0.00  0.00    +0.210 HD
ENDBRANCH  43  44
BRANCH  43  46
ATOM     46  C   LIG    1       31.897 -16.268  11.328  0.00  0.00    +0.189 C 
BRANCH  46  47
ATOM     47  O   LIG    1       31.235 -15.584  12.379  0.00  0.00    -0.392 OA
ATOM     48  H   LIG    1       30.978 -14.706  12.048  0.00  0.00    +0.209 HD
ENDBRANCH  46  47
ENDBRANCH  43  46
ENDBRANCH  42  43
ENDBRANCH  41  42
ENDBRANCH  37  41
ENDBRANCH  36  37
ENDBRANCH  35  36
ENDBRANCH   1  35
TORSDOF 39
ENDMDL
MODEL 8
REMARK VINA RESULT:      -6.6      2.123      4.269
REMARK  Name = *****
REMARK                            x       y       z     vdW  Elec       q    Type
REMARK                         _______ _______ _______ _____ _____    ______ ____
ROOT
ATOM      1  C   LIG    1       25.619 -22.338   6.557  0.00  0.00    +0.240 C 
ENDROOT
BRANCH   1   2
ATOM      2  O   LIG    1       24.451 -22.229   7.418  0.00  0.00    -0.456 OA
BRANCH   2   3
ATOM      3  C   LIG    1       23.221 -22.131   6.850  0.00  0.00    +0.307 C 
ATOM      4  O   LIG    1       22.435 -23.061   6.676  0.00  0.00    -0.251 OA
BRANCH   3   5
ATOM      5  C   LIG    1       22.908 -20.703   6.505  0.00  0.00    +0.120 C 
BRANCH   5   6
ATOM      6  C   LIG    1       22.713 -20.499   5.002  0.00  0.00    +0.011 C 
BRANCH   6   7
ATOM      7  C   LIG    1       22.283 -19.087   4.641  0.00  0.00    +0.000 C 
BRANCH   7   8
ATOM      8  C   LIG    1       23.307 -18.377   3.768  0.00  0.00    +0.000 C 
BRANCH   8   9
ATOM      9  C   LIG    1       24.552 -19.223   3.502  0.00  0.00    -0.000 C 
BRANCH   9  10
ATOM     10  C   LIG    1       25.903 -18.526   3.435  0.00  0.00    -0.000 C 
BRANCH  10  11
ATOM     11  C   LIG    1       25.908 -17.045   3.157  0.00  0.00    -0.000 C 
BRANCH  11  12
ATOM     12  C   LIG    1       26.957 -16.288   3.875  0.00  0.00    -0.000 C 
BRANCH  12  13
ATOM     13  C   LIG    1       27.249 -14.996   3.096  0.00  0.00    -0.000 C 
BRANCH  13  14
ATOM     14  C   LIG    1       25.992 -14.213   2.753  0.00  0.00    -0.000 C 
BRANCH  14  15
ATOM     15  C   LIG    1       25.155 -13.620   3.899  0.00  0.00    -0.000 C 
BRANCH  15  16
ATOM     16  C   LIG    1       23.647 -13.824   3.867  0.00  0.00    -0.003 C 
ATOM     17  C   LIG    1       23.230 -15.073   4.629  0.00  0.00    +0.004 C 
ENDBRANCH  15  16
ENDBRANCH  14  15
ENDBRANCH  13  14
ENDBRANCH  12  13
ENDBRANCH  11  12
ENDBRANCH  10  11
ENDBRANCH   9  10
ENDBRANCH   8   9
ENDBRANCH   7   8
ENDBRANCH   6   7
ENDBRANCH   5   6
ENDBRANCH   3   5
ENDBRANCH   2   3
ENDBRANCH   1   2
BRANCH   1  18
ATOM     18  C   LIG    1       26.275 -23.734   6.701  0.00  0.00    +0.279 C 
BRANCH  18  19
ATOM     19  O   LIG    1       25.436 -24.872   6.782  0.00  0.00    -0.461 OA
BRANCH  19  20
ATOM     20  C   LIG    1       25.314 -25.455   5.562  0.00  0.00    +0.307 C 
ATOM     21  O   LIG    1       24.938 -24.884   4.639  0.00  0.00    -0.251 OA
BRANCH  20  22
ATOM     22  C   LIG    1       25.926 -26.852   5.597  0.00  0.00    +0.120 C 
BRANCH  22  23
ATOM     23  C   LIG    1       25.386 -27.607   6.799  0.00  0.00    +0.011 C 
BRANCH  23  24
ATOM     24  C   LIG    1       24.624 -28.906   6.499  0.00  0.00    +0.000 C 
BRANCH  24  25
ATOM     25  C   LIG    1       25.078 -30.096   7.347  0.00  0.00    +0.000 C 
BRANCH  25  26
ATOM     26  C   LIG    1       25.531 -29.609   8.687  0.00  0.00    -0.000 C 
BRANCH  26  27
ATOM     27  C   LIG    1       24.710 -29.699   9.956  0.00  0.00    -0.000 C 
BRANCH  27  28
ATOM     28  C   LIG    1       25.550 -30.075  11.140  0.00  0.00    -0.000 C 
BRANCH  28  29
ATOM     29  C   LIG    1       25.416 -29.088  12.294  0.00  0.00    -0.000 C 
BRANCH  29  30
ATOM     30  C   LIG    1       26.149 -27.743  12.126  0.00  0.00    -0.000 C 
BRANCH  30  31
ATOM     31  C   LIG    1       26.220 -26.883  13.405  0.00  0.00    -0.000 C 
BRANCH  31  32
ATOM     32  C   LIG    1       24.896 -26.903  14.219  0.00  0.00    -0.000 C 
BRANCH  32  34
ATOM     33  C   LIG    1       22.466 -26.701  13.254  0.00  0.00    +0.004 C 
ATOM     34  C   LIG    1       23.785 -26.009  13.627  0.00  0.00    -0.003 C 
ENDBRANCH  32  34
ENDBRANCH  31  32
ENDBRANCH  30  31
ENDBRANCH  29  30
ENDBRANCH  28  29
ENDBRANCH  27  28
ENDBRANCH  26  27
ENDBRANCH  25  26
ENDBRANCH  24  25
ENDBRANCH  23  24
ENDBRANCH  22  23
ENDBRANCH  20  22
ENDBRANCH  19  20
ENDBRANCH  18  19
ENDBRANCH   1  18
BRANCH   1  35
ATOM     35  C   LIG    1       26.391 -20.973   6.479  0.00  0.00    +0.220 C 
BRANCH  35  36
ATOM     36  O   LIG    1       27.129 -20.509   7.577  0.00  0.00    -0.283 OA
BRANCH  36  37
ATOM     37  P   LIG    1       28.723 -20.544   7.627  0.00  0.00    +0.475 P 
ATOM     38  O   LIG    1       29.447 -21.487   8.526  0.00  0.00    -0.227 OA
BRANCH  37  39
ATOM     39  O   LIG    1       28.950 -21.045   6.158  0.00  0.00    -0.302 OA
ATOM     40  H   LIG    1       28.615 -20.417   5.510  0.00  0.00    +0.222 HD
ENDBRANCH  37  39
BRANCH  37  41
ATOM     41  O   LIG    1       29.362 -19.105   7.399  0.00  0.00    -0.284 OA
BRANCH  41  42
ATOM     42  C   LIG    1       30.724 -18.816   7.481  0.00  0.00    +0.205 C 
BRANCH  42  43
ATOM     43  C   LIG    1       31.198 -18.662   8.880  0.00  0.00    +0.166 C 
BRANCH  43  44
ATOM     44  O   LIG    1       32.277 -19.545   9.129  0.00  0.00    -0.387 OA
ATOM     45  H   LIG    1       31.963 -20.326   9.625  0.00  0.00    +0.210 HD
ENDBRANCH  43  44
BRANCH  43  46
ATOM     46  C   LIG    1       31.374 -17.159   9.116  0.00  0.00    +0.189 C 
BRANCH  46  47
ATOM     47  O   LIG    1       32.648 -16.659   8.748  0.00  0.00    -0.392 OA
ATOM     48  H   LIG    1       33.232 -16.729   9.524  0.00  0.00    +0.209 HD
ENDBRANCH  46  47
ENDBRANCH  43  46
ENDBRANCH  42  43
ENDBRANCH  41  42
ENDBRANCH  37  41
ENDBRANCH  36  37
ENDBRANCH  35  36
ENDBRANCH   1  35
TORSDOF 39
ENDMDL
MODEL 9
REMARK VINA RESULT:      -6.5      1.568      3.410
REMARK  Name = *****
REMARK                            x       y       z     vdW  Elec       q    Type
REMARK                         _______ _______ _______ _____ _____    ______ ____
ROOT
ATOM      1  C   LIG    1       29.999 -19.387   6.988  0.00  0.00    +0.240 C 
ENDROOT
BRANCH   1   2
ATOM      2  O   LIG    1       29.853 -18.383   5.946  0.00  0.00    -0.456 OA
BRANCH   2   3
ATOM      3  C   LIG    1       28.723 -18.375   5.192  0.00  0.00    +0.307 C 
ATOM      4  O   LIG    1       27.993 -19.343   4.984  0.00  0.00    -0.251 OA
BRANCH   3   5
ATOM      5  C   LIG    1       28.435 -16.993   4.680  0.00  0.00    +0.120 C 
BRANCH   5   6
ATOM      6  C   LIG    1       27.144 -16.933   3.864  0.00  0.00    +0.011 C 
BRANCH   6   7
ATOM      7  C   LIG    1       26.849 -15.549   3.311  0.00  0.00    +0.000 C 
BRANCH   7   8
ATOM      8  C   LIG    1       27.099 -14.453   4.336  0.00  0.00    +0.000 C 
BRANCH   8   9
ATOM      9  C   LIG    1       25.825 -13.708   4.735  0.00  0.00    -0.000 C 
BRANCH   9  10
ATOM     10  C   LIG    1       24.565 -13.931   3.911  0.00  0.00    -0.000 C 
BRANCH  10  11
ATOM     11  C   LIG    1       23.464 -14.749   4.534  0.00  0.00    -0.000 C 
BRANCH  11  12
ATOM     12  C   LIG    1       23.436 -16.167   4.110  0.00  0.00    -0.000 C 
BRANCH  12  13
ATOM     13  C   LIG    1       22.239 -16.856   4.784  0.00  0.00    -0.000 C 
BRANCH  13  14
ATOM     14  C   LIG    1       22.103 -18.320   4.399  0.00  0.00    -0.000 C 
BRANCH  14  15
ATOM     15  C   LIG    1       23.359 -19.083   3.941  0.00  0.00    -0.000 C 
BRANCH  15  16
ATOM     16  C   LIG    1       23.919 -20.160   4.859  0.00  0.00    -0.003 C 
ATOM     17  C   LIG    1       23.090 -20.310   6.126  0.00  0.00    +0.004 C 
ENDBRANCH  15  16
ENDBRANCH  14  15
ENDBRANCH  13  14
ENDBRANCH  12  13
ENDBRANCH  11  12
ENDBRANCH  10  11
ENDBRANCH   9  10
ENDBRANCH   8   9
ENDBRANCH   7   8
ENDBRANCH   6   7
ENDBRANCH   5   6
ENDBRANCH   3   5
ENDBRANCH   2   3
ENDBRANCH   1   2
BRANCH   1  18
ATOM     18  C   LIG    1       28.638 -19.667   7.672  0.00  0.00    +0.279 C 
BRANCH  18  19
ATOM     19  O   LIG    1       28.387 -20.965   8.177  0.00  0.00    -0.461 OA
BRANCH  19  20
ATOM     20  C   LIG    1       27.052 -21.214   8.194  0.00  0.00    +0.307 C 
ATOM     21  O   LIG    1       26.351 -20.775   8.992  0.00  0.00    -0.251 OA
BRANCH  20  22
ATOM     22  C   LIG    1       26.653 -21.959   6.925  0.00  0.00    +0.120 C 
BRANCH  22  23
ATOM     23  C   LIG    1       25.949 -23.252   7.300  0.00  0.00    +0.011 C 
BRANCH  23  24
ATOM     24  C   LIG    1       24.484 -23.381   6.861  0.00  0.00    +0.000 C 
BRANCH  24  25
ATOM     25  C   LIG    1       24.092 -24.796   6.430  0.00  0.00    +0.000 C 
BRANCH  25  26
ATOM     26  C   LIG    1       24.685 -25.090   5.089  0.00  0.00    -0.000 C 
BRANCH  26  27
ATOM     27  C   LIG    1       25.622 -26.243   4.798  0.00  0.00    -0.000 C 
BRANCH  27  28
ATOM     28  C   LIG    1       26.075 -26.926   6.054  0.00  0.00    -0.000 C 
BRANCH  28  29
ATOM     29  C   LIG    1       25.484 -28.323   6.210  0.00  0.00    -0.000 C 
BRANCH  29  30
ATOM     30  C   LIG    1       24.877 -28.653   7.587  0.00  0.00    -0.000 C 
BRANCH  30  31
ATOM     31  C   LIG    1       25.218 -30.059   8.122  0.00  0.00    -0.000 C 
BRANCH  31  32
ATOM     32  C   LIG    1       25.622 -30.051   9.623  0.00  0.00    -0.000 C 
BRANCH  32  34
ATOM     33  C   LIG    1       27.482 -28.939  11.099  0.00  0.00    +0.004 C 
ATOM     34  C   LIG    1       26.360 -28.769  10.066  0.00  0.00    -0.003 C 
ENDBRANCH  32  34
ENDBRANCH  31  32
ENDBRANCH  30  31
ENDBRANCH  29  30
ENDBRANCH  28  29
ENDBRANCH  27  28
ENDBRANCH  26  27
ENDBRANCH  25  26
ENDBRANCH  24  25
ENDBRANCH  23  24
ENDBRANCH  22  23
ENDBRANCH  20  22
ENDBRANCH  19  20
ENDBRANCH  18  19
ENDBRANCH   1  18
BRANCH   1  35
ATOM     35  C   LIG    1       31.376 -19.235   7.728  0.00  0.00    +0.220 C 
BRANCH  35  36
ATOM     36  O   LIG    1       31.730 -18.020   8.331  0.00  0.00    -0.283 OA
BRANCH  36  37
ATOM     37  P   LIG    1       31.258 -17.612   9.799  0.00  0.00    +0.475 P 
ATOM     38  O   LIG    1       30.076 -16.731  10.013  0.00  0.00    -0.227 OA
BRANCH  37  39
ATOM     39  O   LIG    1       30.852 -19.049  10.277  0.00  0.00    -0.302 OA
ATOM     40  H   LIG    1       31.581 -19.499  10.717  0.00  0.00    +0.222 HD
ENDBRANCH  37  39
BRANCH  37  41
ATOM     41  O   LIG    1       32.485 -17.457  10.801  0.00  0.00    -0.284 OA
BRANCH  41  42
ATOM     42  C   LIG    1       32.985 -16.241  11.267  0.00  0.00    +0.205 C 
BRANCH  42  43
ATOM     43  C   LIG    1       32.487 -15.893  12.622  0.00  0.00    +0.166 C 
BRANCH  43  44
ATOM     44  O   LIG    1       31.137 -15.469  12.551  0.00  0.00    -0.387 OA
ATOM     45  H   LIG    1       30.621 -15.873  13.275  0.00  0.00    +0.210 HD
ENDBRANCH  43  44
BRANCH  43  46
ATOM     46  C   LIG    1       32.872 -17.058  13.538  0.00  0.00    +0.189 C 
BRANCH  46  47
ATOM     47  O   LIG    1       32.592 -16.836  14.910  0.00  0.00    -0.392 OA
ATOM     48  H   LIG    1       33.376 -17.101  15.421  0.00  0.00    +0.209 HD
ENDBRANCH  46  47
ENDBRANCH  43  46
ENDBRANCH  42  43
ENDBRANCH  41  42
ENDBRANCH  37  41
ENDBRANCH  36  37
ENDBRANCH  35  36
ENDBRANCH   1  35
TORSDOF 39
ENDMDL
