MODEL 1
REMARK VINA RESULT:       4.9      0.000      0.000
REMARK  Name = *****
REMARK                            x       y       z     vdW  Elec       q    Type
REMARK                         _______ _______ _______ _____ _____    ______ ____
ROOT
ATOM      1  C   LIG    1       22.985 -20.477   4.059  0.00  0.00    +0.132 C 
ATOM      2  C   LIG    1       23.426 -19.168   4.805  0.00  0.00    +0.014 C 
ATOM      3  C   LIG    1       24.895 -18.969   4.308  0.00  0.00    +0.002 C 
ATOM      4  C   LIG    1       25.109 -18.001   3.107  0.00  0.00    -0.003 C 
ATOM      5  C   LIG    1       24.221 -16.732   3.170  0.00  0.00    -0.000 C 
ATOM      6  C   LIG    1       22.762 -17.174   3.242  0.00  0.00    +0.005 C 
ATOM      7  C   LIG    1       24.688 -15.788   4.311  0.00  0.00    +0.019 C 
ATOM      8  C   LIG    1       26.125 -15.406   4.009  0.00  0.00    -0.063 C 
ATOM      9  C   LIG    1       26.518 -14.161   3.693  0.00  0.00    +0.045 C 
ATOM     10  C   LIG    1       25.524 -13.071   3.517  0.00  0.00    +0.156 C 
ATOM     11  C   LIG    1       24.060 -13.438   3.551  0.00  0.00    +0.079 C 
ATOM     12  O   LIG    1       25.913 -11.935   3.265  0.00  0.00    -0.293 OA
ATOM     13  C   LIG    1       27.075 -16.573   3.989  0.00  0.00    +0.031 C 
ATOM     14  C   LIG    1       23.816 -14.546   4.562  0.00  0.00    +0.016 C 
ATOM     15  C   LIG    1       26.601 -17.605   2.957  0.00  0.00    +0.008 C 
ATOM     16  C   LIG    1       25.406 -20.391   3.950  0.00  0.00    +0.008 C 
ATOM     17  C   LIG    1       22.471 -17.970   4.502  0.00  0.00    +0.011 C 
ATOM     18  C   LIG    1       24.225 -21.361   4.052  0.00  0.00    +0.049 C 
ENDROOT
BRANCH   1  20
ATOM     19  C   LIG    1       20.854 -21.568   5.159  0.00  0.00    +0.007 C 
ATOM     20  C   LIG    1       21.817 -21.074   4.662  0.00  0.00    -0.070 C 
ENDBRANCH   1  20
BRANCH   2  21
ATOM     21  C   LIG    1       23.412 -19.279   6.383  0.00  0.00    +0.007 C 
ATOM     22  C   LIG    1       23.804 -20.583   7.062  0.00  0.00    +0.004 C 
ENDBRANCH   2  21
BRANCH   1  23
ATOM     23  O   LIG    1       22.683 -20.182   2.695  0.00  0.00    -0.376 OA
ATOM     24  H   LIG    1       22.310 -19.284   2.673  0.00  0.00    +0.211 HD
ENDBRANCH   1  23
TORSDOF 3
ENDMDL
