MODEL 1
REMARK VINA RESULT:      -5.8      0.000      0.000
REMARK  Name = *****
REMARK                            x       y       z     vdW  Elec       q    Type
REMARK                         _______ _______ _______ _____ _____    ______ ____
ROOT
ATOM      1  C   LIG    1       31.079 -20.574   8.742  0.00  0.00    +0.142 A 
ATOM      2  N   LIG    1       31.942 -19.610   9.167  0.00  0.00    -0.247 NA
ATOM      3  C   LIG    1       31.633 -18.346   8.800  0.00  0.00    +0.131 A 
ATOM      4  C   LIG    1       30.514 -18.042   8.043  0.00  0.00    +0.130 A 
ATOM      5  N   LIG    1       29.649 -18.989   7.615  0.00  0.00    -0.260 NA
ATOM      6  C   LIG    1       29.959 -20.261   7.982  0.00  0.00    +0.143 A 
ENDROOT
BRANCH   1   9
ATOM      7  N   LIG    1       32.176 -22.778   8.507  0.00  0.00    -0.265 NA
ATOM      8  H   LIG    1       32.237 -23.693   8.947  0.00  0.00    +0.190 HD
ATOM      9  C   LIG    1       31.387 -21.975   9.126  0.00  0.00    +0.233 C 
BRANCH   9  10
ATOM     10  O   LIG    1       30.749 -22.387  10.235  0.00  0.00    -0.491 OA
ATOM     11  H   LIG    1       29.790 -22.300  10.140  0.00  0.00    +0.294 HD
ENDBRANCH   9  10
ENDBRANCH   1   9
TORSDOF 2
ENDMDL
MODEL 2
REMARK VINA RESULT:      -5.6      2.137      3.545
REMARK  Name = *****
REMARK                            x       y       z     vdW  Elec       q    Type
REMARK                         _______ _______ _______ _____ _____    ______ ____
ROOT
ATOM      1  C   LIG    1       31.434 -18.487   8.921  0.00  0.00    +0.142 A 
ATOM      2  N   LIG    1       31.872 -19.746   9.199  0.00  0.00    -0.247 NA
ATOM      3  C   LIG    1       31.122 -20.751   8.692  0.00  0.00    +0.131 A 
ATOM      4  C   LIG    1       29.983 -20.523   7.937  0.00  0.00    +0.130 A 
ATOM      5  N   LIG    1       29.538 -19.279   7.653  0.00  0.00    -0.260 NA
ATOM      6  C   LIG    1       30.290 -18.267   8.163  0.00  0.00    +0.143 A 
ENDROOT
BRANCH   1   9
ATOM      7  N   LIG    1       32.570 -16.292   8.827  0.00  0.00    -0.265 NA
ATOM      8  H   LIG    1       33.120 -15.650   9.393  0.00  0.00    +0.190 HD
ATOM      9  C   LIG    1       32.233 -17.358   9.461  0.00  0.00    +0.233 C 
BRANCH   9  10
ATOM     10  O   LIG    1       32.612 -17.524  10.739  0.00  0.00    -0.491 OA
ATOM     11  H   LIG    1       32.208 -18.313  11.127  0.00  0.00    +0.294 HD
ENDBRANCH   9  10
ENDBRANCH   1   9
TORSDOF 2
ENDMDL
MODEL 3
REMARK VINA RESULT:      -5.6      1.816      2.212
REMARK  Name = *****
REMARK                            x       y       z     vdW  Elec       q    Type
REMARK                         _______ _______ _______ _____ _____    ______ ____
ROOT
ATOM      1  C   LIG    1       31.261 -19.292   9.204  0.00  0.00    +0.142 A 
ATOM      2  N   LIG    1       30.687 -18.915  10.380  0.00  0.00    -0.247 NA
ATOM      3  C   LIG    1       30.748 -17.594  10.662  0.00  0.00    +0.131 A 
ATOM      4  C   LIG    1       31.351 -16.678   9.815  0.00  0.00    +0.130 A 
ATOM      5  N   LIG    1       31.923 -17.040   8.645  0.00  0.00    -0.260 NA
ATOM      6  C   LIG    1       31.864 -18.368   8.360  0.00  0.00    +0.143 A 
ENDROOT
BRANCH   1   9
ATOM      7  N   LIG    1       30.368 -21.306   8.077  0.00  0.00    -0.265 NA
ATOM      8  H   LIG    1       30.521 -22.307   7.988  0.00  0.00    +0.190 HD
ATOM      9  C   LIG    1       31.213 -20.737   8.862  0.00  0.00    +0.233 C 
BRANCH   9  10
ATOM     10  O   LIG    1       32.167 -21.469   9.460  0.00  0.00    -0.491 OA
ATOM     11  H   LIG    1       32.276 -21.214  10.388  0.00  0.00    +0.294 HD
ENDBRANCH   9  10
ENDBRANCH   1   9
TORSDOF 2
ENDMDL
MODEL 4
REMARK VINA RESULT:      -5.5      2.680      3.504
REMARK  Name = *****
REMARK                            x       y       z     vdW  Elec       q    Type
REMARK                         _______ _______ _______ _____ _____    ______ ____
ROOT
ATOM      1  C   LIG    1       31.632 -17.960   9.842  0.00  0.00    +0.142 A 
ATOM      2  N   LIG    1       32.781 -17.533  10.434  0.00  0.00    -0.247 NA
ATOM      3  C   LIG    1       32.628 -16.610  11.410  0.00  0.00    +0.131 A 
ATOM      4  C   LIG    1       31.386 -16.127  11.790  0.00  0.00    +0.130 A 
ATOM      5  N   LIG    1       30.237 -16.543  11.211  0.00  0.00    -0.260 NA
ATOM      6  C   LIG    1       30.390 -17.470  10.228  0.00  0.00    +0.143 A 
ENDROOT
BRANCH   1   9
ATOM      7  N   LIG    1       31.688 -18.755   7.500  0.00  0.00    -0.265 NA
ATOM      8  H   LIG    1       31.805 -19.598   6.944  0.00  0.00    +0.190 HD
ATOM      9  C   LIG    1       31.762 -18.974   8.765  0.00  0.00    +0.233 C 
BRANCH   9  10
ATOM     10  O   LIG    1       31.977 -20.221   9.215  0.00  0.00    -0.491 OA
ATOM     11  H   LIG    1       32.262 -20.216  10.140  0.00  0.00    +0.294 HD
ENDBRANCH   9  10
ENDBRANCH   1   9
TORSDOF 2
ENDMDL
MODEL 5
REMARK VINA RESULT:      -5.5      1.620      2.133
REMARK  Name = *****
REMARK                            x       y       z     vdW  Elec       q    Type
REMARK                         _______ _______ _______ _____ _____    ______ ____
ROOT
ATOM      1  C   LIG    1       30.684 -20.698   8.249  0.00  0.00    +0.142 A 
ATOM      2  N   LIG    1       29.514 -20.906   7.585  0.00  0.00    -0.247 NA
ATOM      3  C   LIG    1       29.073 -19.868   6.839  0.00  0.00    +0.131 A 
ATOM      4  C   LIG    1       29.762 -18.669   6.751  0.00  0.00    +0.130 A 
ATOM      5  N   LIG    1       30.925 -18.450   7.404  0.00  0.00    -0.260 NA
ATOM      6  C   LIG    1       31.369 -19.492   8.156  0.00  0.00    +0.143 A 
ENDROOT
BRANCH   1   9
ATOM      7  N   LIG    1       30.729 -22.206  10.210  0.00  0.00    -0.265 NA
ATOM      8  H   LIG    1       31.239 -22.993  10.603  0.00  0.00    +0.190 HD
ATOM      9  C   LIG    1       31.199 -21.818   9.078  0.00  0.00    +0.233 C 
BRANCH   9  10
ATOM     10  O   LIG    1       32.260 -22.447   8.544  0.00  0.00    -0.491 OA
ATOM     11  H   LIG    1       32.522 -23.210   9.080  0.00  0.00    +0.294 HD
ENDBRANCH   9  10
ENDBRANCH   1   9
TORSDOF 2
ENDMDL
MODEL 6
REMARK VINA RESULT:      -5.4      2.272      3.329
REMARK  Name = *****
REMARK                            x       y       z     vdW  Elec       q    Type
REMARK                         _______ _______ _______ _____ _____    ______ ____
ROOT
ATOM      1  C   LIG    1       30.556 -19.117   7.483  0.00  0.00    +0.142 A 
ATOM      2  N   LIG    1       30.180 -18.317   6.448  0.00  0.00    -0.247 NA
ATOM      3  C   LIG    1       29.168 -18.786   5.684  0.00  0.00    +0.131 A 
ATOM      4  C   LIG    1       28.548 -19.999   5.931  0.00  0.00    +0.130 A 
ATOM      5  N   LIG    1       28.911 -20.804   6.956  0.00  0.00    -0.260 NA
ATOM      6  C   LIG    1       29.930 -20.334   7.724  0.00  0.00    +0.143 A 
ENDROOT
BRANCH   1   9
ATOM      7  N   LIG    1       32.195 -17.463   8.317  0.00  0.00    -0.265 NA
ATOM      8  H   LIG    1       32.944 -17.350   8.996  0.00  0.00    +0.190 HD
ATOM      9  C   LIG    1       31.665 -18.634   8.344  0.00  0.00    +0.233 C 
BRANCH   9  10
ATOM     10  O   LIG    1       32.119 -19.552   9.213  0.00  0.00    -0.491 OA
ATOM     11  H   LIG    1       32.945 -19.951   8.903  0.00  0.00    +0.294 HD
ENDBRANCH   9  10
ENDBRANCH   1   9
TORSDOF 2
ENDMDL
MODEL 7
REMARK VINA RESULT:      -5.3      2.549      3.719
REMARK  Name = *****
REMARK                            x       y       z     vdW  Elec       q    Type
REMARK                         _______ _______ _______ _____ _____    ______ ____
ROOT
ATOM      1  C   LIG    1       30.593 -18.297   9.313  0.00  0.00    +0.142 A 
ATOM      2  N   LIG    1       29.449 -18.897   8.885  0.00  0.00    -0.247 NA
ATOM      3  C   LIG    1       29.519 -19.493   7.674  0.00  0.00    +0.131 A 
ATOM      4  C   LIG    1       30.677 -19.499   6.912  0.00  0.00    +0.130 A 
ATOM      5  N   LIG    1       31.820 -18.907   7.326  0.00  0.00    -0.260 NA
ATOM      6  C   LIG    1       31.750 -18.305   8.543  0.00  0.00    +0.143 A 
ENDROOT
BRANCH   1   9
ATOM      7  N   LIG    1       30.288 -16.393  10.864  0.00  0.00    -0.265 NA
ATOM      8  H   LIG    1       30.317 -16.153  11.851  0.00  0.00    +0.190 HD
ATOM      9  C   LIG    1       30.552 -17.631  10.640  0.00  0.00    +0.233 C 
BRANCH   9  10
ATOM     10  O   LIG    1       30.828 -18.452  11.668  0.00  0.00    -0.491 OA
ATOM     11  H   LIG    1       30.194 -19.182  11.714  0.00  0.00    +0.294 HD
ENDBRANCH   9  10
ENDBRANCH   1   9
TORSDOF 2
ENDMDL
MODEL 8
REMARK VINA RESULT:      -5.1      2.950      3.945
REMARK  Name = *****
REMARK                            x       y       z     vdW  Elec       q    Type
REMARK                         _______ _______ _______ _____ _____    ______ ____
ROOT
ATOM      1  C   LIG    1       29.661 -19.397   6.753  0.00  0.00    +0.142 A 
ATOM      2  N   LIG    1       30.611 -18.447   6.972  0.00  0.00    -0.247 NA
ATOM      3  C   LIG    1       31.404 -18.649   8.048  0.00  0.00    +0.131 A 
ATOM      4  C   LIG    1       31.265 -19.749   8.879  0.00  0.00    +0.130 A 
ATOM      5  N   LIG    1       30.327 -20.701   8.672  0.00  0.00    -0.260 NA
ATOM      6  C   LIG    1       29.528 -20.498   7.591  0.00  0.00    +0.143 A 
ENDROOT
BRANCH   1   9
ATOM      7  N   LIG    1       27.801 -19.972   5.227  0.00  0.00    -0.265 NA
ATOM      8  H   LIG    1       27.326 -19.651   4.387  0.00  0.00    +0.190 HD
ATOM      9  C   LIG    1       28.772 -19.207   5.578  0.00  0.00    +0.233 C 
BRANCH   9  10
ATOM     10  O   LIG    1       29.060 -18.116   4.850  0.00  0.00    -0.491 OA
ATOM     11  H   LIG    1       29.740 -18.305   4.187  0.00  0.00    +0.294 HD
ENDBRANCH   9  10
ENDBRANCH   1   9
TORSDOF 2
ENDMDL
MODEL 9
REMARK VINA RESULT:      -4.9      2.541      2.851
REMARK  Name = *****
REMARK                            x       y       z     vdW  Elec       q    Type
REMARK                         _______ _______ _______ _____ _____    ______ ____
ROOT
ATOM      1  C   LIG    1       29.903 -19.517   8.100  0.00  0.00    +0.142 A 
ATOM      2  N   LIG    1       29.563 -18.753   9.174  0.00  0.00    -0.247 NA
ATOM      3  C   LIG    1       30.484 -17.842   9.557  0.00  0.00    +0.131 A 
ATOM      4  C   LIG    1       31.697 -17.688   8.906  0.00  0.00    +0.130 A 
ATOM      5  N   LIG    1       32.047 -18.439   7.837  0.00  0.00    -0.260 NA
ATOM      6  C   LIG    1       31.121 -19.358   7.451  0.00  0.00    +0.143 A 
ENDROOT
BRANCH   1   9
ATOM      7  N   LIG    1       27.819 -20.842   8.245  0.00  0.00    -0.265 NA
ATOM      8  H   LIG    1       27.294 -21.564   7.759  0.00  0.00    +0.190 HD
ATOM      9  C   LIG    1       28.914 -20.530   7.649  0.00  0.00    +0.233 C 
BRANCH   9  10
ATOM     10  O   LIG    1       29.252 -21.148   6.505  0.00  0.00    -0.491 OA
ATOM     11  H   LIG    1       30.117 -20.853   6.188  0.00  0.00    +0.294 HD
ENDBRANCH   9  10
ENDBRANCH   1   9
TORSDOF 2
ENDMDL
