MODEL 1
REMARK VINA RESULT:      32.7      0.000      0.000
REMARK  Name = *****
REMARK                            x       y       z     vdW  Elec       q    Type
REMARK                         _______ _______ _______ _____ _____    ______ ____
ROOT
ATOM      1  C   LIG    1       27.852 -12.384   3.597  0.00  0.00    +0.239 C 
ATOM      2  N   LIG    1       27.012 -12.924   2.671  0.00  0.00    -0.300 N 
ATOM      3  H   LIG    1       27.404 -12.853   1.737  0.00  0.00    +0.150 HD
ATOM      4  O   LIG    1       28.856 -11.815   3.145  0.00  0.00    -0.273 OA
ENDROOT
BRANCH   2   5
ATOM      5  CA  LIG    1       25.624 -13.422   2.816  0.00  0.00    +0.191 C 
ATOM      6  C   LIG    1       25.342 -14.823   2.153  0.00  0.00    +0.169 C 
ATOM      7  N   LIG    1       24.750 -15.216   3.415  0.00  0.00    -0.249 N 
ATOM      8  CA  LIG    1       24.571 -16.506   3.856  0.00  0.00    +0.123 C 
ATOM      9  C   LIG    1       25.081 -17.563   3.169  0.00  0.00    -0.021 C 
ATOM     10  C   LIG    1       25.929 -17.407   1.919  0.00  0.00    +0.104 C 
ATOM     11  S   LIG    1       26.814 -15.835   1.814  0.00  0.00    -0.131 S 
ATOM     12  C   LIG    1       25.216 -14.153   4.126  0.00  0.00    +0.244 C 
ATOM     13  O   LIG    1       25.372 -13.972   5.317  0.00  0.00    -0.273 OA
BRANCH   8  14
ATOM     14  C   LIG    1       23.680 -16.587   5.067  0.00  0.00    +0.351 C 
ATOM     15  O   LIG    1       22.927 -17.514   5.318  0.00  0.00    -0.244 OA
BRANCH  14  16
ATOM     16  OXT LIG    1       23.792 -15.582   5.944  0.00  0.00    -0.476 OA
ATOM     17  HXT LIG    1       24.080 -16.043   6.761  0.00  0.00    +0.295 HD
ENDBRANCH  14  16
ENDBRANCH   8  14
BRANCH   9  18
ATOM     18  C   LIG    1       24.927 -19.026   3.554  0.00  0.00    +0.111 C 
BRANCH  18  19
ATOM     19  S   LIG    1       23.275 -19.616   3.075  0.00  0.00    -0.080 S 
BRANCH  19  20
ATOM     20  C   LIG    1       22.833 -20.475   4.506  0.00  0.00    +0.209 A 
ATOM     21  N   LIG    1       23.686 -20.746   5.534  0.00  0.00    -0.223 N 
ATOM     22  C   LIG    1       25.064 -20.388   5.723  0.00  0.00    +0.177 C 
ATOM     23  N   LIG    1       23.030 -21.431   6.490  0.00  0.00    -0.043 NA
ATOM     24  N   LIG    1       21.789 -21.552   6.039  0.00  0.00    -0.022 NA
ATOM     25  N   LIG    1       21.650 -20.960   4.804  0.00  0.00    -0.102 NA
ENDBRANCH  19  20
ENDBRANCH  18  19
ENDBRANCH   9  18
ENDBRANCH   2   5
BRANCH   1  26
ATOM     26  CA  LIG    1       27.521 -12.363   5.113  0.00  0.00    +0.191 C 
BRANCH  26  34
ATOM     27  N   LIG    1       29.009 -18.518   6.389  0.00  0.00    -0.292 N 
ATOM     28  C   LIG    1       28.430 -18.494   5.123  0.00  0.00    +0.302 C 
ATOM     29  O   LIG    1       27.996 -19.491   4.561  0.00  0.00    -0.265 OA
ATOM     30  C   LIG    1       28.359 -17.114   4.417  0.00  0.00    +0.309 C 
ATOM     31  O   LIG    1       28.443 -17.112   3.193  0.00  0.00    -0.265 OA
ATOM     32  N   LIG    1       28.276 -15.985   5.247  0.00  0.00    -0.217 N 
ATOM     33  C   LIG    1       27.967 -14.751   4.689  0.00  0.00    +0.310 C 
ATOM     34  N   LIG    1       27.813 -13.719   5.590  0.00  0.00    -0.284 N 
ATOM     35  H   LIG    1       27.325 -13.934   6.448  0.00  0.00    +0.151 HD
ATOM     36  O   LIG    1       27.870 -14.522   3.487  0.00  0.00    -0.252 OA
ATOM     37  C   LIG    1       28.393 -16.183   6.691  0.00  0.00    +0.137 C 
ATOM     38  C   LIG    1       29.392 -17.280   7.031  0.00  0.00    +0.127 C 
BRANCH  27  40
ATOM     39  C   LIG    1       28.432 -20.915   6.511  0.00  0.00    +0.024 C 
ATOM     40  C   LIG    1       29.302 -19.788   7.042  0.00  0.00    +0.105 C 
ENDBRANCH  27  40
ENDBRANCH  26  34
BRANCH  26  41
ATOM     41  C   LIG    1       26.056 -12.050   5.427  0.00  0.00    -0.018 A 
ATOM     42  C   LIG    1       25.122 -11.705   4.433  0.00  0.00    +0.009 A 
ATOM     43  C   LIG    1       23.777 -11.497   4.739  0.00  0.00    +0.045 A 
ATOM     44  C   LIG    1       23.337 -11.642   6.044  0.00  0.00    +0.117 A 
ATOM     45  C   LIG    1       24.229 -11.982   7.055  0.00  0.00    +0.045 A 
ATOM     46  C   LIG    1       25.582 -12.188   6.746  0.00  0.00    +0.009 A 
BRANCH  44  47
ATOM     47  O   LIG    1       22.011 -11.450   6.287  0.00  0.00    -0.507 OA
ATOM     48  H   LIG    1       21.754 -11.989   7.053  0.00  0.00    +0.292 HD
ENDBRANCH  44  47
ENDBRANCH  26  41
ENDBRANCH   1  26
TORSDOF 11
ENDMDL
MODEL 2
REMARK VINA RESULT:      33.7      1.610      2.071
REMARK  Name = *****
REMARK                            x       y       z     vdW  Elec       q    Type
REMARK                         _______ _______ _______ _____ _____    ______ ____
ROOT
ATOM      1  C   LIG    1       26.508 -13.663   2.858  0.00  0.00    +0.239 C 
ATOM      2  N   LIG    1       25.272 -14.029   2.420  0.00  0.00    -0.300 N 
ATOM      3  H   LIG    1       25.286 -14.245   1.428  0.00  0.00    +0.150 HD
ATOM      4  O   LIG    1       27.377 -13.546   1.982  0.00  0.00    -0.273 OA
ENDROOT
BRANCH   2   5
ATOM      5  CA  LIG    1       23.965 -13.999   3.115  0.00  0.00    +0.191 C 
ATOM      6  C   LIG    1       22.974 -15.163   2.731  0.00  0.00    +0.169 C 
ATOM      7  N   LIG    1       22.808 -15.389   4.151  0.00  0.00    -0.249 N 
ATOM      8  CA  LIG    1       22.364 -16.550   4.738  0.00  0.00    +0.123 C 
ATOM      9  C   LIG    1       22.164 -17.678   4.004  0.00  0.00    -0.021 C 
ATOM     10  C   LIG    1       22.469 -17.766   2.520  0.00  0.00    +0.104 C 
ATOM     11  S   LIG    1       23.744 -16.617   1.956  0.00  0.00    -0.131 S 
ATOM     12  C   LIG    1       23.853 -14.609   4.541  0.00  0.00    +0.244 C 
ATOM     13  O   LIG    1       24.502 -14.566   5.567  0.00  0.00    -0.273 OA
BRANCH   8  14
ATOM     14  C   LIG    1       22.032 -16.374   6.196  0.00  0.00    +0.351 C 
ATOM     15  O   LIG    1       21.593 -15.349   6.693  0.00  0.00    -0.244 OA
BRANCH  14  16
ATOM     16  OXT LIG    1       22.182 -17.459   6.965  0.00  0.00    -0.476 OA
ATOM     17  HXT LIG    1       22.340 -18.168   6.305  0.00  0.00    +0.295 HD
ENDBRANCH  14  16
ENDBRANCH   8  14
BRANCH   9  18
ATOM     18  C   LIG    1       21.658 -19.007   4.545  0.00  0.00    +0.111 C 
BRANCH  18  19
ATOM     19  S   LIG    1       22.166 -20.354   3.435  0.00  0.00    -0.080 S 
BRANCH  19  20
ATOM     20  C   LIG    1       23.717 -20.723   4.096  0.00  0.00    +0.209 A 
ATOM     21  N   LIG    1       23.932 -21.100   5.389  0.00  0.00    -0.223 N 
ATOM     22  C   LIG    1       23.006 -21.320   6.463  0.00  0.00    +0.177 C 
ATOM     23  N   LIG    1       25.248 -21.309   5.580  0.00  0.00    -0.043 NA
ATOM     24  N   LIG    1       25.811 -21.074   4.402  0.00  0.00    -0.022 NA
ATOM     25  N   LIG    1       24.870 -20.709   3.467  0.00  0.00    -0.102 NA
ENDBRANCH  19  20
ENDBRANCH  18  19
ENDBRANCH   9  18
ENDBRANCH   2   5
BRANCH   1  26
ATOM     26  CA  LIG    1       26.792 -13.288   4.337  0.00  0.00    +0.191 C 
BRANCH  26  34
ATOM     27  N   LIG    1       28.891 -19.077   6.290  0.00  0.00    -0.292 N 
ATOM     28  C   LIG    1       27.833 -19.302   5.413  0.00  0.00    +0.302 C 
ATOM     29  O   LIG    1       27.237 -20.369   5.335  0.00  0.00    -0.265 OA
ATOM     30  C   LIG    1       27.423 -18.118   4.497  0.00  0.00    +0.309 C 
ATOM     31  O   LIG    1       26.985 -18.402   3.387  0.00  0.00    -0.265 OA
ATOM     32  N   LIG    1       27.658 -16.826   4.995  0.00  0.00    -0.217 N 
ATOM     33  C   LIG    1       27.101 -15.734   4.342  0.00  0.00    +0.310 C 
ATOM     34  N   LIG    1       27.304 -14.516   4.954  0.00  0.00    -0.284 N 
ATOM     35  H   LIG    1       27.230 -14.495   5.961  0.00  0.00    +0.151 HD
ATOM     36  O   LIG    1       26.499 -15.780   3.273  0.00  0.00    -0.252 OA
ATOM     37  C   LIG    1       28.378 -16.697   6.261  0.00  0.00    +0.137 C 
ATOM     38  C   LIG    1       29.465 -17.754   6.402  0.00  0.00    +0.127 C 
BRANCH  27  40
ATOM     39  C   LIG    1       28.636 -21.445   6.940  0.00  0.00    +0.024 C 
ATOM     40  C   LIG    1       29.474 -20.182   7.040  0.00  0.00    +0.105 C 
ENDBRANCH  27  40
ENDBRANCH  26  34
BRANCH  26  41
ATOM     41  C   LIG    1       25.553 -12.841   5.116  0.00  0.00    -0.018 A 
ATOM     42  C   LIG    1       25.615 -11.929   6.185  0.00  0.00    +0.009 A 
ATOM     43  C   LIG    1       24.461 -11.482   6.830  0.00  0.00    +0.045 A 
ATOM     44  C   LIG    1       23.220 -11.930   6.409  0.00  0.00    +0.117 A 
ATOM     45  C   LIG    1       23.117 -12.833   5.356  0.00  0.00    +0.045 A 
ATOM     46  C   LIG    1       24.278 -13.283   4.712  0.00  0.00    +0.009 A 
BRANCH  44  47
ATOM     47  O   LIG    1       22.123 -11.447   7.056  0.00  0.00    -0.507 OA
ATOM     48  H   LIG    1       21.346 -11.955   6.770  0.00  0.00    +0.292 HD
ENDBRANCH  44  47
ENDBRANCH  26  41
ENDBRANCH   1  26
TORSDOF 11
ENDMDL
MODEL 3
REMARK VINA RESULT:      34.0      2.410      7.676
REMARK  Name = *****
REMARK                            x       y       z     vdW  Elec       q    Type
REMARK                         _______ _______ _______ _____ _____    ______ ____
ROOT
ATOM      1  C   LIG    1       21.871 -19.565   4.121  0.00  0.00    +0.239 C 
ATOM      2  N   LIG    1       22.480 -20.186   3.073  0.00  0.00    -0.300 N 
ATOM      3  H   LIG    1       21.799 -20.642   2.474  0.00  0.00    +0.150 HD
ATOM      4  O   LIG    1       20.651 -19.756   4.224  0.00  0.00    -0.273 OA
ENDROOT
BRANCH   2   5
ATOM      5  CA  LIG    1       23.919 -20.408   2.800  0.00  0.00    +0.191 C 
ATOM      6  C   LIG    1       24.711 -19.136   2.312  0.00  0.00    +0.169 C 
ATOM      7  N   LIG    1       25.690 -19.448   3.331  0.00  0.00    -0.249 N 
ATOM      8  CA  LIG    1       26.593 -18.569   3.881  0.00  0.00    +0.123 C 
ATOM      9  C   LIG    1       26.547 -17.240   3.594  0.00  0.00    -0.021 C 
ATOM     10  C   LIG    1       25.477 -16.620   2.713  0.00  0.00    +0.104 C 
ATOM     11  S   LIG    1       23.922 -17.538   2.676  0.00  0.00    -0.131 S 
ATOM     12  C   LIG    1       24.928 -20.370   3.982  0.00  0.00    +0.244 C 
ATOM     13  O   LIG    1       24.979 -20.824   5.106  0.00  0.00    -0.273 OA
BRANCH   8  14
ATOM     14  C   LIG    1       27.652 -19.260   4.699  0.00  0.00    +0.351 C 
ATOM     15  O   LIG    1       28.548 -18.691   5.303  0.00  0.00    -0.244 OA
BRANCH  14  16
ATOM     16  OXT LIG    1       27.537 -20.589   4.803  0.00  0.00    -0.476 OA
ATOM     17  HXT LIG    1       28.460 -20.869   4.984  0.00  0.00    +0.295 HD
ENDBRANCH  14  16
ENDBRANCH   8  14
BRANCH   9  18
ATOM     18  C   LIG    1       27.504 -16.186   4.128  0.00  0.00    +0.111 C 
BRANCH  18  19
ATOM     19  S   LIG    1       27.743 -14.886   2.880  0.00  0.00    -0.080 S 
BRANCH  19  20
ATOM     20  C   LIG    1       28.302 -13.599   3.886  0.00  0.00    +0.209 A 
ATOM     21  N   LIG    1       27.766 -13.282   5.099  0.00  0.00    -0.223 N 
ATOM     22  C   LIG    1       26.705 -13.902   5.840  0.00  0.00    +0.177 C 
ATOM     23  N   LIG    1       28.427 -12.231   5.619  0.00  0.00    -0.043 NA
ATOM     24  N   LIG    1       29.363 -11.935   4.727  0.00  0.00    -0.022 NA
ATOM     25  N   LIG    1       29.298 -12.778   3.641  0.00  0.00    -0.102 NA
ENDBRANCH  19  20
ENDBRANCH  18  19
ENDBRANCH   9  18
ENDBRANCH   2   5
BRANCH   1  26
ATOM     26  CA  LIG    1       22.662 -18.775   5.196  0.00  0.00    +0.191 C 
BRANCH  26  34
ATOM     27  N   LIG    1       24.553 -13.014   2.969  0.00  0.00    -0.292 N 
ATOM     28  C   LIG    1       23.515 -12.782   3.868  0.00  0.00    +0.302 C 
ATOM     29  O   LIG    1       22.895 -11.728   3.923  0.00  0.00    -0.265 OA
ATOM     30  C   LIG    1       23.163 -13.940   4.838  0.00  0.00    +0.309 C 
ATOM     31  O   LIG    1       22.749 -13.626   5.949  0.00  0.00    -0.265 OA
ATOM     32  N   LIG    1       23.417 -15.243   4.382  0.00  0.00    -0.217 N 
ATOM     33  C   LIG    1       22.907 -16.324   5.091  0.00  0.00    +0.310 C 
ATOM     34  N   LIG    1       23.124 -17.559   4.519  0.00  0.00    -0.284 N 
ATOM     35  H   LIG    1       23.022 -17.619   3.516  0.00  0.00    +0.151 HD
ATOM     36  O   LIG    1       22.335 -16.252   6.175  0.00  0.00    -0.252 OA
ATOM     37  C   LIG    1       24.103 -15.403   3.101  0.00  0.00    +0.137 C 
ATOM     38  C   LIG    1       25.158 -14.325   2.889  0.00  0.00    +0.127 C 
BRANCH  27  40
ATOM     39  C   LIG    1       26.595 -11.802   2.294  0.00  0.00    +0.024 C 
ATOM     40  C   LIG    1       25.087 -11.924   2.161  0.00  0.00    +0.105 C 
ENDBRANCH  27  40
ENDBRANCH  26  34
BRANCH  26  41
ATOM     41  C   LIG    1       23.887 -19.515   5.741  0.00  0.00    -0.018 A 
ATOM     42  C   LIG    1       23.933 -20.914   5.869  0.00  0.00    +0.009 A 
ATOM     43  C   LIG    1       25.089 -21.568   6.299  0.00  0.00    +0.045 A 
ATOM     44  C   LIG    1       26.225 -20.834   6.595  0.00  0.00    +0.117 A 
ATOM     45  C   LIG    1       26.219 -19.448   6.481  0.00  0.00    +0.045 A 
ATOM     46  C   LIG    1       25.055 -18.793   6.052  0.00  0.00    +0.009 A 
BRANCH  44  47
ATOM     47  O   LIG    1       27.334 -21.520   6.988  0.00  0.00    -0.507 OA
ATOM     48  H   LIG    1       27.306 -21.629   7.953  0.00  0.00    +0.292 HD
ENDBRANCH  44  47
ENDBRANCH  26  41
ENDBRANCH   1  26
TORSDOF 11
ENDMDL
MODEL 4
REMARK VINA RESULT:      34.2      1.069      1.514
REMARK  Name = *****
REMARK                            x       y       z     vdW  Elec       q    Type
REMARK                         _______ _______ _______ _____ _____    ______ ____
ROOT
ATOM      1  C   LIG    1       28.328 -12.634   3.860  0.00  0.00    +0.239 C 
ATOM      2  N   LIG    1       27.488 -12.971   2.842  0.00  0.00    -0.300 N 
ATOM      3  H   LIG    1       27.958 -12.902   1.944  0.00  0.00    +0.150 HD
ATOM      4  O   LIG    1       29.440 -12.205   3.521  0.00  0.00    -0.273 OA
ENDROOT
BRANCH   2   5
ATOM      5  CA  LIG    1       26.033 -13.248   2.856  0.00  0.00    +0.191 C 
ATOM      6  C   LIG    1       25.611 -14.644   2.261  0.00  0.00    +0.169 C 
ATOM      7  N   LIG    1       24.836 -14.840   3.468  0.00  0.00    -0.249 N 
ATOM      8  CA  LIG    1       24.415 -16.047   3.971  0.00  0.00    +0.123 C 
ATOM      9  C   LIG    1       24.827 -17.222   3.421  0.00  0.00    -0.021 C 
ATOM     10  C   LIG    1       25.816 -17.296   2.272  0.00  0.00    +0.104 C 
ATOM     11  S   LIG    1       26.938 -15.884   2.166  0.00  0.00    -0.131 S 
ATOM     12  C   LIG    1       25.381 -13.799   4.155  0.00  0.00    +0.244 C 
ATOM     13  O   LIG    1       25.436 -13.543   5.341  0.00  0.00    -0.273 OA
BRANCH   8  14
ATOM     14  C   LIG    1       23.399 -15.896   5.071  0.00  0.00    +0.351 C 
ATOM     15  O   LIG    1       23.444 -15.051   5.951  0.00  0.00    -0.244 OA
BRANCH  14  16
ATOM     16  OXT LIG    1       22.348 -16.724   5.016  0.00  0.00    -0.476 OA
ATOM     17  HXT LIG    1       22.347 -17.126   5.911  0.00  0.00    +0.295 HD
ENDBRANCH  14  16
ENDBRANCH   8  14
BRANCH   9  18
ATOM     18  C   LIG    1       24.410 -18.609   3.883  0.00  0.00    +0.111 C 
BRANCH  18  19
ATOM     19  S   LIG    1       23.503 -19.453   2.552  0.00  0.00    -0.080 S 
BRANCH  19  20
ATOM     20  C   LIG    1       21.879 -19.141   3.047  0.00  0.00    +0.209 A 
ATOM     21  N   LIG    1       21.199 -19.883   3.966  0.00  0.00    -0.223 N 
ATOM     22  C   LIG    1       21.618 -21.011   4.750  0.00  0.00    +0.177 C 
ATOM     23  N   LIG    1       19.961 -19.378   4.121  0.00  0.00    -0.043 NA
ATOM     24  N   LIG    1       19.910 -18.331   3.308  0.00  0.00    -0.022 NA
ATOM     25  N   LIG    1       21.098 -18.169   2.632  0.00  0.00    -0.102 NA
ENDBRANCH  19  20
ENDBRANCH  18  19
ENDBRANCH   9  18
ENDBRANCH   2   5
BRANCH   1  26
ATOM     26  CA  LIG    1       27.888 -12.660   5.347  0.00  0.00    +0.191 C 
BRANCH  26  34
ATOM     27  N   LIG    1       28.889 -18.946   6.444  0.00  0.00    -0.292 N 
ATOM     28  C   LIG    1       28.163 -18.850   5.259  0.00  0.00    +0.302 C 
ATOM     29  O   LIG    1       27.563 -19.792   4.759  0.00  0.00    -0.265 OA
ATOM     30  C   LIG    1       28.145 -17.463   4.564  0.00  0.00    +0.309 C 
ATOM     31  O   LIG    1       28.077 -17.458   3.340  0.00  0.00    -0.265 OA
ATOM     32  N   LIG    1       28.281 -16.340   5.396  0.00  0.00    -0.217 N 
ATOM     33  C   LIG    1       28.033 -15.076   4.878  0.00  0.00    +0.310 C 
ATOM     34  N   LIG    1       28.097 -14.043   5.788  0.00  0.00    -0.284 N 
ATOM     35  H   LIG    1       27.700 -14.216   6.701  0.00  0.00    +0.151 HD
ATOM     36  O   LIG    1       27.811 -14.826   3.696  0.00  0.00    -0.252 OA
ATOM     37  C   LIG    1       28.555 -16.563   6.815  0.00  0.00    +0.137 C 
ATOM     38  C   LIG    1       29.472 -17.760   7.030  0.00  0.00    +0.127 C 
BRANCH  27  40
ATOM     39  C   LIG    1       27.988 -21.216   6.805  0.00  0.00    +0.024 C 
ATOM     40  C   LIG    1       29.130 -20.246   7.058  0.00  0.00    +0.105 C 
ENDBRANCH  27  40
ENDBRANCH  26  34
BRANCH  26  41
ATOM     41  C   LIG    1       26.415 -12.304   5.569  0.00  0.00    -0.018 A 
ATOM     42  C   LIG    1       25.624 -11.693   4.580  0.00  0.00    +0.009 A 
ATOM     43  C   LIG    1       24.266 -11.447   4.782  0.00  0.00    +0.045 A 
ATOM     44  C   LIG    1       23.669 -11.821   5.975  0.00  0.00    +0.117 A 
ATOM     45  C   LIG    1       24.417 -12.428   6.978  0.00  0.00    +0.045 A 
ATOM     46  C   LIG    1       25.783 -12.671   6.773  0.00  0.00    +0.009 A 
BRANCH  44  47
ATOM     47  O   LIG    1       22.336 -11.580   6.115  0.00  0.00    -0.507 OA
ATOM     48  H   LIG    1       21.989 -11.253   5.269  0.00  0.00    +0.292 HD
ENDBRANCH  44  47
ENDBRANCH  26  41
ENDBRANCH   1  26
TORSDOF 11
ENDMDL
