MODEL 1
REMARK VINA RESULT:      -4.0      0.000      0.000
REMARK  Name = *****
REMARK                            x       y       z     vdW  Elec       q    Type
REMARK                         _______ _______ _______ _____ _____    ______ ____
ROOT
ATOM      1  C   LIG    1       25.696 -29.765  11.643  0.00  0.00    +0.035 A 
ATOM      2  C   LIG    1       24.732 -30.345  12.489  0.00  0.00    -0.011 A 
ATOM      3  C   LIG    1       23.303 -30.474  12.073  0.00  0.00    +0.046 C 
ATOM      4  C   LIG    1       22.392 -30.269  13.261  0.00  0.00    +0.031 C 
ATOM      5  C   LIG    1       22.589 -31.466  14.124  0.00  0.00    +0.044 C 
ATOM      6  C   LIG    1       24.027 -31.632  14.550  0.00  0.00    +0.197 C 
ATOM      7  O   LIG    1       24.333 -32.358  15.499  0.00  0.00    -0.287 OA
ATOM      8  C   LIG    1       21.561 -32.283  14.420  0.00  0.00    +0.141 C 
ATOM      9  C   LIG    1       20.123 -32.001  13.934  0.00  0.00    +0.190 C 
ATOM     10  C   LIG    1       19.903 -30.491  13.680  0.00  0.00    +0.061 C 
ATOM     11  C   LIG    1       18.510 -30.126  13.082  0.00  0.00    +0.129 C 
ATOM     12  C   LIG    1       17.899 -31.241  12.229  0.00  0.00    +0.127 C 
ATOM     13  C   LIG    1       18.479 -32.439  11.985  0.00  0.00    +0.121 C 
ATOM     14  C   LIG    1       19.796 -32.750  12.623  0.00  0.00    +0.210 C 
ATOM     15  O   LIG    1       20.568 -33.553  12.084  0.00  0.00    -0.288 OA
ATOM     16  C   LIG    1       20.988 -30.005  12.721  0.00  0.00    +0.018 C 
ATOM     17  C   LIG    1       25.080 -30.878  13.766  0.00  0.00    +0.070 A 
ATOM     18  C   LIG    1       26.388 -30.716  14.248  0.00  0.00    +0.149 A 
ATOM     19  C   LIG    1       27.355 -30.072  13.457  0.00  0.00    +0.078 A 
ATOM     20  C   LIG    1       26.993 -29.627  12.176  0.00  0.00    +0.050 A 
ENDROOT
BRANCH  13  21
ATOM     21  C   LIG    1       17.804 -33.371  11.023  0.00  0.00    +0.248 C 
ATOM     22  O   LIG    1       16.671 -33.771  11.189  0.00  0.00    -0.270 OA
ATOM     23  N   LIG    1       18.535 -33.747   9.930  0.00  0.00    -0.325 N 
ATOM     24  H   LIG    1       19.489 -33.442   9.783  0.00  0.00    +0.145 HD
ATOM     25  H   LIG    1       18.106 -34.366   9.257  0.00  0.00    +0.145 HD
ENDBRANCH  13  21
BRANCH  19  26
ATOM     26  N   LIG    1       28.664 -29.901  13.978  0.00  0.00    -0.281 N 
ATOM     27  H   LIG    1       29.337 -30.594  13.653  0.00  0.00    +0.155 HD
ATOM     28  C   LIG    1       29.128 -28.838  14.740  0.00  0.00    +0.231 C 
ATOM     29  O   LIG    1       28.470 -27.845  15.071  0.00  0.00    -0.274 OA
BRANCH  28  30
ATOM     30  C   LIG    1       30.604 -28.945  15.133  0.00  0.00    +0.178 C 
BRANCH  30  31
ATOM     31  N   LIG    1       31.250 -30.099  14.477  0.00  0.00    -0.303 NA
ATOM     32  H   LIG    1       30.528 -30.746  14.159  0.00  0.00    +0.123 HD
BRANCH  31  33
ATOM     33  C   LIG    1       32.139 -29.748  13.348  0.00  0.00    +0.011 C 
ATOM     34  C   LIG    1       33.023 -28.545  13.713  0.00  0.00    +0.027 C 
ATOM     35  C   LIG    1       31.262 -29.341  12.143  0.00  0.00    +0.027 C 
ATOM     36  C   LIG    1       33.025 -30.931  12.918  0.00  0.00    +0.027 C 
ENDBRANCH  31  33
ENDBRANCH  30  31
ENDBRANCH  28  30
ENDBRANCH  19  26
BRANCH   1  38
ATOM     37  C   LIG    1       24.899 -30.158   9.268  0.00  0.00    +0.129 C 
ATOM     38  N   LIG    1       25.486 -29.343  10.323  0.00  0.00    -0.336 N 
ATOM     39  C   LIG    1       26.482 -28.382   9.839  0.00  0.00    +0.129 C 
ENDBRANCH   1  38
BRANCH  11  40
ATOM     40  N   LIG    1       17.642 -29.470  14.088  0.00  0.00    -0.298 NA
ATOM     41  C   LIG    1       16.876 -30.404  14.915  0.00  0.00    +0.105 C 
ATOM     42  C   LIG    1       18.310 -28.482  14.923  0.00  0.00    +0.105 C 
ENDBRANCH  11  40
BRANCH   8  43
ATOM     43  O   LIG    1       21.696 -33.400  15.232  0.00  0.00    -0.507 OA
ATOM     44  H   LIG    1       22.407 -33.218  15.886  0.00  0.00    +0.292 HD
ENDBRANCH   8  43
BRANCH   9  45
ATOM     45  O   LIG    1       19.234 -32.494  14.934  0.00  0.00    -0.373 OA
ATOM     46  H   LIG    1       18.336 -32.375  14.562  0.00  0.00    +0.211 HD
ENDBRANCH   9  45
BRANCH  12  47
ATOM     47  O   LIG    1       16.712 -30.856  11.609  0.00  0.00    -0.509 OA
ATOM     48  H   LIG    1       16.336 -30.078  12.085  0.00  0.00    +0.292 HD
ENDBRANCH  12  47
BRANCH  18  49
ATOM     49  O   LIG    1       26.775 -31.168  15.491  0.00  0.00    -0.504 OA
ATOM     50  H   LIG    1       26.676 -30.428  16.130  0.00  0.00    +0.292 HD
ENDBRANCH  18  49
TORSDOF 11
ENDMDL
MODEL 2
REMARK VINA RESULT:      -3.1      4.503      9.093
REMARK  Name = *****
REMARK                            x       y       z     vdW  Elec       q    Type
REMARK                         _______ _______ _______ _____ _____    ______ ____
ROOT
ATOM      1  C   LIG    1       25.472 -28.603   7.155  0.00  0.00    +0.035 A 
ATOM      2  C   LIG    1       25.307 -29.003   8.494  0.00  0.00    -0.011 A 
ATOM      3  C   LIG    1       25.720 -28.125   9.629  0.00  0.00    +0.046 C 
ATOM      4  C   LIG    1       26.267 -28.958  10.764  0.00  0.00    +0.031 C 
ATOM      5  C   LIG    1       25.094 -29.684  11.325  0.00  0.00    +0.044 C 
ATOM      6  C   LIG    1       24.403 -30.539  10.290  0.00  0.00    +0.197 C 
ATOM      7  O   LIG    1       23.627 -31.439  10.620  0.00  0.00    -0.287 OA
ATOM      8  C   LIG    1       24.727 -29.520  12.610  0.00  0.00    +0.141 C 
ATOM      9  C   LIG    1       25.524 -28.622  13.581  0.00  0.00    +0.190 C 
ATOM     10  C   LIG    1       27.003 -28.498  13.145  0.00  0.00    +0.061 C 
ATOM     11  C   LIG    1       27.858 -27.521  14.008  0.00  0.00    +0.129 C 
ATOM     12  C   LIG    1       27.046 -26.383  14.631  0.00  0.00    +0.127 C 
ATOM     13  C   LIG    1       25.714 -26.200  14.470  0.00  0.00    +0.121 C 
ATOM     14  C   LIG    1       24.938 -27.196  13.667  0.00  0.00    +0.210 C 
ATOM     15  O   LIG    1       23.897 -26.848  13.094  0.00  0.00    -0.288 OA
ATOM     16  C   LIG    1       27.033 -28.020  11.693  0.00  0.00    +0.018 C 
ATOM     17  C   LIG    1       24.697 -30.247   8.834  0.00  0.00    +0.070 A 
ATOM     18  C   LIG    1       24.360 -31.152   7.815  0.00  0.00    +0.149 A 
ATOM     19  C   LIG    1       24.584 -30.813   6.470  0.00  0.00    +0.078 A 
ATOM     20  C   LIG    1       25.117 -29.549   6.171  0.00  0.00    +0.050 A 
ENDROOT
BRANCH  13  21
ATOM     21  C   LIG    1       25.094 -24.961  15.045  0.00  0.00    +0.248 C 
ATOM     22  O   LIG    1       25.686 -23.905  15.106  0.00  0.00    -0.270 OA
ATOM     23  N   LIG    1       23.808 -25.080  15.495  0.00  0.00    -0.325 N 
ATOM     24  H   LIG    1       23.303 -25.957  15.472  0.00  0.00    +0.145 HD
ATOM     25  H   LIG    1       23.357 -24.262  15.879  0.00  0.00    +0.145 HD
ENDBRANCH  13  21
BRANCH  19  26
ATOM     26  N   LIG    1       24.256 -31.755   5.460  0.00  0.00    -0.281 N 
ATOM     27  H   LIG    1       23.728 -31.365   4.680  0.00  0.00    +0.155 HD
ATOM     28  C   LIG    1       24.693 -33.069   5.370  0.00  0.00    +0.231 C 
ATOM     29  O   LIG    1       25.468 -33.628   6.154  0.00  0.00    -0.274 OA
BRANCH  28  30
ATOM     30  C   LIG    1       24.168 -33.822   4.145  0.00  0.00    +0.178 C 
BRANCH  30  31
ATOM     31  N   LIG    1       24.561 -33.145   2.893  0.00  0.00    -0.303 NA
ATOM     32  H   LIG    1       24.148 -32.212   2.876  0.00  0.00    +0.123 HD
BRANCH  31  33
ATOM     33  C   LIG    1       26.021 -33.047   2.676  0.00  0.00    +0.011 C 
ATOM     34  C   LIG    1       26.466 -31.576   2.669  0.00  0.00    +0.027 C 
ATOM     35  C   LIG    1       26.351 -33.645   1.291  0.00  0.00    +0.027 C 
ATOM     36  C   LIG    1       26.819 -33.825   3.737  0.00  0.00    +0.027 C 
ENDBRANCH  31  33
ENDBRANCH  30  31
ENDBRANCH  28  30
ENDBRANCH  19  26
BRANCH   1  38
ATOM     37  C   LIG    1       25.185 -26.103   6.843  0.00  0.00    +0.129 C 
ATOM     38  N   LIG    1       25.926 -27.351   6.719  0.00  0.00    -0.336 N 
ATOM     39  C   LIG    1       26.787 -27.408   5.533  0.00  0.00    +0.129 C 
ENDBRANCH   1  38
BRANCH  11  40
ATOM     40  N   LIG    1       28.805 -28.254  14.881  0.00  0.00    -0.298 NA
ATOM     41  C   LIG    1       29.002 -29.655  14.504  0.00  0.00    +0.105 C 
ATOM     42  C   LIG    1       30.088 -27.597  15.081  0.00  0.00    +0.105 C 
ENDBRANCH  11  40
BRANCH   8  43
ATOM     43  O   LIG    1       23.651 -30.186  13.177  0.00  0.00    -0.507 OA
ATOM     44  H   LIG    1       23.718 -30.097  14.155  0.00  0.00    +0.292 HD
ENDBRANCH   8  43
BRANCH   9  45
ATOM     45  O   LIG    1       25.413 -29.202  14.879  0.00  0.00    -0.373 OA
ATOM     46  H   LIG    1       25.355 -28.443  15.496  0.00  0.00    +0.211 HD
ENDBRANCH   9  45
BRANCH  12  47
ATOM     47  O   LIG    1       27.841 -25.457  15.302  0.00  0.00    -0.509 OA
ATOM     48  H   LIG    1       27.801 -25.638  16.271  0.00  0.00    +0.292 HD
ENDBRANCH  12  47
BRANCH  18  49
ATOM     49  O   LIG    1       23.810 -32.387   8.081  0.00  0.00    -0.504 OA
ATOM     50  H   LIG    1       23.173 -32.599   7.363  0.00  0.00    +0.292 HD
ENDBRANCH  18  49
TORSDOF 11
ENDMDL
