MODEL 1
REMARK VINA RESULT:      -7.3      0.000      0.000
REMARK  Name = *****
REMARK                            x       y       z     vdW  Elec       q    Type
REMARK                         _______ _______ _______ _____ _____    ______ ____
ROOT
ATOM      1  C   LIG    1       27.423 -21.042   7.402  0.00  0.00    +0.234 C 
ATOM      2  N   LIG    1       28.713 -21.058   6.867  0.00  0.00    -0.284 N 
ATOM      3  H   LIG    1       28.958 -21.980   6.526  0.00  0.00    +0.155 HD
ATOM      4  O   LIG    1       27.069 -20.338   8.338  0.00  0.00    -0.274 OA
ENDROOT
BRANCH   2   5
ATOM      5  C   LIG    1       29.738 -20.236   7.407  0.00  0.00    +0.039 A 
ATOM      6  C   LIG    1       29.965 -18.927   6.918  0.00  0.00    -0.029 A 
ATOM      7  C   LIG    1       29.298 -18.384   5.680  0.00  0.00    +0.045 C 
ATOM      8  C   LIG    1       30.879 -18.089   7.580  0.00  0.00    +0.005 A 
ATOM      9  C   LIG    1       31.590 -18.543   8.683  0.00  0.00    +0.001 A 
ATOM     10  C   LIG    1       31.439 -19.861   9.104  0.00  0.00    +0.005 A 
ATOM     11  C   LIG    1       30.551 -20.735   8.448  0.00  0.00    -0.029 A 
ATOM     12  C   LIG    1       30.455 -22.145   8.961  0.00  0.00    +0.045 C 
ENDBRANCH   2   5
BRANCH   1  14
ATOM     13  N   LIG    1       25.437 -22.566   7.649  0.00  0.00    -0.291 NA
ATOM     14  C   LIG    1       26.441 -22.016   6.682  0.00  0.00    +0.143 C 
ATOM     15  C   LIG    1       25.813 -21.331   5.450  0.00  0.00    +0.028 C 
ATOM     16  C   LIG    1       24.769 -20.284   5.830  0.00  0.00    +0.003 C 
ATOM     17  C   LIG    1       23.761 -20.847   6.821  0.00  0.00    +0.015 C 
ATOM     18  C   LIG    1       24.452 -21.526   8.007  0.00  0.00    +0.085 C 
BRANCH  13  19
ATOM     19  C   LIG    1       24.803 -23.801   7.127  0.00  0.00    +0.085 C 
BRANCH  19  21
ATOM     20  C   LIG    1       25.417 -25.427   5.255  0.00  0.00    +0.005 C 
ATOM     21  C   LIG    1       25.829 -24.817   6.590  0.00  0.00    +0.012 C 
ENDBRANCH  19  21
ENDBRANCH  13  19
ENDBRANCH   1  14
TORSDOF 4
ENDMDL
MODEL 2
REMARK VINA RESULT:      -7.2      1.019      2.234
REMARK  Name = *****
REMARK                            x       y       z     vdW  Elec       q    Type
REMARK                         _______ _______ _______ _____ _____    ______ ____
ROOT
ATOM      1  C   LIG    1       26.611 -20.974   6.859  0.00  0.00    +0.234 C 
ATOM      2  N   LIG    1       27.887 -21.097   6.306  0.00  0.00    -0.284 N 
ATOM      3  H   LIG    1       28.073 -22.051   6.018  0.00  0.00    +0.155 HD
ATOM      4  O   LIG    1       26.316 -20.196   7.756  0.00  0.00    -0.274 OA
ENDROOT
BRANCH   2   5
ATOM      5  C   LIG    1       28.967 -20.304   6.778  0.00  0.00    +0.039 A 
ATOM      6  C   LIG    1       29.769 -20.726   7.866  0.00  0.00    -0.029 A 
ATOM      7  C   LIG    1       29.428 -21.918   8.725  0.00  0.00    +0.045 C 
ATOM      8  C   LIG    1       30.921 -19.994   8.203  0.00  0.00    +0.005 A 
ATOM      9  C   LIG    1       31.258 -18.840   7.508  0.00  0.00    +0.001 A 
ATOM     10  C   LIG    1       30.417 -18.372   6.502  0.00  0.00    +0.005 A 
ATOM     11  C   LIG    1       29.243 -19.066   6.156  0.00  0.00    -0.029 A 
ATOM     12  C   LIG    1       28.386 -18.486   5.066  0.00  0.00    +0.045 C 
ENDBRANCH   2   5
BRANCH   1  14
ATOM     13  N   LIG    1       24.477 -22.263   7.195  0.00  0.00    -0.291 NA
ATOM     14  C   LIG    1       25.562 -21.932   6.215  0.00  0.00    +0.143 C 
ATOM     15  C   LIG    1       25.046 -21.346   4.884  0.00  0.00    +0.028 C 
ATOM     16  C   LIG    1       24.099 -20.167   5.091  0.00  0.00    +0.003 C 
ATOM     17  C   LIG    1       23.008 -20.508   6.095  0.00  0.00    +0.015 C 
ATOM     18  C   LIG    1       23.588 -21.098   7.382  0.00  0.00    +0.085 C 
BRANCH  13  19
ATOM     19  C   LIG    1       23.741 -23.487   6.794  0.00  0.00    +0.085 C 
BRANCH  19  21
ATOM     20  C   LIG    1       24.012 -25.822   5.795  0.00  0.00    +0.005 C 
ATOM     21  C   LIG    1       24.668 -24.701   6.592  0.00  0.00    +0.012 C 
ENDBRANCH  19  21
ENDBRANCH  13  19
ENDBRANCH   1  14
TORSDOF 4
ENDMDL
MODEL 3
REMARK VINA RESULT:      -6.9      1.680      3.114
REMARK  Name = *****
REMARK                            x       y       z     vdW  Elec       q    Type
REMARK                         _______ _______ _______ _____ _____    ______ ____
ROOT
ATOM      1  C   LIG    1       26.036 -20.261   6.914  0.00  0.00    +0.234 C 
ATOM      2  N   LIG    1       27.143 -20.243   6.063  0.00  0.00    -0.284 N 
ATOM      3  H   LIG    1       26.970 -20.783   5.223  0.00  0.00    +0.155 HD
ATOM      4  O   LIG    1       26.100 -20.227   8.136  0.00  0.00    -0.274 OA
ENDROOT
BRANCH   2   5
ATOM      5  C   LIG    1       28.464 -20.196   6.584  0.00  0.00    +0.039 A 
ATOM      6  C   LIG    1       29.348 -19.140   6.253  0.00  0.00    -0.029 A 
ATOM      7  C   LIG    1       29.045 -18.117   5.188  0.00  0.00    +0.045 C 
ATOM      8  C   LIG    1       30.587 -19.044   6.909  0.00  0.00    +0.005 A 
ATOM      9  C   LIG    1       30.971 -19.993   7.847  0.00  0.00    +0.001 A 
ATOM     10  C   LIG    1       30.144 -21.083   8.101  0.00  0.00    +0.005 A 
ATOM     11  C   LIG    1       28.908 -21.225   7.443  0.00  0.00    -0.029 A 
ATOM     12  C   LIG    1       28.081 -22.437   7.768  0.00  0.00    +0.045 C 
ENDBRANCH   2   5
BRANCH   1  14
ATOM     13  N   LIG    1       24.781 -21.193   4.943  0.00  0.00    -0.291 NA
ATOM     14  C   LIG    1       24.674 -20.321   6.158  0.00  0.00    +0.143 C 
ATOM     15  C   LIG    1       23.541 -20.730   7.123  0.00  0.00    +0.028 C 
ATOM     16  C   LIG    1       23.597 -22.209   7.498  0.00  0.00    +0.003 C 
ATOM     17  C   LIG    1       23.718 -23.086   6.260  0.00  0.00    +0.015 C 
ATOM     18  C   LIG    1       24.847 -22.613   5.341  0.00  0.00    +0.085 C 
BRANCH  13  19
ATOM     19  C   LIG    1       23.687 -20.917   3.980  0.00  0.00    +0.085 C 
BRANCH  19  21
ATOM     20  C   LIG    1       22.245 -18.827   4.256  0.00  0.00    +0.005 C 
ATOM     21  C   LIG    1       23.526 -19.415   3.676  0.00  0.00    +0.012 C 
ENDBRANCH  19  21
ENDBRANCH  13  19
ENDBRANCH   1  14
TORSDOF 4
ENDMDL
MODEL 4
REMARK VINA RESULT:      -6.8      3.321      6.206
REMARK  Name = *****
REMARK                            x       y       z     vdW  Elec       q    Type
REMARK                         _______ _______ _______ _____ _____    ______ ____
ROOT
ATOM      1  C   LIG    1       25.788 -25.130   6.121  0.00  0.00    +0.234 C 
ATOM      2  N   LIG    1       25.635 -24.353   7.272  0.00  0.00    -0.284 N 
ATOM      3  H   LIG    1       25.412 -24.927   8.077  0.00  0.00    +0.155 HD
ATOM      4  O   LIG    1       25.495 -24.763   4.992  0.00  0.00    -0.274 OA
ENDROOT
BRANCH   2   5
ATOM      5  C   LIG    1       25.096 -23.041   7.199  0.00  0.00    +0.039 A 
ATOM      6  C   LIG    1       23.706 -22.824   7.034  0.00  0.00    -0.029 A 
ATOM      7  C   LIG    1       22.733 -23.932   6.721  0.00  0.00    +0.045 C 
ATOM      8  C   LIG    1       23.193 -21.519   7.124  0.00  0.00    +0.005 A 
ATOM      9  C   LIG    1       24.037 -20.436   7.334  0.00  0.00    +0.001 A 
ATOM     10  C   LIG    1       25.412 -20.638   7.399  0.00  0.00    +0.005 A 
ATOM     11  C   LIG    1       25.963 -21.929   7.286  0.00  0.00    -0.029 A 
ATOM     12  C   LIG    1       27.458 -22.057   7.357  0.00  0.00    +0.045 C 
ENDBRANCH   2   5
BRANCH   1  14
ATOM     13  N   LIG    1       25.460 -27.350   7.259  0.00  0.00    -0.291 NA
ATOM     14  C   LIG    1       26.388 -26.542   6.403  0.00  0.00    +0.143 C 
ATOM     15  C   LIG    1       26.779 -27.233   5.080  0.00  0.00    +0.028 C 
ATOM     16  C   LIG    1       25.565 -27.716   4.290  0.00  0.00    +0.003 C 
ATOM     17  C   LIG    1       24.623 -28.524   5.169  0.00  0.00    +0.015 C 
ATOM     18  C   LIG    1       24.291 -27.788   6.470  0.00  0.00    +0.085 C 
BRANCH  13  19
ATOM     19  C   LIG    1       26.168 -28.479   7.910  0.00  0.00    +0.085 C 
BRANCH  19  21
ATOM     20  C   LIG    1       26.956 -29.426  10.147  0.00  0.00    +0.005 C 
ATOM     21  C   LIG    1       26.553 -28.178   9.371  0.00  0.00    +0.012 C 
ENDBRANCH  19  21
ENDBRANCH  13  19
ENDBRANCH   1  14
TORSDOF 4
ENDMDL
MODEL 5
REMARK VINA RESULT:      -6.7      3.308      6.296
REMARK  Name = *****
REMARK                            x       y       z     vdW  Elec       q    Type
REMARK                         _______ _______ _______ _____ _____    ______ ____
ROOT
ATOM      1  C   LIG    1       25.720 -25.150   6.033  0.00  0.00    +0.234 C 
ATOM      2  N   LIG    1       25.589 -24.270   7.109  0.00  0.00    -0.284 N 
ATOM      3  H   LIG    1       25.387 -24.767   7.969  0.00  0.00    +0.155 HD
ATOM      4  O   LIG    1       25.401 -24.889   4.881  0.00  0.00    -0.274 OA
ENDROOT
BRANCH   2   5
ATOM      5  C   LIG    1       25.044 -22.971   6.928  0.00  0.00    +0.039 A 
ATOM      6  C   LIG    1       25.866 -21.818   6.949  0.00  0.00    -0.029 A 
ATOM      7  C   LIG    1       27.316 -21.850   7.360  0.00  0.00    +0.045 C 
ATOM      8  C   LIG    1       25.317 -20.569   6.610  0.00  0.00    +0.005 A 
ATOM      9  C   LIG    1       23.970 -20.447   6.295  0.00  0.00    +0.001 A 
ATOM     10  C   LIG    1       23.142 -21.563   6.369  0.00  0.00    +0.005 A 
ATOM     11  C   LIG    1       23.653 -22.824   6.730  0.00  0.00    -0.029 A 
ATOM     12  C   LIG    1       22.688 -23.974   6.795  0.00  0.00    +0.045 C 
ENDBRANCH   2   5
BRANCH   1  14
ATOM     13  N   LIG    1       25.354 -27.326   7.241  0.00  0.00    -0.291 NA
ATOM     14  C   LIG    1       26.331 -26.529   6.430  0.00  0.00    +0.143 C 
ATOM     15  C   LIG    1       26.853 -27.266   5.179  0.00  0.00    +0.028 C 
ATOM     16  C   LIG    1       25.725 -27.820   4.312  0.00  0.00    +0.003 C 
ATOM     17  C   LIG    1       24.732 -28.617   5.145  0.00  0.00    +0.015 C 
ATOM     18  C   LIG    1       24.270 -27.834   6.377  0.00  0.00    +0.085 C 
BRANCH  13  19
ATOM     19  C   LIG    1       26.034 -28.403   8.002  0.00  0.00    +0.085 C 
BRANCH  19  21
ATOM     20  C   LIG    1       25.583 -30.915   8.093  0.00  0.00    +0.005 C 
ATOM     21  C   LIG    1       25.070 -29.522   8.439  0.00  0.00    +0.012 C 
ENDBRANCH  19  21
ENDBRANCH  13  19
ENDBRANCH   1  14
TORSDOF 4
ENDMDL
MODEL 6
REMARK VINA RESULT:      -6.5      1.651      3.555
REMARK  Name = *****
REMARK                            x       y       z     vdW  Elec       q    Type
REMARK                         _______ _______ _______ _____ _____    ______ ____
ROOT
ATOM      1  C   LIG    1       26.042 -20.296   6.910  0.00  0.00    +0.234 C 
ATOM      2  N   LIG    1       27.203 -20.340   6.135  0.00  0.00    -0.284 N 
ATOM      3  H   LIG    1       27.083 -20.939   5.327  0.00  0.00    +0.155 HD
ATOM      4  O   LIG    1       26.025 -20.174   8.127  0.00  0.00    -0.274 OA
ENDROOT
BRANCH   2   5
ATOM      5  C   LIG    1       28.487 -20.255   6.738  0.00  0.00    +0.039 A 
ATOM      6  C   LIG    1       28.889 -21.169   7.742  0.00  0.00    -0.029 A 
ATOM      7  C   LIG    1       27.944 -22.150   8.388  0.00  0.00    +0.045 C 
ATOM      8  C   LIG    1       30.217 -21.152   8.202  0.00  0.00    +0.005 A 
ATOM      9  C   LIG    1       31.128 -20.225   7.711  0.00  0.00    +0.001 A 
ATOM     10  C   LIG    1       30.707 -19.266   6.795  0.00  0.00    +0.005 A 
ATOM     11  C   LIG    1       29.377 -19.236   6.333  0.00  0.00    -0.029 A 
ATOM     12  C   LIG    1       29.004 -18.161   5.353  0.00  0.00    +0.045 C 
ENDBRANCH   2   5
BRANCH   1  14
ATOM     13  N   LIG    1       24.910 -21.381   4.943  0.00  0.00    -0.291 NA
ATOM     14  C   LIG    1       24.732 -20.410   6.070  0.00  0.00    +0.143 C 
ATOM     15  C   LIG    1       23.533 -20.730   6.988  0.00  0.00    +0.028 C 
ATOM     16  C   LIG    1       23.545 -22.172   7.487  0.00  0.00    +0.003 C 
ATOM     17  C   LIG    1       23.738 -23.150   6.338  0.00  0.00    +0.015 C 
ATOM     18  C   LIG    1       24.932 -22.764   5.461  0.00  0.00    +0.085 C 
BRANCH  13  19
ATOM     19  C   LIG    1       23.886 -21.180   3.888  0.00  0.00    +0.085 C 
BRANCH  19  21
ATOM     20  C   LIG    1       22.575 -18.991   3.997  0.00  0.00    +0.005 C 
ATOM     21  C   LIG    1       23.789 -19.715   3.425  0.00  0.00    +0.012 C 
ENDBRANCH  19  21
ENDBRANCH  13  19
ENDBRANCH   1  14
TORSDOF 4
ENDMDL
MODEL 7
REMARK VINA RESULT:      -6.4      1.760      6.527
REMARK  Name = *****
REMARK                            x       y       z     vdW  Elec       q    Type
REMARK                         _______ _______ _______ _____ _____    ______ ____
ROOT
ATOM      1  C   LIG    1       28.073 -20.224   7.169  0.00  0.00    +0.234 C 
ATOM      2  N   LIG    1       26.695 -20.055   7.016  0.00  0.00    -0.284 N 
ATOM      3  H   LIG    1       26.335 -19.362   7.663  0.00  0.00    +0.155 HD
ATOM      4  O   LIG    1       28.664 -21.281   6.999  0.00  0.00    -0.274 OA
ENDROOT
BRANCH   2   5
ATOM      5  C   LIG    1       25.861 -21.146   6.652  0.00  0.00    +0.039 A 
ATOM      6  C   LIG    1       25.340 -21.269   5.342  0.00  0.00    -0.029 A 
ATOM      7  C   LIG    1       25.450 -20.177   4.308  0.00  0.00    +0.045 C 
ATOM      8  C   LIG    1       24.652 -22.439   4.976  0.00  0.00    +0.005 A 
ATOM      9  C   LIG    1       24.443 -23.457   5.897  0.00  0.00    +0.001 A 
ATOM     10  C   LIG    1       24.870 -23.295   7.211  0.00  0.00    +0.005 A 
ATOM     11  C   LIG    1       25.540 -22.126   7.618  0.00  0.00    -0.029 A 
ATOM     12  C   LIG    1       25.958 -22.028   9.058  0.00  0.00    +0.045 C 
ENDBRANCH   2   5
BRANCH   1  14
ATOM     13  N   LIG    1       29.557 -19.109   8.867  0.00  0.00    -0.291 NA
ATOM     14  C   LIG    1       28.816 -18.916   7.579  0.00  0.00    +0.143 C 
ATOM     15  C   LIG    1       29.700 -18.415   6.417  0.00  0.00    +0.028 C 
ATOM     16  C   LIG    1       30.950 -19.269   6.222  0.00  0.00    +0.003 C 
ATOM     17  C   LIG    1       31.689 -19.470   7.536  0.00  0.00    +0.015 C 
ATOM     18  C   LIG    1       30.751 -19.950   8.645  0.00  0.00    +0.085 C 
BRANCH  13  19
ATOM     19  C   LIG    1       29.882 -17.810   9.505  0.00  0.00    +0.085 C 
BRANCH  19  21
ATOM     20  C   LIG    1       31.221 -16.674  11.359  0.00  0.00    +0.005 C 
ATOM     21  C   LIG    1       30.609 -17.974  10.853  0.00  0.00    +0.012 C 
ENDBRANCH  19  21
ENDBRANCH  13  19
ENDBRANCH   1  14
TORSDOF 4
ENDMDL
MODEL 8
REMARK VINA RESULT:      -5.9      2.524      7.134
REMARK  Name = *****
REMARK                            x       y       z     vdW  Elec       q    Type
REMARK                         _______ _______ _______ _____ _____    ______ ____
ROOT
ATOM      1  C   LIG    1       24.532 -24.326   6.918  0.00  0.00    +0.234 C 
ATOM      2  N   LIG    1       25.659 -25.146   6.833  0.00  0.00    -0.284 N 
ATOM      3  H   LIG    1       26.477 -24.620   6.548  0.00  0.00    +0.155 HD
ATOM      4  O   LIG    1       23.390 -24.689   6.672  0.00  0.00    -0.274 OA
ENDROOT
BRANCH   2   5
ATOM      5  C   LIG    1       25.546 -26.503   6.429  0.00  0.00    +0.039 A 
ATOM      6  C   LIG    1       25.730 -27.563   7.349  0.00  0.00    -0.029 A 
ATOM      7  C   LIG    1       26.253 -27.356   8.748  0.00  0.00    +0.045 C 
ATOM      8  C   LIG    1       25.456 -28.883   6.949  0.00  0.00    +0.005 A 
ATOM      9  C   LIG    1       25.045 -29.162   5.653  0.00  0.00    +0.001 A 
ATOM     10  C   LIG    1       24.957 -28.131   4.722  0.00  0.00    +0.005 A 
ATOM     11  C   LIG    1       25.250 -26.802   5.080  0.00  0.00    -0.029 A 
ATOM     12  C   LIG    1       25.139 -25.752   4.011  0.00  0.00    +0.045 C 
ENDBRANCH   2   5
BRANCH   1  14
ATOM     13  N   LIG    1       25.822 -22.224   6.423  0.00  0.00    -0.291 NA
ATOM     14  C   LIG    1       24.858 -22.870   7.371  0.00  0.00    +0.143 C 
ATOM     15  C   LIG    1       23.556 -22.068   7.581  0.00  0.00    +0.028 C 
ATOM     16  C   LIG    1       22.880 -21.693   6.265  0.00  0.00    +0.003 C 
ATOM     17  C   LIG    1       23.868 -21.049   5.304  0.00  0.00    +0.015 C 
ATOM     18  C   LIG    1       25.141 -21.886   5.156  0.00  0.00    +0.085 C 
BRANCH  13  19
ATOM     19  C   LIG    1       26.491 -21.054   7.043  0.00  0.00    +0.085 C 
BRANCH  19  21
ATOM     20  C   LIG    1       28.890 -20.401   6.458  0.00  0.00    +0.005 C 
ATOM     21  C   LIG    1       27.421 -20.311   6.064  0.00  0.00    +0.012 C 
ENDBRANCH  19  21
ENDBRANCH  13  19
ENDBRANCH   1  14
TORSDOF 4
ENDMDL
MODEL 9
REMARK VINA RESULT:      -5.9      1.576      6.778
REMARK  Name = *****
REMARK                            x       y       z     vdW  Elec       q    Type
REMARK                         _______ _______ _______ _____ _____    ______ ____
ROOT
ATOM      1  C   LIG    1       26.795 -20.338   7.174  0.00  0.00    +0.234 C 
ATOM      2  N   LIG    1       26.306 -21.039   6.069  0.00  0.00    -0.284 N 
ATOM      3  H   LIG    1       26.594 -20.603   5.200  0.00  0.00    +0.155 HD
ATOM      4  O   LIG    1       26.213 -20.238   8.245  0.00  0.00    -0.274 OA
ENDROOT
BRANCH   2   5
ATOM      5  C   LIG    1       25.046 -21.694   6.120  0.00  0.00    +0.039 A 
ATOM      6  C   LIG    1       24.907 -22.977   6.701  0.00  0.00    -0.029 A 
ATOM      7  C   LIG    1       26.084 -23.823   7.116  0.00  0.00    +0.045 C 
ATOM      8  C   LIG    1       23.624 -23.524   6.874  0.00  0.00    +0.005 A 
ATOM      9  C   LIG    1       22.495 -22.838   6.445  0.00  0.00    +0.001 A 
ATOM     10  C   LIG    1       22.639 -21.621   5.787  0.00  0.00    +0.005 A 
ATOM     11  C   LIG    1       23.911 -21.056   5.573  0.00  0.00    -0.029 A 
ATOM     12  C   LIG    1       23.976 -19.743   4.845  0.00  0.00    +0.045 C 
ENDBRANCH   2   5
BRANCH   1  14
ATOM     13  N   LIG    1       28.791 -19.213   8.213  0.00  0.00    -0.291 NA
ATOM     14  C   LIG    1       28.187 -19.681   6.924  0.00  0.00    +0.143 C 
ATOM     15  C   LIG    1       29.094 -20.635   6.119  0.00  0.00    +0.028 C 
ATOM     16  C   LIG    1       29.603 -21.806   6.956  0.00  0.00    +0.003 C 
ATOM     17  C   LIG    1       30.203 -21.323   8.268  0.00  0.00    +0.015 C 
ATOM     18  C   LIG    1       29.259 -20.369   9.005  0.00  0.00    +0.085 C 
BRANCH  13  19
ATOM     19  C   LIG    1       29.857 -18.208   7.979  0.00  0.00    +0.085 C 
BRANCH  19  21
ATOM     20  C   LIG    1       31.772 -17.102   9.255  0.00  0.00    +0.005 C 
ATOM     21  C   LIG    1       30.302 -17.500   9.273  0.00  0.00    +0.012 C 
ENDBRANCH  19  21
ENDBRANCH  13  19
ENDBRANCH   1  14
TORSDOF 4
ENDMDL
