MODEL 1
REMARK VINA RESULT:      -8.4      0.000      0.000
REMARK  Name = *****
REMARK                            x       y       z     vdW  Elec       q    Type
REMARK                         _______ _______ _______ _____ _____    ______ ____
ROOT
ATOM      1  C   LIG    1       27.341 -20.343   8.046  0.00  0.00    +0.342 C 
ATOM      2  O   LIG    1       26.850 -20.042   9.125  0.00  0.00    -0.245 OA
ENDROOT
BRANCH   1   3
ATOM      3  C   LIG    1       28.703 -19.984   7.665  0.00  0.00    +0.084 C 
ATOM      4  C   LIG    1       29.600 -19.101   8.360  0.00  0.00    +0.014 C 
ATOM      5  C   LIG    1       30.801 -19.073   7.648  0.00  0.00    +0.047 C 
ATOM      6  C   LIG    1       31.909 -18.318   8.055  0.00  0.00    +0.026 C 
ATOM      7  C   LIG    1       31.791 -17.569   9.229  0.00  0.00    +0.002 C 
ATOM      8  C   LIG    1       30.609 -17.571   9.963  0.00  0.00    +0.001 C 
ATOM      9  N   LIG    1       30.643 -19.894   6.557  0.00  0.00    -0.360 NA
ATOM     10  H   LIG    1       31.358 -20.064   5.862  0.00  0.00    +0.165 HD
ATOM     11  C   LIG    1       29.510 -18.328   9.540  0.00  0.00    +0.011 C 
ATOM     12  C   LIG    1       29.393 -20.449   6.558  0.00  0.00    +0.098 C 
ENDBRANCH   1   3
BRANCH   1  13
ATOM     13  O   LIG    1       26.691 -21.083   7.087  0.00  0.00    -0.458 OA
BRANCH  13  18
ATOM     14  C   LIG    1       22.329 -20.665   5.074  0.00  0.00    +0.105 C 
ATOM     15  N   LIG    1       23.111 -21.826   5.445  0.00  0.00    -0.299 NA
ATOM     16  C   LIG    1       23.442 -21.965   6.864  0.00  0.00    +0.060 C 
ATOM     17  C   LIG    1       24.284 -20.793   7.393  0.00  0.00    +0.063 C 
ATOM     18  C   LIG    1       25.513 -20.455   6.531  0.00  0.00    +0.180 C 
ATOM     19  C   LIG    1       25.378 -20.845   5.049  0.00  0.00    +0.063 C 
ATOM     20  C   LIG    1       24.237 -23.275   6.821  0.00  0.00    +0.020 C 
ATOM     21  C   LIG    1       24.851 -23.308   5.418  0.00  0.00    +0.020 C 
ATOM     22  C   LIG    1       24.399 -21.997   4.772  0.00  0.00    +0.060 C 
ENDBRANCH  13  18
ENDBRANCH   1  13
TORSDOF 3
ENDMDL
MODEL 2
REMARK VINA RESULT:      -8.4      1.672      6.696
REMARK  Name = *****
REMARK                            x       y       z     vdW  Elec       q    Type
REMARK                         _______ _______ _______ _____ _____    ______ ____
ROOT
ATOM      1  C   LIG    1       27.495 -21.246   7.759  0.00  0.00    +0.342 C 
ATOM      2  O   LIG    1       26.925 -21.523   8.805  0.00  0.00    -0.245 OA
ENDROOT
BRANCH   1   3
ATOM      3  C   LIG    1       26.790 -20.783   6.568  0.00  0.00    +0.084 C 
ATOM      4  C   LIG    1       25.369 -20.751   6.352  0.00  0.00    +0.014 C 
ATOM      5  C   LIG    1       25.148 -20.209   5.084  0.00  0.00    +0.047 C 
ATOM      6  C   LIG    1       23.865 -20.018   4.553  0.00  0.00    +0.026 C 
ATOM      7  C   LIG    1       22.772 -20.387   5.341  0.00  0.00    +0.002 C 
ATOM      8  C   LIG    1       22.955 -20.932   6.607  0.00  0.00    +0.001 C 
ATOM      9  N   LIG    1       26.381 -19.932   4.542  0.00  0.00    -0.360 NA
ATOM     10  H   LIG    1       26.523 -19.531   3.624  0.00  0.00    +0.165 HD
ATOM     11  C   LIG    1       24.244 -21.120   7.122  0.00  0.00    +0.011 C 
ATOM     12  C   LIG    1       27.371 -20.267   5.422  0.00  0.00    +0.098 C 
ENDBRANCH   1   3
BRANCH   1  13
ATOM     13  O   LIG    1       28.858 -21.301   7.590  0.00  0.00    -0.458 OA
BRANCH  13  18
ATOM     14  C   LIG    1       31.741 -17.951   9.521  0.00  0.00    +0.105 C 
ATOM     15  N   LIG    1       31.270 -18.152   8.166  0.00  0.00    -0.299 NA
ATOM     16  C   LIG    1       29.822 -18.088   7.961  0.00  0.00    +0.060 C 
ATOM     17  C   LIG    1       29.065 -19.163   8.757  0.00  0.00    +0.063 C 
ATOM     18  C   LIG    1       29.623 -20.588   8.590  0.00  0.00    +0.180 C 
ATOM     19  C   LIG    1       31.116 -20.648   8.229  0.00  0.00    +0.063 C 
ATOM     20  C   LIG    1       29.760 -18.337   6.450  0.00  0.00    +0.020 C 
ATOM     21  C   LIG    1       30.997 -19.188   6.147  0.00  0.00    +0.020 C 
ATOM     22  C   LIG    1       31.658 -19.401   7.511  0.00  0.00    +0.060 C 
ENDBRANCH  13  18
ENDBRANCH   1  13
TORSDOF 3
ENDMDL
MODEL 3
REMARK VINA RESULT:      -8.3      0.757      1.652
REMARK  Name = *****
REMARK                            x       y       z     vdW  Elec       q    Type
REMARK                         _______ _______ _______ _____ _____    ______ ____
ROOT
ATOM      1  C   LIG    1       27.385 -20.187   8.035  0.00  0.00    +0.342 C 
ATOM      2  O   LIG    1       26.952 -20.056   9.171  0.00  0.00    -0.245 OA
ENDROOT
BRANCH   1   3
ATOM      3  C   LIG    1       28.760 -19.866   7.666  0.00  0.00    +0.084 C 
ATOM      4  C   LIG    1       29.665 -18.986   8.355  0.00  0.00    +0.014 C 
ATOM      5  C   LIG    1       30.877 -19.000   7.661  0.00  0.00    +0.047 C 
ATOM      6  C   LIG    1       31.995 -18.260   8.068  0.00  0.00    +0.026 C 
ATOM      7  C   LIG    1       31.876 -17.483   9.223  0.00  0.00    +0.002 C 
ATOM      8  C   LIG    1       30.684 -17.443   9.939  0.00  0.00    +0.001 C 
ATOM      9  N   LIG    1       30.717 -19.843   6.586  0.00  0.00    -0.360 NA
ATOM     10  H   LIG    1       31.439 -20.043   5.906  0.00  0.00    +0.165 HD
ATOM     11  C   LIG    1       29.574 -18.186   9.516  0.00  0.00    +0.011 C 
ATOM     12  C   LIG    1       29.456 -20.370   6.581  0.00  0.00    +0.098 C 
ENDBRANCH   1   3
BRANCH   1  13
ATOM     13  O   LIG    1       26.650 -20.685   6.985  0.00  0.00    -0.458 OA
BRANCH  13  18
ATOM     14  C   LIG    1       22.638 -23.351   6.750  0.00  0.00    +0.105 C 
ATOM     15  N   LIG    1       23.151 -22.305   5.890  0.00  0.00    -0.299 NA
ATOM     16  C   LIG    1       24.443 -22.560   5.252  0.00  0.00    +0.060 C 
ATOM     17  C   LIG    1       25.576 -22.761   6.270  0.00  0.00    +0.063 C 
ATOM     18  C   LIG    1       25.658 -21.672   7.353  0.00  0.00    +0.180 C 
ATOM     19  C   LIG    1       24.323 -20.967   7.649  0.00  0.00    +0.063 C 
ATOM     20  C   LIG    1       24.605 -21.258   4.458  0.00  0.00    +0.020 C 
ATOM     21  C   LIG    1       23.830 -20.214   5.268  0.00  0.00    +0.020 C 
ATOM     22  C   LIG    1       23.315 -20.980   6.488  0.00  0.00    +0.060 C 
ENDBRANCH  13  18
ENDBRANCH   1  13
TORSDOF 3
ENDMDL
MODEL 4
REMARK VINA RESULT:      -8.1      1.610      2.004
REMARK  Name = *****
REMARK                            x       y       z     vdW  Elec       q    Type
REMARK                         _______ _______ _______ _____ _____    ______ ____
ROOT
ATOM      1  C   LIG    1       29.088 -19.966   6.790  0.00  0.00    +0.342 C 
ATOM      2  O   LIG    1       29.097 -19.357   5.729  0.00  0.00    -0.245 OA
ENDROOT
BRANCH   1   3
ATOM      3  C   LIG    1       30.118 -19.801   7.811  0.00  0.00    +0.084 C 
ATOM      4  C   LIG    1       30.375 -18.635   8.611  0.00  0.00    +0.014 C 
ATOM      5  C   LIG    1       31.436 -18.937   9.468  0.00  0.00    +0.047 C 
ATOM      6  C   LIG    1       31.941 -18.024  10.403  0.00  0.00    +0.026 C 
ATOM      7  C   LIG    1       31.344 -16.762  10.470  0.00  0.00    +0.002 C 
ATOM      8  C   LIG    1       30.287 -16.426   9.630  0.00  0.00    +0.001 C 
ATOM      9  N   LIG    1       31.820 -20.229   9.196  0.00  0.00    -0.360 NA
ATOM     10  H   LIG    1       32.572 -20.712   9.670  0.00  0.00    +0.165 HD
ATOM     11  C   LIG    1       29.797 -17.349   8.698  0.00  0.00    +0.011 C 
ATOM     12  C   LIG    1       31.036 -20.758   8.209  0.00  0.00    +0.098 C 
ENDBRANCH   1   3
BRANCH   1  13
ATOM     13  O   LIG    1       28.095 -20.841   7.164  0.00  0.00    -0.458 OA
BRANCH  13  18
ATOM     14  C   LIG    1       23.275 -20.693   7.108  0.00  0.00    +0.105 C 
ATOM     15  N   LIG    1       24.205 -21.803   7.110  0.00  0.00    -0.299 NA
ATOM     16  C   LIG    1       25.091 -21.910   8.269  0.00  0.00    +0.060 C 
ATOM     17  C   LIG    1       26.009 -20.687   8.428  0.00  0.00    +0.063 C 
ATOM     18  C   LIG    1       26.759 -20.286   7.146  0.00  0.00    +0.180 C 
ATOM     19  C   LIG    1       26.055 -20.696   5.841  0.00  0.00    +0.063 C 
ATOM     20  C   LIG    1       25.873 -23.172   7.887  0.00  0.00    +0.020 C 
ATOM     21  C   LIG    1       25.863 -23.182   6.354  0.00  0.00    +0.020 C 
ATOM     22  C   LIG    1       25.114 -21.905   5.969  0.00  0.00    +0.060 C 
ENDBRANCH  13  18
ENDBRANCH   1  13
TORSDOF 3
ENDMDL
MODEL 5
REMARK VINA RESULT:      -8.1      1.903      2.576
REMARK  Name = *****
REMARK                            x       y       z     vdW  Elec       q    Type
REMARK                         _______ _______ _______ _____ _____    ______ ____
ROOT
ATOM      1  C   LIG    1       26.826 -19.740   4.958  0.00  0.00    +0.342 C 
ATOM      2  O   LIG    1       26.112 -19.058   4.235  0.00  0.00    -0.245 OA
ENDROOT
BRANCH   1   3
ATOM      3  C   LIG    1       28.123 -19.287   5.450  0.00  0.00    +0.084 C 
ATOM      4  C   LIG    1       28.923 -19.889   6.482  0.00  0.00    +0.014 C 
ATOM      5  C   LIG    1       30.092 -19.133   6.603  0.00  0.00    +0.047 C 
ATOM      6  C   LIG    1       31.110 -19.449   7.513  0.00  0.00    +0.026 C 
ATOM      7  C   LIG    1       30.934 -20.574   8.323  0.00  0.00    +0.002 C 
ATOM      8  C   LIG    1       29.782 -21.349   8.230  0.00  0.00    +0.001 C 
ATOM      9  N   LIG    1       30.005 -18.105   5.694  0.00  0.00    -0.360 NA
ATOM     10  H   LIG    1       30.716 -17.398   5.564  0.00  0.00    +0.165 HD
ATOM     11  C   LIG    1       28.772 -21.017   7.319  0.00  0.00    +0.011 C 
ATOM     12  C   LIG    1       28.833 -18.189   4.995  0.00  0.00    +0.098 C 
ENDBRANCH   1   3
BRANCH   1  13
ATOM     13  O   LIG    1       26.481 -20.987   5.422  0.00  0.00    -0.458 OA
BRANCH  13  18
ATOM     14  C   LIG    1       22.300 -23.038   6.676  0.00  0.00    +0.105 C 
ATOM     15  N   LIG    1       23.662 -23.292   7.097  0.00  0.00    -0.299 NA
ATOM     16  C   LIG    1       24.359 -22.187   7.756  0.00  0.00    +0.060 C 
ATOM     17  C   LIG    1       24.499 -20.952   6.851  0.00  0.00    +0.063 C 
ATOM     18  C   LIG    1       25.059 -21.252   5.450  0.00  0.00    +0.180 C 
ATOM     19  C   LIG    1       24.797 -22.684   4.952  0.00  0.00    +0.063 C 
ATOM     20  C   LIG    1       25.711 -22.856   8.031  0.00  0.00    +0.020 C 
ATOM     21  C   LIG    1       25.858 -23.901   6.920  0.00  0.00    +0.020 C 
ATOM     22  C   LIG    1       24.602 -23.728   6.064  0.00  0.00    +0.060 C 
ENDBRANCH  13  18
ENDBRANCH   1  13
TORSDOF 3
ENDMDL
MODEL 6
REMARK VINA RESULT:      -7.8      4.541      8.326
REMARK  Name = *****
REMARK                            x       y       z     vdW  Elec       q    Type
REMARK                         _______ _______ _______ _____ _____    ______ ____
ROOT
ATOM      1  C   LIG    1       25.701 -26.238   6.101  0.00  0.00    +0.342 C 
ATOM      2  O   LIG    1       26.738 -26.083   5.470  0.00  0.00    -0.245 OA
ENDROOT
BRANCH   1   3
ATOM      3  C   LIG    1       25.039 -27.531   6.238  0.00  0.00    +0.084 C 
ATOM      4  C   LIG    1       25.177 -28.472   7.317  0.00  0.00    +0.014 C 
ATOM      5  C   LIG    1       24.341 -29.556   7.040  0.00  0.00    +0.047 C 
ATOM      6  C   LIG    1       24.216 -30.658   7.897  0.00  0.00    +0.026 C 
ATOM      7  C   LIG    1       24.964 -30.653   9.078  0.00  0.00    +0.002 C 
ATOM      8  C   LIG    1       25.808 -29.591   9.385  0.00  0.00    +0.001 C 
ATOM      9  N   LIG    1       23.729 -29.297   5.837  0.00  0.00    -0.360 NA
ATOM     10  H   LIG    1       23.067 -29.918   5.388  0.00  0.00    +0.165 HD
ATOM     11  C   LIG    1       25.924 -28.499   8.516  0.00  0.00    +0.011 C 
ATOM     12  C   LIG    1       24.135 -28.087   5.349  0.00  0.00    +0.098 C 
ENDBRANCH   1   3
BRANCH   1  13
ATOM     13  O   LIG    1       25.061 -25.231   6.784  0.00  0.00    -0.458 OA
BRANCH  13  18
ATOM     14  C   LIG    1       22.838 -21.325   5.036  0.00  0.00    +0.105 C 
ATOM     15  N   LIG    1       23.861 -21.478   6.049  0.00  0.00    -0.299 NA
ATOM     16  C   LIG    1       25.128 -22.066   5.614  0.00  0.00    +0.060 C 
ATOM     17  C   LIG    1       24.962 -23.493   5.069  0.00  0.00    +0.063 C 
ATOM     18  C   LIG    1       24.158 -24.434   5.983  0.00  0.00    +0.180 C 
ATOM     19  C   LIG    1       23.154 -23.720   6.905  0.00  0.00    +0.063 C 
ATOM     20  C   LIG    1       25.898 -22.041   6.940  0.00  0.00    +0.020 C 
ATOM     21  C   LIG    1       24.813 -22.143   8.018  0.00  0.00    +0.020 C 
ATOM     22  C   LIG    1       23.505 -22.260   7.234  0.00  0.00    +0.060 C 
ENDBRANCH  13  18
ENDBRANCH   1  13
TORSDOF 3
ENDMDL
MODEL 7
REMARK VINA RESULT:      -7.6      4.587      6.433
REMARK  Name = *****
REMARK                            x       y       z     vdW  Elec       q    Type
REMARK                         _______ _______ _______ _____ _____    ______ ____
ROOT
ATOM      1  C   LIG    1       25.762 -22.923   6.741  0.00  0.00    +0.342 C 
ATOM      2  O   LIG    1       26.619 -22.557   7.534  0.00  0.00    -0.245 OA
ENDROOT
BRANCH   1   3
ATOM      3  C   LIG    1       24.615 -22.100   6.373  0.00  0.00    +0.084 C 
ATOM      4  C   LIG    1       24.585 -21.019   5.426  0.00  0.00    +0.014 C 
ATOM      5  C   LIG    1       23.276 -20.536   5.378  0.00  0.00    +0.047 C 
ATOM      6  C   LIG    1       22.883 -19.484   4.540  0.00  0.00    +0.026 C 
ATOM      7  C   LIG    1       23.857 -18.906   3.720  0.00  0.00    +0.002 C 
ATOM      8  C   LIG    1       25.172 -19.359   3.744  0.00  0.00    +0.001 C 
ATOM      9  N   LIG    1       22.538 -21.281   6.267  0.00  0.00    -0.360 NA
ATOM     10  H   LIG    1       21.550 -21.149   6.440  0.00  0.00    +0.165 HD
ATOM     11  C   LIG    1       25.548 -20.410   4.590  0.00  0.00    +0.011 C 
ATOM     12  C   LIG    1       23.327 -22.223   6.866  0.00  0.00    +0.098 C 
ENDBRANCH   1   3
BRANCH   1  13
ATOM     13  O   LIG    1       25.796 -24.127   6.077  0.00  0.00    -0.458 OA
BRANCH  13  18
ATOM     14  C   LIG    1       24.264 -28.605   6.999  0.00  0.00    +0.105 C 
ATOM     15  N   LIG    1       25.070 -28.065   5.924  0.00  0.00    -0.299 NA
ATOM     16  C   LIG    1       26.340 -27.449   6.306  0.00  0.00    +0.060 C 
ATOM     17  C   LIG    1       26.156 -26.244   7.242  0.00  0.00    +0.063 C 
ATOM     18  C   LIG    1       25.123 -25.213   6.755  0.00  0.00    +0.180 C 
ATOM     19  C   LIG    1       24.033 -25.790   5.836  0.00  0.00    +0.063 C 
ATOM     20  C   LIG    1       26.856 -27.032   4.924  0.00  0.00    +0.020 C 
ATOM     21  C   LIG    1       25.590 -26.800   4.093  0.00  0.00    +0.020 C 
ATOM     22  C   LIG    1       24.440 -27.059   5.069  0.00  0.00    +0.060 C 
ENDBRANCH  13  18
ENDBRANCH   1  13
TORSDOF 3
ENDMDL
MODEL 8
REMARK VINA RESULT:      -7.6      1.538      6.728
REMARK  Name = *****
REMARK                            x       y       z     vdW  Elec       q    Type
REMARK                         _______ _______ _______ _____ _____    ______ ____
ROOT
ATOM      1  C   LIG    1       25.449 -20.742   7.381  0.00  0.00    +0.342 C 
ATOM      2  O   LIG    1       24.680 -20.514   8.305  0.00  0.00    -0.245 OA
ENDROOT
BRANCH   1   3
ATOM      3  C   LIG    1       25.143 -21.677   6.304  0.00  0.00    +0.084 C 
ATOM      4  C   LIG    1       25.332 -23.102   6.306  0.00  0.00    +0.014 C 
ATOM      5  C   LIG    1       24.880 -23.589   5.078  0.00  0.00    +0.047 C 
ATOM      6  C   LIG    1       24.903 -24.950   4.744  0.00  0.00    +0.026 C 
ATOM      7  C   LIG    1       25.401 -25.846   5.696  0.00  0.00    +0.002 C 
ATOM      8  C   LIG    1       25.862 -25.396   6.928  0.00  0.00    +0.001 C 
ATOM      9  N   LIG    1       24.444 -22.508   4.350  0.00  0.00    -0.360 NA
ATOM     10  H   LIG    1       24.062 -22.566   3.415  0.00  0.00    +0.165 HD
ATOM     11  C   LIG    1       25.835 -24.032   7.244  0.00  0.00    +0.011 C 
ATOM     12  C   LIG    1       24.592 -21.358   5.075  0.00  0.00    +0.098 C 
ENDBRANCH   1   3
BRANCH   1  13
ATOM     13  O   LIG    1       26.666 -20.122   7.226  0.00  0.00    -0.458 OA
BRANCH  13  18
ATOM     14  C   LIG    1       31.148 -20.926   8.815  0.00  0.00    +0.105 C 
ATOM     15  N   LIG    1       30.633 -20.041   7.790  0.00  0.00    -0.299 NA
ATOM     16  C   LIG    1       29.691 -19.011   8.229  0.00  0.00    +0.060 C 
ATOM     17  C   LIG    1       28.416 -19.603   8.851  0.00  0.00    +0.063 C 
ATOM     18  C   LIG    1       27.743 -20.696   8.003  0.00  0.00    +0.180 C 
ATOM     19  C   LIG    1       28.700 -21.453   7.066  0.00  0.00    +0.063 C 
ATOM     20  C   LIG    1       29.413 -18.322   6.889  0.00  0.00    +0.020 C 
ATOM     21  C   LIG    1       29.617 -19.419   5.840  0.00  0.00    +0.020 C 
ATOM     22  C   LIG    1       29.957 -20.669   6.655  0.00  0.00    +0.060 C 
ENDBRANCH  13  18
ENDBRANCH   1  13
TORSDOF 3
ENDMDL
MODEL 9
REMARK VINA RESULT:      -7.5      3.176      5.013
REMARK  Name = *****
REMARK                            x       y       z     vdW  Elec       q    Type
REMARK                         _______ _______ _______ _____ _____    ______ ____
ROOT
ATOM      1  C   LIG    1       24.524 -22.777   5.999  0.00  0.00    +0.342 C 
ATOM      2  O   LIG    1       23.426 -22.628   6.516  0.00  0.00    -0.245 OA
ENDROOT
BRANCH   1   3
ATOM      3  C   LIG    1       25.404 -21.662   5.665  0.00  0.00    +0.084 C 
ATOM      4  C   LIG    1       26.633 -21.295   6.316  0.00  0.00    +0.014 C 
ATOM      5  C   LIG    1       27.146 -20.181   5.649  0.00  0.00    +0.047 C 
ATOM      6  C   LIG    1       28.352 -19.565   6.013  0.00  0.00    +0.026 C 
ATOM      7  C   LIG    1       29.060 -20.106   7.090  0.00  0.00    +0.002 C 
ATOM      8  C   LIG    1       28.577 -21.214   7.779  0.00  0.00    +0.001 C 
ATOM      9  N   LIG    1       26.264 -19.870   4.641  0.00  0.00    -0.360 NA
ATOM     10  H   LIG    1       26.384 -19.101   3.994  0.00  0.00    +0.165 HD
ATOM     11  C   LIG    1       27.368 -21.814   7.404  0.00  0.00    +0.011 C 
ATOM     12  C   LIG    1       25.219 -20.752   4.638  0.00  0.00    +0.098 C 
ENDBRANCH   1   3
BRANCH   1  13
ATOM     13  O   LIG    1       25.075 -24.003   5.707  0.00  0.00    -0.458 OA
BRANCH  13  18
ATOM     14  C   LIG    1       24.590 -28.490   7.405  0.00  0.00    +0.105 C 
ATOM     15  N   LIG    1       25.410 -27.946   6.343  0.00  0.00    -0.299 NA
ATOM     16  C   LIG    1       26.395 -26.935   6.731  0.00  0.00    +0.060 C 
ATOM     17  C   LIG    1       25.748 -25.685   7.348  0.00  0.00    +0.063 C 
ATOM     18  C   LIG    1       24.591 -25.095   6.522  0.00  0.00    +0.180 C 
ATOM     19  C   LIG    1       23.864 -26.114   5.628  0.00  0.00    +0.063 C 
ATOM     20  C   LIG    1       27.025 -26.645   5.364  0.00  0.00    +0.020 C 
ATOM     21  C   LIG    1       25.909 -26.935   4.355  0.00  0.00    +0.020 C 
ATOM     22  C   LIG    1       24.708 -27.331   5.216  0.00  0.00    +0.060 C 
ENDBRANCH  13  18
ENDBRANCH   1  13
TORSDOF 3
ENDMDL
