MODEL 1
REMARK VINA RESULT:       6.4      0.000      0.000
REMARK  Name = *****
REMARK                            x       y       z     vdW  Elec       q    Type
REMARK                         _______ _______ _______ _____ _____    ______ ____
ROOT
ATOM      1  C   LIG    1       26.744 -18.490   3.946  0.00  0.00    +0.097 C 
ENDROOT
BRANCH   1   5
ATOM      2  C   LIG    1       23.006 -20.734   3.772  0.00  0.00    +0.159 A 
ATOM      3  C   LIG    1       23.819 -20.635   2.643  0.00  0.00    +0.049 A 
ATOM      4  C   LIG    1       25.020 -19.920   2.692  0.00  0.00    +0.008 A 
ATOM      5  C   LIG    1       25.428 -19.282   3.874  0.00  0.00    -0.034 A 
ATOM      6  C   LIG    1       24.619 -19.422   5.014  0.00  0.00    +0.008 A 
ATOM      7  C   LIG    1       23.426 -20.156   4.968  0.00  0.00    +0.049 A 
BRANCH   2   8
ATOM      8  O   LIG    1       21.849 -21.451   3.610  0.00  0.00    -0.325 OA
BRANCH   8  10
ATOM      9  O   LIG    1       19.813 -21.538   5.099  0.00  0.00    -0.108 OA
ATOM     10  S   LIG    1       20.376 -20.846   3.957  0.00  0.00    +0.251 S 
ATOM     11  O   LIG    1       19.625 -20.730   2.728  0.00  0.00    -0.108 OA
BRANCH  10  12
ATOM     12  O   LIG    1       20.646 -19.319   4.409  0.00  0.00    -0.222 OA
ATOM     13  H   LIG    1       19.941 -19.087   5.048  0.00  0.00    +0.248 HD
ENDBRANCH  10  12
ENDBRANCH   8  10
ENDBRANCH   2   8
ENDBRANCH   1   5
BRANCH   1  14
ATOM     14  C   LIG    1       27.654 -18.929   5.113  0.00  0.00    +0.053 A 
ATOM     15  N   LIG    1       28.581 -18.045   5.574  0.00  0.00    -0.259 NA
ATOM     16  C   LIG    1       29.465 -18.471   6.502  0.00  0.00    +0.111 A 
ATOM     17  C   LIG    1       29.464 -19.746   7.034  0.00  0.00    +0.020 A 
ATOM     18  C   LIG    1       28.498 -20.637   6.589  0.00  0.00    +0.003 A 
ATOM     19  C   LIG    1       27.585 -20.233   5.613  0.00  0.00    +0.024 A 
ENDBRANCH   1  14
BRANCH   1  20
ATOM     20  C   LIG    1       26.504 -16.970   3.844  0.00  0.00    -0.034 A 
ATOM     21  C   LIG    1       25.239 -16.383   3.994  0.00  0.00    +0.008 A 
ATOM     22  C   LIG    1       25.051 -15.012   3.811  0.00  0.00    +0.049 A 
ATOM     23  C   LIG    1       26.119 -14.179   3.479  0.00  0.00    +0.159 A 
ATOM     24  C   LIG    1       27.396 -14.730   3.391  0.00  0.00    +0.049 A 
ATOM     25  C   LIG    1       27.581 -16.112   3.557  0.00  0.00    +0.008 A 
BRANCH  23  26
ATOM     26  O   LIG    1       25.767 -12.874   3.254  0.00  0.00    -0.325 OA
BRANCH  26  27
ATOM     27  S   LIG    1       24.246 -12.361   3.007  0.00  0.00    +0.251 S 
ATOM     28  O   LIG    1       24.174 -11.540   1.817  0.00  0.00    -0.108 OA
ATOM     29  O   LIG    1       23.702 -11.924   4.269  0.00  0.00    -0.108 OA
BRANCH  27  30
ATOM     30  O   LIG    1       23.469 -13.736   2.664  0.00  0.00    -0.222 OA
ATOM     31  H   LIG    1       23.279 -13.749   1.704  0.00  0.00    +0.248 HD
ENDBRANCH  27  30
ENDBRANCH  26  27
ENDBRANCH  23  26
ENDBRANCH   1  20
TORSDOF 9
ENDMDL
