MODEL 1
REMARK VINA RESULT:      -9.4      0.000      0.000
REMARK  Name = *****
REMARK                            x       y       z     vdW  Elec       q    Type
REMARK                         _______ _______ _______ _____ _____    ______ ____
ROOT
ATOM      1  C   LIG    1       31.110 -21.462   9.039  0.00  0.00    +0.027 C 
ATOM      2  C   LIG    1       30.020 -20.596   8.355  0.00  0.00    +0.086 C 
ENDROOT
BRANCH   2   3
ATOM      3  N   LIG    1       29.299 -21.359   7.284  0.00  0.00    -0.297 NA
ATOM      4  C   LIG    1       28.161 -22.163   7.757  0.00  0.00    +0.085 C 
ATOM      5  C   LIG    1       26.971 -21.304   8.184  0.00  0.00    +0.019 C 
ATOM      6  C   LIG    1       26.469 -20.401   7.043  0.00  0.00    -0.004 C 
ATOM      7  C   LIG    1       27.658 -19.644   6.425  0.00  0.00    +0.019 C 
ATOM      8  C   LIG    1       28.850 -20.561   6.132  0.00  0.00    +0.085 C 
BRANCH   6   9
ATOM      9  C   LIG    1       25.681 -21.174   5.955  0.00  0.00    +0.038 C 
BRANCH   9  10
ATOM     10  C   LIG    1       24.584 -20.371   5.292  0.00  0.00    -0.047 A 
ATOM     11  C   LIG    1       24.816 -19.691   4.089  0.00  0.00    +0.003 A 
ATOM     12  C   LIG    1       23.807 -18.935   3.492  0.00  0.00    +0.000 A 
ATOM     13  C   LIG    1       22.548 -18.857   4.089  0.00  0.00    +0.000 A 
ATOM     14  C   LIG    1       22.302 -19.537   5.278  0.00  0.00    +0.000 A 
ATOM     15  C   LIG    1       23.312 -20.292   5.878  0.00  0.00    +0.003 A 
ENDBRANCH   9  10
ENDBRANCH   6   9
ENDBRANCH   2   3
BRANCH   2  16
ATOM     16  C   LIG    1       30.711 -19.239   7.919  0.00  0.00    +0.161 C 
BRANCH  16  17
ATOM     17  C   LIG    1       31.086 -18.246   9.005  0.00  0.00    -0.017 A 
ATOM     18  C   LIG    1       30.293 -18.055  10.154  0.00  0.00    +0.010 A 
ATOM     19  C   LIG    1       30.678 -17.155  11.147  0.00  0.00    +0.046 A 
ATOM     20  C   LIG    1       31.861 -16.459  11.017  0.00  0.00    +0.117 A 
ATOM     21  C   LIG    1       32.684 -16.645   9.908  0.00  0.00    +0.046 A 
ATOM     22  C   LIG    1       32.293 -17.542   8.909  0.00  0.00    +0.010 A 
BRANCH  20  23
ATOM     23  O   LIG    1       32.196 -15.600  12.022  0.00  0.00    -0.507 OA
ATOM     24  H   LIG    1       32.121 -16.083  12.868  0.00  0.00    +0.292 HD
ENDBRANCH  20  23
ENDBRANCH  16  17
BRANCH  16  25
ATOM     25  O   LIG    1       31.862 -19.462   7.098  0.00  0.00    -0.386 OA
ATOM     26  H   LIG    1       32.135 -18.583   6.776  0.00  0.00    +0.210 HD
ENDBRANCH  16  25
ENDBRANCH   2  16
TORSDOF 7
ENDMDL
MODEL 2
REMARK VINA RESULT:      -9.0      1.379      2.221
REMARK  Name = *****
REMARK                            x       y       z     vdW  Elec       q    Type
REMARK                         _______ _______ _______ _____ _____    ______ ____
ROOT
ATOM      1  C   LIG    1       30.841 -21.439   9.016  0.00  0.00    +0.027 C 
ATOM      2  C   LIG    1       29.883 -20.519   8.216  0.00  0.00    +0.086 C 
ENDROOT
BRANCH   2   3
ATOM      3  N   LIG    1       29.238 -21.250   7.077  0.00  0.00    -0.297 NA
ATOM      4  C   LIG    1       28.061 -22.054   7.445  0.00  0.00    +0.085 C 
ATOM      5  C   LIG    1       26.849 -21.194   7.802  0.00  0.00    +0.019 C 
ATOM      6  C   LIG    1       26.441 -20.259   6.649  0.00  0.00    -0.004 C 
ATOM      7  C   LIG    1       27.679 -19.500   6.140  0.00  0.00    +0.019 C 
ATOM      8  C   LIG    1       28.882 -20.421   5.914  0.00  0.00    +0.085 C 
BRANCH   6   9
ATOM      9  C   LIG    1       25.730 -20.999   5.487  0.00  0.00    +0.038 C 
BRANCH   9  10
ATOM     10  C   LIG    1       24.751 -22.062   5.933  0.00  0.00    -0.047 A 
ATOM     11  C   LIG    1       23.477 -21.715   6.404  0.00  0.00    +0.003 A 
ATOM     12  C   LIG    1       22.585 -22.699   6.833  0.00  0.00    +0.000 A 
ATOM     13  C   LIG    1       22.954 -24.043   6.787  0.00  0.00    +0.000 A 
ATOM     14  C   LIG    1       24.212 -24.401   6.311  0.00  0.00    +0.000 A 
ATOM     15  C   LIG    1       25.107 -23.417   5.884  0.00  0.00    +0.003 A 
ENDBRANCH   9  10
ENDBRANCH   6   9
ENDBRANCH   2   3
BRANCH   2  16
ATOM     16  C   LIG    1       30.694 -19.208   7.851  0.00  0.00    +0.161 C 
BRANCH  16  17
ATOM     17  C   LIG    1       31.012 -18.231   8.970  0.00  0.00    -0.017 A 
ATOM     18  C   LIG    1       30.128 -18.003  10.042  0.00  0.00    +0.010 A 
ATOM     19  C   LIG    1       30.460 -17.119  11.068  0.00  0.00    +0.046 A 
ATOM     20  C   LIG    1       31.678 -16.475  11.047  0.00  0.00    +0.117 A 
ATOM     21  C   LIG    1       32.590 -16.699  10.017  0.00  0.00    +0.046 A 
ATOM     22  C   LIG    1       32.252 -17.580   8.985  0.00  0.00    +0.010 A 
BRANCH  20  23
ATOM     23  O   LIG    1       31.958 -15.629  12.080  0.00  0.00    -0.507 OA
ATOM     24  H   LIG    1       31.591 -16.020  12.897  0.00  0.00    +0.292 HD
ENDBRANCH  20  23
ENDBRANCH  16  17
BRANCH  16  25
ATOM     25  O   LIG    1       31.909 -19.505   7.156  0.00  0.00    -0.386 OA
ATOM     26  H   LIG    1       31.704 -19.406   6.208  0.00  0.00    +0.210 HD
ENDBRANCH  16  25
ENDBRANCH   2  16
TORSDOF 7
ENDMDL
MODEL 3
REMARK VINA RESULT:      -8.2      3.232      8.058
REMARK  Name = *****
REMARK                            x       y       z     vdW  Elec       q    Type
REMARK                         _______ _______ _______ _____ _____    ______ ____
ROOT
ATOM      1  C   LIG    1       26.324 -22.554   8.310  0.00  0.00    +0.027 C 
ATOM      2  C   LIG    1       26.395 -21.928   6.893  0.00  0.00    +0.086 C 
ENDROOT
BRANCH   2   3
ATOM      3  N   LIG    1       26.679 -20.457   6.953  0.00  0.00    -0.297 NA
ATOM      4  C   LIG    1       27.305 -19.998   8.203  0.00  0.00    +0.085 C 
ATOM      5  C   LIG    1       28.756 -20.456   8.338  0.00  0.00    +0.019 C 
ATOM      6  C   LIG    1       29.629 -19.970   7.168  0.00  0.00    -0.004 C 
ATOM      7  C   LIG    1       28.937 -20.308   5.835  0.00  0.00    +0.019 C 
ATOM      8  C   LIG    1       27.457 -19.917   5.825  0.00  0.00    +0.085 C 
BRANCH   6   9
ATOM      9  C   LIG    1       29.968 -18.459   7.246  0.00  0.00    +0.038 C 
BRANCH   9  10
ATOM     10  C   LIG    1       30.585 -18.027   8.557  0.00  0.00    -0.047 A 
ATOM     11  C   LIG    1       29.791 -17.827   9.695  0.00  0.00    +0.003 A 
ATOM     12  C   LIG    1       30.363 -17.408  10.897  0.00  0.00    +0.000 A 
ATOM     13  C   LIG    1       31.738 -17.193  10.977  0.00  0.00    +0.000 A 
ATOM     14  C   LIG    1       32.539 -17.398   9.857  0.00  0.00    +0.000 A 
ATOM     15  C   LIG    1       31.968 -17.815   8.653  0.00  0.00    +0.003 A 
ENDBRANCH   9  10
ENDBRANCH   6   9
ENDBRANCH   2   3
BRANCH   2  16
ATOM     16  C   LIG    1       25.083 -22.369   6.123  0.00  0.00    +0.161 C 
BRANCH  16  17
ATOM     17  C   LIG    1       24.213 -21.283   5.513  0.00  0.00    -0.017 A 
ATOM     18  C   LIG    1       23.192 -20.642   6.240  0.00  0.00    +0.010 A 
ATOM     19  C   LIG    1       22.427 -19.630   5.660  0.00  0.00    +0.046 A 
ATOM     20  C   LIG    1       22.687 -19.234   4.366  0.00  0.00    +0.117 A 
ATOM     21  C   LIG    1       23.710 -19.827   3.627  0.00  0.00    +0.046 A 
ATOM     22  C   LIG    1       24.469 -20.847   4.207  0.00  0.00    +0.010 A 
BRANCH  20  23
ATOM     23  O   LIG    1       21.918 -18.233   3.850  0.00  0.00    -0.507 OA
ATOM     24  H   LIG    1       21.508 -17.754   4.596  0.00  0.00    +0.292 HD
ENDBRANCH  20  23
ENDBRANCH  16  17
BRANCH  16  25
ATOM     25  O   LIG    1       25.355 -23.346   5.114  0.00  0.00    -0.386 OA
ATOM     26  H   LIG    1       25.459 -24.193   5.584  0.00  0.00    +0.210 HD
ENDBRANCH  16  25
ENDBRANCH   2  16
TORSDOF 7
ENDMDL
MODEL 4
REMARK VINA RESULT:      -8.1      3.904      8.475
REMARK  Name = *****
REMARK                            x       y       z     vdW  Elec       q    Type
REMARK                         _______ _______ _______ _____ _____    ______ ____
ROOT
ATOM      1  C   LIG    1       23.361 -22.127   7.448  0.00  0.00    +0.027 C 
ATOM      2  C   LIG    1       24.873 -22.058   7.112  0.00  0.00    +0.086 C 
ENDROOT
BRANCH   2   3
ATOM      3  N   LIG    1       25.390 -20.652   7.171  0.00  0.00    -0.297 NA
ATOM      4  C   LIG    1       26.456 -20.426   8.160  0.00  0.00    +0.085 C 
ATOM      5  C   LIG    1       27.780 -21.076   7.757  0.00  0.00    +0.019 C 
ATOM      6  C   LIG    1       28.284 -20.568   6.395  0.00  0.00    -0.004 C 
ATOM      7  C   LIG    1       27.148 -20.657   5.360  0.00  0.00    +0.019 C 
ATOM      8  C   LIG    1       25.828 -20.085   5.886  0.00  0.00    +0.085 C 
BRANCH   6   9
ATOM      9  C   LIG    1       28.864 -19.132   6.455  0.00  0.00    +0.038 C 
BRANCH   9  10
ATOM     10  C   LIG    1       29.806 -18.889   7.613  0.00  0.00    -0.047 A 
ATOM     11  C   LIG    1       29.561 -17.864   8.538  0.00  0.00    +0.003 A 
ATOM     12  C   LIG    1       30.444 -17.632   9.593  0.00  0.00    +0.000 A 
ATOM     13  C   LIG    1       31.579 -18.428   9.740  0.00  0.00    +0.000 A 
ATOM     14  C   LIG    1       31.828 -19.456   8.835  0.00  0.00    +0.000 A 
ATOM     15  C   LIG    1       30.946 -19.688   7.777  0.00  0.00    +0.003 A 
ENDBRANCH   9  10
ENDBRANCH   6   9
ENDBRANCH   2   3
BRANCH   2  16
ATOM     16  C   LIG    1       25.082 -22.837   5.748  0.00  0.00    +0.161 C 
BRANCH  16  17
ATOM     17  C   LIG    1       25.331 -24.334   5.810  0.00  0.00    -0.017 A 
ATOM     18  C   LIG    1       25.785 -24.971   6.981  0.00  0.00    +0.010 A 
ATOM     19  C   LIG    1       25.979 -26.352   7.015  0.00  0.00    +0.046 A 
ATOM     20  C   LIG    1       25.702 -27.108   5.896  0.00  0.00    +0.117 A 
ATOM     21  C   LIG    1       25.223 -26.514   4.730  0.00  0.00    +0.046 A 
ATOM     22  C   LIG    1       25.037 -25.129   4.695  0.00  0.00    +0.010 A 
BRANCH  20  23
ATOM     23  O   LIG    1       25.898 -28.455   5.986  0.00  0.00    -0.507 OA
ATOM     24  H   LIG    1       25.215 -28.895   5.443  0.00  0.00    +0.292 HD
ENDBRANCH  20  23
ENDBRANCH  16  17
BRANCH  16  25
ATOM     25  O   LIG    1       24.015 -22.597   4.825  0.00  0.00    -0.386 OA
ATOM     26  H   LIG    1       24.245 -21.773   4.359  0.00  0.00    +0.210 HD
ENDBRANCH  16  25
ENDBRANCH   2  16
TORSDOF 7
ENDMDL
MODEL 5
REMARK VINA RESULT:      -8.0      4.394      8.737
REMARK  Name = *****
REMARK                            x       y       z     vdW  Elec       q    Type
REMARK                         _______ _______ _______ _____ _____    ______ ____
ROOT
ATOM      1  C   LIG    1       22.720 -22.415   5.843  0.00  0.00    +0.027 C 
ATOM      2  C   LIG    1       23.727 -23.027   6.851  0.00  0.00    +0.086 C 
ENDROOT
BRANCH   2   3
ATOM      3  N   LIG    1       24.209 -22.007   7.839  0.00  0.00    -0.297 NA
ATOM      4  C   LIG    1       25.445 -22.371   8.551  0.00  0.00    +0.085 C 
ATOM      5  C   LIG    1       26.678 -22.328   7.649  0.00  0.00    +0.019 C 
ATOM      6  C   LIG    1       26.887 -20.939   7.019  0.00  0.00    -0.004 C 
ATOM      7  C   LIG    1       25.570 -20.459   6.383  0.00  0.00    +0.019 C 
ATOM      8  C   LIG    1       24.367 -20.642   7.313  0.00  0.00    +0.085 C 
BRANCH   6   9
ATOM      9  C   LIG    1       27.430 -19.890   8.022  0.00  0.00    +0.038 C 
BRANCH   9  10
ATOM     10  C   LIG    1       28.893 -19.553   7.840  0.00  0.00    -0.047 A 
ATOM     11  C   LIG    1       29.677 -19.137   8.925  0.00  0.00    +0.003 A 
ATOM     12  C   LIG    1       31.021 -18.809   8.748  0.00  0.00    +0.000 A 
ATOM     13  C   LIG    1       31.600 -18.901   7.483  0.00  0.00    +0.000 A 
ATOM     14  C   LIG    1       30.836 -19.324   6.399  0.00  0.00    +0.000 A 
ATOM     15  C   LIG    1       29.489 -19.650   6.575  0.00  0.00    +0.003 A 
ENDBRANCH   9  10
ENDBRANCH   6   9
ENDBRANCH   2   3
BRANCH   2  16
ATOM     16  C   LIG    1       24.836 -23.775   6.003  0.00  0.00    +0.161 C 
BRANCH  16  17
ATOM     17  C   LIG    1       24.965 -25.280   6.163  0.00  0.00    -0.017 A 
ATOM     18  C   LIG    1       24.178 -26.184   5.423  0.00  0.00    +0.010 A 
ATOM     19  C   LIG    1       24.338 -27.561   5.573  0.00  0.00    +0.046 A 
ATOM     20  C   LIG    1       25.293 -28.047   6.440  0.00  0.00    +0.117 A 
ATOM     21  C   LIG    1       26.109 -27.182   7.166  0.00  0.00    +0.046 A 
ATOM     22  C   LIG    1       25.942 -25.801   7.020  0.00  0.00    +0.010 A 
BRANCH  20  23
ATOM     23  O   LIG    1       25.416 -29.402   6.541  0.00  0.00    -0.507 OA
ATOM     24  H   LIG    1       25.467 -29.768   5.636  0.00  0.00    +0.292 HD
ENDBRANCH  20  23
ENDBRANCH  16  17
BRANCH  16  25
ATOM     25  O   LIG    1       24.733 -23.480   4.606  0.00  0.00    -0.386 OA
ATOM     26  H   LIG    1       23.793 -23.278   4.445  0.00  0.00    +0.210 HD
ENDBRANCH  16  25
ENDBRANCH   2  16
TORSDOF 7
ENDMDL
MODEL 6
REMARK VINA RESULT:      -8.0      5.958      8.658
REMARK  Name = *****
REMARK                            x       y       z     vdW  Elec       q    Type
REMARK                         _______ _______ _______ _____ _____    ______ ____
ROOT
ATOM      1  C   LIG    1       24.053 -26.261   5.403  0.00  0.00    +0.027 C 
ATOM      2  C   LIG    1       25.089 -25.699   6.411  0.00  0.00    +0.086 C 
ENDROOT
BRANCH   2   3
ATOM      3  N   LIG    1       25.638 -24.379   5.961  0.00  0.00    -0.297 NA
ATOM      4  C   LIG    1       24.642 -23.457   5.390  0.00  0.00    +0.085 C 
ATOM      5  C   LIG    1       23.689 -22.894   6.443  0.00  0.00    +0.019 C 
ATOM      6  C   LIG    1       24.437 -22.146   7.562  0.00  0.00    -0.004 C 
ATOM      7  C   LIG    1       25.582 -23.028   8.092  0.00  0.00    +0.019 C 
ATOM      8  C   LIG    1       26.420 -23.643   6.967  0.00  0.00    +0.085 C 
BRANCH   6   9
ATOM      9  C   LIG    1       24.968 -20.759   7.120  0.00  0.00    +0.038 C 
BRANCH   9  10
ATOM     10  C   LIG    1       24.297 -20.201   5.884  0.00  0.00    -0.047 A 
ATOM     11  C   LIG    1       25.023 -19.987   4.705  0.00  0.00    +0.003 A 
ATOM     12  C   LIG    1       24.404 -19.454   3.575  0.00  0.00    +0.000 A 
ATOM     13  C   LIG    1       23.047 -19.134   3.608  0.00  0.00    +0.000 A 
ATOM     14  C   LIG    1       22.312 -19.352   4.770  0.00  0.00    +0.000 A 
ATOM     15  C   LIG    1       22.931 -19.884   5.903  0.00  0.00    +0.003 A 
ENDBRANCH   9  10
ENDBRANCH   6   9
ENDBRANCH   2   3
BRANCH   2  16
ATOM     16  C   LIG    1       26.141 -26.850   6.687  0.00  0.00    +0.161 C 
BRANCH  16  17
ATOM     17  C   LIG    1       25.737 -27.980   7.619  0.00  0.00    -0.017 A 
ATOM     18  C   LIG    1       24.749 -28.922   7.272  0.00  0.00    +0.010 A 
ATOM     19  C   LIG    1       24.418 -29.964   8.139  0.00  0.00    +0.046 A 
ATOM     20  C   LIG    1       25.081 -30.089   9.340  0.00  0.00    +0.117 A 
ATOM     21  C   LIG    1       26.085 -29.192   9.703  0.00  0.00    +0.046 A 
ATOM     22  C   LIG    1       26.409 -28.143   8.836  0.00  0.00    +0.010 A 
BRANCH  20  23
ATOM     23  O   LIG    1       24.727 -31.131  10.146  0.00  0.00    -0.507 OA
ATOM     24  H   LIG    1       23.754 -31.212  10.123  0.00  0.00    +0.292 HD
ENDBRANCH  20  23
ENDBRANCH  16  17
BRANCH  16  25
ATOM     25  O   LIG    1       26.637 -27.426   5.474  0.00  0.00    -0.386 OA
ATOM     26  H   LIG    1       25.887 -27.422   4.851  0.00  0.00    +0.210 HD
ENDBRANCH  16  25
ENDBRANCH   2  16
TORSDOF 7
ENDMDL
MODEL 7
REMARK VINA RESULT:      -7.9      7.034      9.182
REMARK  Name = *****
REMARK                            x       y       z     vdW  Elec       q    Type
REMARK                         _______ _______ _______ _____ _____    ______ ____
ROOT
ATOM      1  C   LIG    1       23.841 -29.279   5.750  0.00  0.00    +0.027 C 
ATOM      2  C   LIG    1       24.755 -28.285   6.513  0.00  0.00    +0.086 C 
ENDROOT
BRANCH   2   3
ATOM      3  N   LIG    1       25.318 -27.239   5.598  0.00  0.00    -0.297 NA
ATOM      4  C   LIG    1       24.322 -26.322   5.020  0.00  0.00    +0.085 C 
ATOM      5  C   LIG    1       23.745 -25.353   6.051  0.00  0.00    +0.019 C 
ATOM      6  C   LIG    1       24.837 -24.501   6.722  0.00  0.00    -0.004 C 
ATOM      7  C   LIG    1       25.971 -25.416   7.218  0.00  0.00    +0.019 C 
ATOM      8  C   LIG    1       26.413 -26.431   6.160  0.00  0.00    +0.085 C 
BRANCH   6   9
ATOM      9  C   LIG    1       25.392 -23.385   5.800  0.00  0.00    +0.038 C 
BRANCH   9  10
ATOM     10  C   LIG    1       24.510 -22.160   5.705  0.00  0.00    -0.047 A 
ATOM     11  C   LIG    1       24.312 -21.509   4.480  0.00  0.00    +0.003 A 
ATOM     12  C   LIG    1       23.514 -20.368   4.402  0.00  0.00    +0.000 A 
ATOM     13  C   LIG    1       22.896 -19.868   5.548  0.00  0.00    +0.000 A 
ATOM     14  C   LIG    1       23.076 -20.513   6.769  0.00  0.00    +0.000 A 
ATOM     15  C   LIG    1       23.877 -21.654   6.849  0.00  0.00    +0.003 A 
ENDBRANCH   9  10
ENDBRANCH   6   9
ENDBRANCH   2   3
BRANCH   2  16
ATOM     16  C   LIG    1       25.799 -29.150   7.333  0.00  0.00    +0.161 C 
BRANCH  16  17
ATOM     17  C   LIG    1       25.691 -29.152   8.848  0.00  0.00    -0.017 A 
ATOM     18  C   LIG    1       24.757 -29.955   9.533  0.00  0.00    +0.010 A 
ATOM     19  C   LIG    1       24.699 -29.956  10.926  0.00  0.00    +0.046 A 
ATOM     20  C   LIG    1       25.582 -29.179  11.646  0.00  0.00    +0.117 A 
ATOM     21  C   LIG    1       26.538 -28.396  11.003  0.00  0.00    +0.046 A 
ATOM     22  C   LIG    1       26.588 -28.390   9.606  0.00  0.00    +0.010 A 
BRANCH  20  23
ATOM     23  O   LIG    1       25.490 -29.225  13.007  0.00  0.00    -0.507 OA
ATOM     24  H   LIG    1       26.139 -29.880  13.330  0.00  0.00    +0.292 HD
ENDBRANCH  20  23
ENDBRANCH  16  17
BRANCH  16  25
ATOM     25  O   LIG    1       25.841 -30.508   6.884  0.00  0.00    -0.386 OA
ATOM     26  H   LIG    1       25.147 -30.586   6.204  0.00  0.00    +0.210 HD
ENDBRANCH  16  25
ENDBRANCH   2  16
TORSDOF 7
ENDMDL
MODEL 8
REMARK VINA RESULT:      -7.9      4.654      6.573
REMARK  Name = *****
REMARK                            x       y       z     vdW  Elec       q    Type
REMARK                         _______ _______ _______ _____ _____    ______ ____
ROOT
ATOM      1  C   LIG    1       25.753 -20.708   6.108  0.00  0.00    +0.027 C 
ATOM      2  C   LIG    1       26.258 -22.006   6.791  0.00  0.00    +0.086 C 
ENDROOT
BRANCH   2   3
ATOM      3  N   LIG    1       25.129 -22.945   7.095  0.00  0.00    -0.297 NA
ATOM      4  C   LIG    1       24.171 -23.138   5.995  0.00  0.00    +0.085 C 
ATOM      5  C   LIG    1       24.758 -23.946   4.838  0.00  0.00    +0.019 C 
ATOM      6  C   LIG    1       25.244 -25.335   5.289  0.00  0.00    -0.004 C 
ATOM      7  C   LIG    1       26.141 -25.188   6.531  0.00  0.00    +0.019 C 
ATOM      8  C   LIG    1       25.528 -24.272   7.594  0.00  0.00    +0.085 C 
BRANCH   6   9
ATOM      9  C   LIG    1       24.085 -26.329   5.560  0.00  0.00    +0.038 C 
BRANCH   9  10
ATOM     10  C   LIG    1       24.535 -27.734   5.891  0.00  0.00    -0.047 A 
ATOM     11  C   LIG    1       25.020 -28.589   4.892  0.00  0.00    +0.003 A 
ATOM     12  C   LIG    1       25.415 -29.891   5.200  0.00  0.00    +0.000 A 
ATOM     13  C   LIG    1       25.336 -30.352   6.514  0.00  0.00    +0.000 A 
ATOM     14  C   LIG    1       24.866 -29.509   7.517  0.00  0.00    +0.000 A 
ATOM     15  C   LIG    1       24.469 -28.206   7.210  0.00  0.00    +0.003 A 
ENDBRANCH   9  10
ENDBRANCH   6   9
ENDBRANCH   2   3
BRANCH   2  16
ATOM     16  C   LIG    1       27.166 -21.565   8.012  0.00  0.00    +0.161 C 
BRANCH  16  17
ATOM     17  C   LIG    1       28.493 -20.892   7.710  0.00  0.00    -0.017 A 
ATOM     18  C   LIG    1       28.597 -19.803   6.822  0.00  0.00    +0.010 A 
ATOM     19  C   LIG    1       29.826 -19.188   6.585  0.00  0.00    +0.046 A 
ATOM     20  C   LIG    1       30.952 -19.635   7.243  0.00  0.00    +0.117 A 
ATOM     21  C   LIG    1       30.880 -20.690   8.150  0.00  0.00    +0.046 A 
ATOM     22  C   LIG    1       29.648 -21.311   8.381  0.00  0.00    +0.010 A 
BRANCH  20  23
ATOM     23  O   LIG    1       32.126 -18.992   6.983  0.00  0.00    -0.507 OA
ATOM     24  H   LIG    1       32.708 -19.612   6.502  0.00  0.00    +0.292 HD
ENDBRANCH  20  23
ENDBRANCH  16  17
BRANCH  16  25
ATOM     25  O   LIG    1       26.451 -20.748   8.945  0.00  0.00    -0.386 OA
ATOM     26  H   LIG    1       25.541 -20.685   8.602  0.00  0.00    +0.210 HD
ENDBRANCH  16  25
ENDBRANCH   2  16
TORSDOF 7
ENDMDL
MODEL 9
REMARK VINA RESULT:      -7.8      4.454      6.846
REMARK  Name = *****
REMARK                            x       y       z     vdW  Elec       q    Type
REMARK                         _______ _______ _______ _____ _____    ______ ____
ROOT
ATOM      1  C   LIG    1       23.231 -20.450   7.301  0.00  0.00    +0.027 C 
ATOM      2  C   LIG    1       24.417 -20.862   6.392  0.00  0.00    +0.086 C 
ENDROOT
BRANCH   2   3
ATOM      3  N   LIG    1       24.023 -21.935   5.421  0.00  0.00    -0.297 NA
ATOM      4  C   LIG    1       25.114 -22.835   5.018  0.00  0.00    +0.085 C 
ATOM      5  C   LIG    1       25.549 -23.775   6.142  0.00  0.00    +0.019 C 
ATOM      6  C   LIG    1       24.385 -24.644   6.653  0.00  0.00    -0.004 C 
ATOM      7  C   LIG    1       23.170 -23.749   6.955  0.00  0.00    +0.019 C 
ATOM      8  C   LIG    1       22.872 -22.760   5.824  0.00  0.00    +0.085 C 
BRANCH   6   9
ATOM      9  C   LIG    1       24.001 -25.785   5.677  0.00  0.00    +0.038 C 
BRANCH   9  10
ATOM     10  C   LIG    1       24.445 -27.161   6.123  0.00  0.00    -0.047 A 
ATOM     11  C   LIG    1       24.016 -28.310   5.446  0.00  0.00    +0.003 A 
ATOM     12  C   LIG    1       24.412 -29.578   5.874  0.00  0.00    +0.000 A 
ATOM     13  C   LIG    1       25.250 -29.710   6.981  0.00  0.00    +0.000 A 
ATOM     14  C   LIG    1       25.691 -28.575   7.656  0.00  0.00    +0.000 A 
ATOM     15  C   LIG    1       25.294 -27.306   7.230  0.00  0.00    +0.003 A 
ENDBRANCH   9  10
ENDBRANCH   6   9
ENDBRANCH   2   3
BRANCH   2  16
ATOM     16  C   LIG    1       25.644 -21.179   7.343  0.00  0.00    +0.161 C 
BRANCH  16  17
ATOM     17  C   LIG    1       26.971 -20.504   7.046  0.00  0.00    -0.017 A 
ATOM     18  C   LIG    1       27.274 -19.966   5.780  0.00  0.00    +0.010 A 
ATOM     19  C   LIG    1       28.492 -19.328   5.545  0.00  0.00    +0.046 A 
ATOM     20  C   LIG    1       29.404 -19.201   6.570  0.00  0.00    +0.117 A 
ATOM     21  C   LIG    1       29.126 -19.695   7.843  0.00  0.00    +0.046 A 
ATOM     22  C   LIG    1       27.908 -20.341   8.075  0.00  0.00    +0.010 A 
BRANCH  20  23
ATOM     23  O   LIG    1       30.575 -18.559   6.291  0.00  0.00    -0.507 OA
ATOM     24  H   LIG    1       31.159 -18.646   7.069  0.00  0.00    +0.292 HD
ENDBRANCH  20  23
ENDBRANCH  16  17
BRANCH  16  25
ATOM     25  O   LIG    1       25.326 -20.956   8.721  0.00  0.00    -0.386 OA
ATOM     26  H   LIG    1       24.974 -21.802   9.053  0.00  0.00    +0.210 HD
ENDBRANCH  16  25
ENDBRANCH   2  16
TORSDOF 7
ENDMDL
