MODEL 1
REMARK VINA RESULT:      22.2      0.000      0.000
REMARK  Name = *****
REMARK                            x       y       z     vdW  Elec       q    Type
REMARK                         _______ _______ _______ _____ _____    ______ ____
ROOT
ATOM      1  C   LIG    1       20.909 -16.548   6.086  0.00  0.00    +0.100 C 
ENDROOT
BRANCH   1   2
ATOM      2  C   LIG    1       21.878 -15.545   6.842  0.00  0.00    +0.100 C 
BRANCH   2   3
ATOM      3  N   LIG    1       23.025 -14.887   6.162  0.00  0.00    -0.287 NA
BRANCH   3   4
ATOM      4  C   LIG    1       23.149 -14.990   4.609  0.00  0.00    +0.124 C 
BRANCH   4   5
ATOM      5  C   LIG    1       24.705 -15.539   3.331  0.00  0.00    +0.012 A 
ATOM      6  C   LIG    1       25.169 -17.152   2.766  0.00  0.00    +0.142 A 
ATOM      7  C   LIG    1       26.643 -17.774   3.195  0.00  0.00    +0.080 A 
ATOM      8  C   LIG    1       26.963 -19.244   3.281  0.00  0.00    +0.069 C 
ATOM      9  N   LIG    1       27.643 -16.715   3.476  0.00  0.00    -0.251 NA
ATOM     10  C   LIG    1       27.271 -15.025   3.689  0.00  0.00    +0.068 A 
ATOM     11  C   LIG    1       25.756 -14.357   3.727  0.00  0.00    +0.034 A 
BRANCH   6  12
ATOM     12  O   LIG    1       24.515 -18.534   2.599  0.00  0.00    -0.505 OA
ATOM     13  H   LIG    1       25.079 -19.318   2.362  0.00  0.00    +0.292 HD
ENDBRANCH   6  12
BRANCH  10  14
ATOM     14  C   LIG    1       28.022 -14.344   2.755  0.00  0.00    +0.227 C 
BRANCH  14  15
ATOM     15  O   LIG    1       28.346 -13.038   3.211  0.00  0.00    -0.281 OA
BRANCH  15  16
ATOM     16  P   LIG    1       28.134 -12.518   4.718  0.00  0.00    +0.473 P 
ATOM     17  O   LIG    1       26.771 -12.088   5.139  0.00  0.00    -0.228 OA
BRANCH  16  18
ATOM     18  O   LIG    1       28.664 -13.762   5.564  0.00  0.00    -0.303 OA
ATOM     19  H   LIG    1       28.500 -13.643   6.511  0.00  0.00    +0.222 HD
ENDBRANCH  16  18
BRANCH  16  20
ATOM     20  O   LIG    1       29.259 -11.448   5.058  0.00  0.00    -0.303 OA
ATOM     21  H   LIG    1       28.975 -10.873   5.791  0.00  0.00    +0.222 HD
ENDBRANCH  16  20
ENDBRANCH  15  16
ENDBRANCH  14  15
ENDBRANCH  10  14
ENDBRANCH   4   5
ENDBRANCH   3   4
BRANCH   3  22
ATOM     22  C   LIG    1       23.374 -13.576   6.739  0.00  0.00    +0.205 C 
BRANCH  22  23
ATOM     23  C   LIG    1       22.896 -12.243   5.836  0.00  0.00    +0.319 C 
ATOM     24  O   LIG    1       21.969 -11.489   6.127  0.00  0.00    -0.250 OA
BRANCH  23  25
ATOM     25  O   LIG    1       23.494 -11.989   4.619  0.00  0.00    -0.480 OA
ATOM     26  H   LIG    1       24.480 -11.912   4.723  0.00  0.00    +0.295 HD
ENDBRANCH  23  25
ENDBRANCH  22  23
ENDBRANCH   3  22
ENDBRANCH   2   3
ENDBRANCH   1   2
BRANCH   1  27
ATOM     27  N   LIG    1       21.451 -17.800   5.516  0.00  0.00    -0.287 NA
BRANCH  27  28
ATOM     28  C   LIG    1       21.756 -17.841   4.081  0.00  0.00    +0.205 C 
BRANCH  28  29
ATOM     29  C   LIG    1       20.538 -17.850   3.144  0.00  0.00    +0.319 C 
ATOM     30  O   LIG    1       20.325 -17.129   2.180  0.00  0.00    -0.250 OA
BRANCH  29  31
ATOM     31  O   LIG    1       19.558 -18.651   3.639  0.00  0.00    -0.480 OA
ATOM     32  H   LIG    1       18.910 -18.057   4.067  0.00  0.00    +0.295 HD
ENDBRANCH  29  31
ENDBRANCH  28  29
ENDBRANCH  27  28
BRANCH  27  33
ATOM     33  C   LIG    1       21.403 -19.101   6.205  0.00  0.00    +0.124 C 
BRANCH  33  37
ATOM     34  C   LIG    1       24.522 -21.570   2.570  0.00  0.00    +0.069 C 
ATOM     35  C   LIG    1       23.964 -20.830   4.274  0.00  0.00    +0.080 A 
ATOM     36  C   LIG    1       22.357 -20.922   4.899  0.00  0.00    +0.142 A 
ATOM     37  C   LIG    1       22.421 -20.188   5.968  0.00  0.00    +0.012 A 
ATOM     38  C   LIG    1       23.789 -20.169   6.638  0.00  0.00    +0.034 A 
ATOM     39  C   LIG    1       25.106 -20.669   6.110  0.00  0.00    +0.068 A 
ATOM     40  N   LIG    1       25.152 -20.766   4.873  0.00  0.00    -0.251 NA
BRANCH  36  41
ATOM     41  O   LIG    1       21.004 -20.785   4.053  0.00  0.00    -0.505 OA
ATOM     42  H   LIG    1       20.166 -21.198   4.413  0.00  0.00    +0.292 HD
ENDBRANCH  36  41
BRANCH  39  43
ATOM     43  C   LIG    1       26.601 -21.098   6.712  0.00  0.00    +0.227 C 
BRANCH  43  44
ATOM     44  O   LIG    1       28.069 -20.370   7.061  0.00  0.00    -0.281 OA
BRANCH  44  45
ATOM     45  P   LIG    1       28.574 -18.917   6.288  0.00  0.00    +0.473 P 
ATOM     46  O   LIG    1       29.459 -19.084   5.097  0.00  0.00    -0.228 OA
BRANCH  45  47
ATOM     47  O   LIG    1       27.281 -18.094   5.816  0.00  0.00    -0.303 OA
ATOM     48  H   LIG    1       27.353 -17.904   4.861  0.00  0.00    +0.222 HD
ENDBRANCH  45  47
BRANCH  45  49
ATOM     49  O   LIG    1       29.462 -17.795   7.060  0.00  0.00    -0.303 OA
ATOM     50  H   LIG    1       29.590 -17.085   6.364  0.00  0.00    +0.222 HD
ENDBRANCH  45  49
ENDBRANCH  44  45
ENDBRANCH  43  44
ENDBRANCH  39  43
ENDBRANCH  33  37
ENDBRANCH  27  33
ENDBRANCH   1  27
TORSDOF 25
ENDMDL
