MODEL 1
REMARK VINA RESULT:      -9.7      0.000      0.000
REMARK  Name = *****
REMARK                            x       y       z     vdW  Elec       q    Type
REMARK                         _______ _______ _______ _____ _____    ______ ____
ROOT
ATOM      1  C   LIG    1       23.857 -23.684   6.693  0.00  0.00    +0.014 C 
ATOM      2  C   LIG    1       24.429 -22.263   6.989  0.00  0.00    -0.001 C 
ATOM      3  C   LIG    1       23.188 -21.340   7.239  0.00  0.00    +0.149 C 
ATOM      4  C   LIG    1       22.778 -20.854   5.835  0.00  0.00    +0.144 C 
ATOM      5  C   LIG    1       24.127 -20.533   5.227  0.00  0.00    +0.038 C 
ATOM      6  C   LIG    1       25.103 -21.646   5.714  0.00  0.00    +0.004 C 
ATOM      7  C   LIG    1       26.600 -21.178   5.749  0.00  0.00    +0.001 C 
ATOM      8  C   LIG    1       27.429 -21.606   6.991  0.00  0.00    +0.023 C 
ATOM      9  C   LIG    1       28.744 -20.827   7.170  0.00  0.00    -0.041 A 
ATOM     10  C   LIG    1       29.059 -19.703   6.389  0.00  0.00    -0.041 A 
ATOM     11  C   LIG    1       28.205 -19.288   5.233  0.00  0.00    +0.036 C 
ATOM     12  C   LIG    1       30.222 -18.955   6.628  0.00  0.00    +0.049 A 
ATOM     13  C   LIG    1       31.091 -19.332   7.644  0.00  0.00    +0.117 A 
ATOM     14  C   LIG    1       30.831 -20.461   8.398  0.00  0.00    +0.045 A 
ATOM     15  C   LIG    1       29.671 -21.211   8.163  0.00  0.00    +0.008 A 
ATOM     16  C   LIG    1       26.576 -21.520   8.267  0.00  0.00    +0.009 C 
ATOM     17  C   LIG    1       26.764 -19.669   5.475  0.00  0.00    +0.009 C 
ATOM     18  C   LIG    1       25.357 -22.432   8.207  0.00  0.00    +0.010 C 
ENDROOT
BRANCH   3  19
ATOM     19  O   LIG    1       23.514 -20.228   8.075  0.00  0.00    -0.389 OA
ATOM     20  H   LIG    1       22.893 -20.197   8.821  0.00  0.00    +0.210 HD
ENDBRANCH   3  19
BRANCH   4  21
ATOM     21  O   LIG    1       22.114 -21.851   5.071  0.00  0.00    -0.389 OA
ATOM     22  H   LIG    1       22.485 -22.720   5.303  0.00  0.00    +0.210 HD
ENDBRANCH   4  21
BRANCH  13  23
ATOM     23  O   LIG    1       32.187 -18.550   7.844  0.00  0.00    -0.507 OA
ATOM     24  H   LIG    1       32.094 -17.750   7.300  0.00  0.00    +0.292 HD
ENDBRANCH  13  23
TORSDOF 3
ENDMDL
MODEL 2
REMARK VINA RESULT:      -8.7      1.380      2.863
REMARK  Name = *****
REMARK                            x       y       z     vdW  Elec       q    Type
REMARK                         _______ _______ _______ _____ _____    ______ ____
ROOT
ATOM      1  C   LIG    1       22.526 -21.004   5.539  0.00  0.00    +0.014 C 
ATOM      2  C   LIG    1       23.945 -21.652   5.546  0.00  0.00    -0.001 C 
ATOM      3  C   LIG    1       23.739 -23.152   5.142  0.00  0.00    +0.149 C 
ATOM      4  C   LIG    1       23.431 -23.872   6.470  0.00  0.00    +0.144 C 
ATOM      5  C   LIG    1       24.453 -23.241   7.392  0.00  0.00    +0.038 C 
ATOM      6  C   LIG    1       24.524 -21.734   7.001  0.00  0.00    +0.004 C 
ATOM      7  C   LIG    1       25.903 -21.074   7.351  0.00  0.00    +0.001 C 
ATOM      8  C   LIG    1       26.507 -20.125   6.279  0.00  0.00    +0.023 C 
ATOM      9  C   LIG    1       27.998 -19.808   6.486  0.00  0.00    -0.041 A 
ATOM     10  C   LIG    1       28.778 -20.475   7.445  0.00  0.00    -0.041 A 
ATOM     11  C   LIG    1       28.169 -21.425   8.426  0.00  0.00    +0.036 C 
ATOM     12  C   LIG    1       30.156 -20.232   7.557  0.00  0.00    +0.049 A 
ATOM     13  C   LIG    1       30.767 -19.309   6.718  0.00  0.00    +0.117 A 
ATOM     14  C   LIG    1       30.016 -18.603   5.798  0.00  0.00    +0.045 A 
ATOM     15  C   LIG    1       28.640 -18.841   5.681  0.00  0.00    +0.008 A 
ATOM     16  C   LIG    1       26.267 -20.682   4.866  0.00  0.00    +0.009 C 
ATOM     17  C   LIG    1       26.954 -22.095   7.831  0.00  0.00    +0.009 C 
ATOM     18  C   LIG    1       24.785 -20.830   4.550  0.00  0.00    +0.010 C 
ENDROOT
BRANCH   3  19
ATOM     19  O   LIG    1       24.908 -23.704   4.536  0.00  0.00    -0.389 OA
ATOM     20  H   LIG    1       24.682 -24.551   4.119  0.00  0.00    +0.210 HD
ENDBRANCH   3  19
BRANCH   4  21
ATOM     21  O   LIG    1       22.115 -23.628   6.945  0.00  0.00    -0.389 OA
ATOM     22  H   LIG    1       21.480 -23.908   6.263  0.00  0.00    +0.210 HD
ENDBRANCH   4  21
BRANCH  13  23
ATOM     23  O   LIG    1       32.110 -19.139   6.857  0.00  0.00    -0.507 OA
ATOM     24  H   LIG    1       32.365 -19.438   7.746  0.00  0.00    +0.292 HD
ENDBRANCH  13  23
TORSDOF 3
ENDMDL
MODEL 3
REMARK VINA RESULT:      -7.1      1.458      6.717
REMARK  Name = *****
REMARK                            x       y       z     vdW  Elec       q    Type
REMARK                         _______ _______ _______ _____ _____    ______ ____
ROOT
ATOM      1  C   LIG    1       31.833 -19.462   6.365  0.00  0.00    +0.014 C 
ATOM      2  C   LIG    1       30.430 -19.102   6.945  0.00  0.00    -0.001 C 
ATOM      3  C   LIG    1       30.697 -18.193   8.193  0.00  0.00    +0.149 C 
ATOM      4  C   LIG    1       30.896 -19.183   9.358  0.00  0.00    +0.144 C 
ATOM      5  C   LIG    1       29.786 -20.177   9.094  0.00  0.00    +0.038 C 
ATOM      6  C   LIG    1       29.724 -20.366   7.548  0.00  0.00    +0.004 C 
ATOM      7  C   LIG    1       28.309 -20.810   7.039  0.00  0.00    +0.001 C 
ATOM      8  C   LIG    1       27.788 -20.115   5.751  0.00  0.00    +0.023 C 
ATOM      9  C   LIG    1       26.279 -20.290   5.507  0.00  0.00    -0.041 A 
ATOM     10  C   LIG    1       25.427 -20.861   6.467  0.00  0.00    -0.041 A 
ATOM     11  C   LIG    1       25.962 -21.473   7.723  0.00  0.00    +0.036 C 
ATOM     12  C   LIG    1       24.041 -20.931   6.258  0.00  0.00    +0.049 A 
ATOM     13  C   LIG    1       23.493 -20.442   5.080  0.00  0.00    +0.117 A 
ATOM     14  C   LIG    1       24.311 -19.918   4.097  0.00  0.00    +0.045 A 
ATOM     15  C   LIG    1       25.696 -19.845   4.300  0.00  0.00    +0.008 A 
ATOM     16  C   LIG    1       28.162 -18.624   5.752  0.00  0.00    +0.009 C 
ATOM     17  C   LIG    1       27.237 -20.783   8.147  0.00  0.00    +0.009 C 
ATOM     18  C   LIG    1       29.669 -18.409   5.798  0.00  0.00    +0.010 C 
ENDROOT
BRANCH   3  19
ATOM     19  O   LIG    1       29.596 -17.324   8.462  0.00  0.00    -0.389 OA
ATOM     20  H   LIG    1       29.856 -16.679   9.140  0.00  0.00    +0.210 HD
ENDBRANCH   3  19
BRANCH   4  21
ATOM     21  O   LIG    1       32.160 -19.831   9.329  0.00  0.00    -0.389 OA
ATOM     22  H   LIG    1       32.759 -19.320   8.758  0.00  0.00    +0.210 HD
ENDBRANCH   4  21
BRANCH  13  23
ATOM     23  O   LIG    1       22.140 -20.513   4.950  0.00  0.00    -0.507 OA
ATOM     24  H   LIG    1       21.873 -19.937   4.213  0.00  0.00    +0.292 HD
ENDBRANCH  13  23
TORSDOF 3
ENDMDL
