MODEL 1
REMARK VINA RESULT:      -7.5      0.000      0.000
REMARK  Name = *****
REMARK                            x       y       z     vdW  Elec       q    Type
REMARK                         _______ _______ _______ _____ _____    ______ ____
ROOT
ATOM      1  C   LIG    1       25.143 -26.498   6.432  0.00  0.00    +0.159 A 
ATOM      2  C   LIG    1       25.143 -26.954   5.110  0.00  0.00    +0.164 A 
ATOM      3  F   LIG    1       24.979 -26.118   4.074  0.00  0.00    -0.202 F 
ATOM      4  C   LIG    1       25.297 -28.303   4.838  0.00  0.00    +0.057 A 
ATOM      5  C   LIG    1       25.441 -29.190   5.902  0.00  0.00    +0.068 A 
ATOM      6  C   LIG    1       25.589 -30.622   5.608  0.00  0.00    +0.205 A 
ATOM      7  C   LIG    1       25.752 -31.550   6.732  0.00  0.00    +0.122 A 
ATOM      8  C   LIG    1       25.750 -31.015   7.962  0.00  0.00    +0.112 A 
ATOM      9  N   LIG    1       25.623 -29.665   8.311  0.00  0.00    -0.297 N 
ATOM     10  O   LIG    1       25.561 -31.045   4.455  0.00  0.00    -0.286 OA
ATOM     11  C   LIG    1       25.443 -28.722   7.221  0.00  0.00    +0.151 A 
ATOM     12  N   LIG    1       25.295 -27.389   7.452  0.00  0.00    -0.211 NA
ENDROOT
BRANCH   9  13
ATOM     13  C   LIG    1       25.667 -29.277   9.707  0.00  0.00    +0.083 A 
ATOM     14  C   LIG    1       24.617 -29.569  10.614  0.00  0.00    +0.150 A 
ATOM     15  F   LIG    1       23.547 -30.278  10.223  0.00  0.00    -0.203 F 
ATOM     16  C   LIG    1       24.646 -29.173  11.951  0.00  0.00    +0.078 A 
ATOM     17  C   LIG    1       25.747 -28.487  12.430  0.00  0.00    +0.126 A 
ATOM     18  F   LIG    1       25.792 -28.112  13.713  0.00  0.00    -0.205 F 
ATOM     19  C   LIG    1       26.808 -28.184  11.589  0.00  0.00    +0.040 A 
ATOM     20  C   LIG    1       26.759 -28.564  10.240  0.00  0.00    +0.032 A 
ENDBRANCH   9  13
BRANCH   1  24
ATOM     21  C   LIG    1       24.587 -22.313   7.614  0.00  0.00    +0.061 C 
ATOM     22  C   LIG    1       23.928 -23.070   6.492  0.00  0.00    +0.029 C 
ATOM     23  C   LIG    1       23.638 -24.536   6.586  0.00  0.00    +0.112 C 
ATOM     24  N   LIG    1       24.952 -25.164   6.753  0.00  0.00    -0.312 N 
ATOM     25  C   LIG    1       26.058 -24.225   6.560  0.00  0.00    +0.112 C 
ATOM     26  C   LIG    1       25.406 -22.879   6.483  0.00  0.00    +0.029 C 
BRANCH  21  27
ATOM     27  N   LIG    1       24.396 -20.864   7.675  0.00  0.00    -0.327 NA
ATOM     28  H   LIG    1       24.007 -20.510   6.800  0.00  0.00    +0.118 HD
ATOM     29  H   LIG    1       23.728 -20.613   8.403  0.00  0.00    +0.118 HD
ENDBRANCH  21  27
ENDBRANCH   1  24
BRANCH   7  30
ATOM     30  C   LIG    1       25.892 -33.012   6.563  0.00  0.00    +0.342 C 
ATOM     31  O   LIG    1       25.187 -33.825   7.146  0.00  0.00    -0.245 OA
BRANCH  30  32
ATOM     32  O   LIG    1       26.866 -33.397   5.703  0.00  0.00    -0.477 OA
ATOM     33  H   LIG    1       26.752 -33.047   4.784  0.00  0.00    +0.295 HD
ENDBRANCH  30  32
ENDBRANCH   7  30
TORSDOF 5
ENDMDL
MODEL 2
REMARK VINA RESULT:      -6.8      2.756      4.404
REMARK  Name = *****
REMARK                            x       y       z     vdW  Elec       q    Type
REMARK                         _______ _______ _______ _____ _____    ______ ____
ROOT
ATOM      1  C   LIG    1       25.351 -29.280   7.799  0.00  0.00    +0.159 A 
ATOM      2  C   LIG    1       25.319 -30.589   7.309  0.00  0.00    +0.164 A 
ATOM      3  F   LIG    1       25.274 -30.850   5.993  0.00  0.00    -0.202 F 
ATOM      4  C   LIG    1       25.314 -31.661   8.184  0.00  0.00    +0.057 A 
ATOM      5  C   LIG    1       25.332 -31.410   9.553  0.00  0.00    +0.068 A 
ATOM      6  C   LIG    1       25.310 -32.552  10.478  0.00  0.00    +0.205 A 
ATOM      7  C   LIG    1       25.341 -32.281  11.920  0.00  0.00    +0.122 A 
ATOM      8  C   LIG    1       25.383 -30.993  12.291  0.00  0.00    +0.112 A 
ATOM      9  N   LIG    1       25.414 -29.861  11.466  0.00  0.00    -0.297 N 
ATOM     10  O   LIG    1       25.252 -33.708  10.067  0.00  0.00    -0.286 OA
ATOM     11  C   LIG    1       25.368 -30.095  10.033  0.00  0.00    +0.151 A 
ATOM     12  N   LIG    1       25.378 -29.065   9.145  0.00  0.00    -0.211 NA
ENDROOT
BRANCH   9  13
ATOM     13  C   LIG    1       25.481 -28.541  12.061  0.00  0.00    +0.083 A 
ATOM     14  C   LIG    1       26.648 -27.739  12.011  0.00  0.00    +0.150 A 
ATOM     15  F   LIG    1       27.741 -28.154  11.351  0.00  0.00    -0.203 F 
ATOM     16  C   LIG    1       26.722 -26.480  12.607  0.00  0.00    +0.078 A 
ATOM     17  C   LIG    1       25.612 -25.973  13.256  0.00  0.00    +0.126 A 
ATOM     18  F   LIG    1       25.667 -24.761  13.821  0.00  0.00    -0.205 F 
ATOM     19  C   LIG    1       24.439 -26.710  13.326  0.00  0.00    +0.040 A 
ATOM     20  C   LIG    1       24.381 -27.985  12.746  0.00  0.00    +0.032 A 
ENDBRANCH   9  13
BRANCH   1  24
ATOM     21  C   LIG    1       25.304 -25.890   5.020  0.00  0.00    +0.061 C 
ATOM     22  C   LIG    1       25.449 -25.877   6.518  0.00  0.00    +0.029 C 
ATOM     23  C   LIG    1       26.124 -26.989   7.260  0.00  0.00    +0.112 C 
ATOM     24  N   LIG    1       25.318 -28.177   6.962  0.00  0.00    -0.312 N 
ATOM     25  C   LIG    1       24.073 -27.856   6.263  0.00  0.00    +0.112 C 
ATOM     26  C   LIG    1       24.200 -26.408   5.903  0.00  0.00    +0.029 C 
BRANCH  21  27
ATOM     27  N   LIG    1       25.104 -24.613   4.335  0.00  0.00    -0.327 NA
ATOM     28  H   LIG    1       24.644 -24.750   3.434  0.00  0.00    +0.118 HD
ATOM     29  H   LIG    1       24.493 -24.000   4.874  0.00  0.00    +0.118 HD
ENDBRANCH  21  27
ENDBRANCH   1  24
BRANCH   7  30
ATOM     30  C   LIG    1       25.307 -33.344  12.946  0.00  0.00    +0.342 C 
ATOM     31  O   LIG    1       26.309 -33.766  13.507  0.00  0.00    -0.245 OA
BRANCH  30  32
ATOM     32  O   LIG    1       24.072 -33.825  13.229  0.00  0.00    -0.477 OA
ATOM     33  H   LIG    1       23.994 -34.228  14.130  0.00  0.00    +0.295 HD
ENDBRANCH  30  32
ENDBRANCH   7  30
TORSDOF 5
ENDMDL
MODEL 3
REMARK VINA RESULT:      -6.8      2.460      5.895
REMARK  Name = *****
REMARK                            x       y       z     vdW  Elec       q    Type
REMARK                         _______ _______ _______ _____ _____    ______ ____
ROOT
ATOM      1  C   LIG    1       25.778 -29.627   9.872  0.00  0.00    +0.159 A 
ATOM      2  C   LIG    1       25.886 -31.008  10.066  0.00  0.00    +0.164 A 
ATOM      3  F   LIG    1       26.056 -31.538  11.287  0.00  0.00    -0.202 F 
ATOM      4  C   LIG    1       25.839 -31.869   8.985  0.00  0.00    +0.057 A 
ATOM      5  C   LIG    1       25.692 -31.335   7.707  0.00  0.00    +0.068 A 
ATOM      6  C   LIG    1       25.658 -32.254   6.561  0.00  0.00    +0.205 A 
ATOM      7  C   LIG    1       25.491 -31.686   5.218  0.00  0.00    +0.122 A 
ATOM      8  C   LIG    1       25.384 -30.352   5.136  0.00  0.00    +0.112 A 
ATOM      9  N   LIG    1       25.400 -29.423   6.184  0.00  0.00    -0.297 N 
ATOM     10  O   LIG    1       25.782 -33.467   6.708  0.00  0.00    -0.286 OA
ATOM     11  C   LIG    1       25.581 -29.952   7.524  0.00  0.00    +0.151 A 
ATOM     12  N   LIG    1       25.625 -29.134   8.611  0.00  0.00    -0.211 NA
ENDROOT
BRANCH   9  13
ATOM     13  C   LIG    1       25.247 -28.011   5.893  0.00  0.00    +0.083 A 
ATOM     14  C   LIG    1       26.194 -27.281   5.132  0.00  0.00    +0.150 A 
ATOM     15  F   LIG    1       27.261 -27.892   4.591  0.00  0.00    -0.203 F 
ATOM     16  C   LIG    1       26.063 -25.916   4.874  0.00  0.00    +0.078 A 
ATOM     17  C   LIG    1       24.957 -25.241   5.357  0.00  0.00    +0.126 A 
ATOM     18  F   LIG    1       24.814 -23.935   5.106  0.00  0.00    -0.205 F 
ATOM     19  C   LIG    1       23.993 -25.908   6.099  0.00  0.00    +0.040 A 
ATOM     20  C   LIG    1       24.146 -27.274   6.374  0.00  0.00    +0.032 A 
ENDBRANCH   9  13
BRANCH   1  24
ATOM     21  C   LIG    1       25.934 -26.661  13.097  0.00  0.00    +0.061 C 
ATOM     22  C   LIG    1       26.935 -27.731  12.753  0.00  0.00    +0.029 C 
ATOM     23  C   LIG    1       27.157 -28.188  11.344  0.00  0.00    +0.112 C 
ATOM     24  N   LIG    1       25.860 -28.725  10.920  0.00  0.00    -0.312 N 
ATOM     25  C   LIG    1       24.903 -28.832  12.023  0.00  0.00    +0.112 C 
ATOM     26  C   LIG    1       25.557 -28.118  13.165  0.00  0.00    +0.029 C 
BRANCH  21  27
ATOM     27  N   LIG    1       26.109 -25.931  14.353  0.00  0.00    -0.327 NA
ATOM     28  H   LIG    1       26.646 -26.481  15.023  0.00  0.00    +0.118 HD
ATOM     29  H   LIG    1       26.636 -25.070  14.205  0.00  0.00    +0.118 HD
ENDBRANCH  21  27
ENDBRANCH   1  24
BRANCH   7  30
ATOM     30  C   LIG    1       25.459 -32.507   3.989  0.00  0.00    +0.342 C 
ATOM     31  O   LIG    1       26.387 -32.558   3.193  0.00  0.00    -0.245 OA
BRANCH  30  32
ATOM     32  O   LIG    1       24.316 -33.211   3.802  0.00  0.00    -0.477 OA
ATOM     33  H   LIG    1       23.923 -33.108   2.899  0.00  0.00    +0.295 HD
ENDBRANCH  30  32
ENDBRANCH   7  30
TORSDOF 5
ENDMDL
MODEL 4
REMARK VINA RESULT:      -6.7      2.804      5.985
REMARK  Name = *****
REMARK                            x       y       z     vdW  Elec       q    Type
REMARK                         _______ _______ _______ _____ _____    ______ ____
ROOT
ATOM      1  C   LIG    1       23.599 -30.445   9.781  0.00  0.00    +0.159 A 
ATOM      2  C   LIG    1       23.572 -31.843   9.778  0.00  0.00    +0.164 A 
ATOM      3  F   LIG    1       23.125 -32.543  10.831  0.00  0.00    -0.202 F 
ATOM      4  C   LIG    1       24.030 -32.546   8.678  0.00  0.00    +0.057 A 
ATOM      5  C   LIG    1       24.524 -31.837   7.586  0.00  0.00    +0.068 A 
ATOM      6  C   LIG    1       25.024 -32.589   6.427  0.00  0.00    +0.205 A 
ATOM      7  C   LIG    1       25.532 -31.836   5.274  0.00  0.00    +0.122 A 
ATOM      8  C   LIG    1       25.506 -30.499   5.368  0.00  0.00    +0.112 A 
ATOM      9  N   LIG    1       25.038 -29.722   6.435  0.00  0.00    -0.297 N 
ATOM     10  O   LIG    1       25.037 -33.818   6.417  0.00  0.00    -0.286 OA
ATOM     11  C   LIG    1       24.543 -30.437   7.598  0.00  0.00    +0.151 A 
ATOM     12  N   LIG    1       24.079 -29.777   8.694  0.00  0.00    -0.211 NA
ENDROOT
BRANCH   9  13
ATOM     13  C   LIG    1       25.073 -28.275   6.339  0.00  0.00    +0.083 A 
ATOM     14  C   LIG    1       25.843 -27.470   7.215  0.00  0.00    +0.150 A 
ATOM     15  F   LIG    1       26.629 -28.027   8.149  0.00  0.00    -0.203 F 
ATOM     16  C   LIG    1       25.856 -26.077   7.140  0.00  0.00    +0.078 A 
ATOM     17  C   LIG    1       25.110 -25.445   6.163  0.00  0.00    +0.126 A 
ATOM     18  F   LIG    1       25.124 -24.110   6.074  0.00  0.00    -0.205 F 
ATOM     19  C   LIG    1       24.346 -26.184   5.272  0.00  0.00    +0.040 A 
ATOM     20  C   LIG    1       24.319 -27.583   5.370  0.00  0.00    +0.032 A 
ENDBRANCH   9  13
BRANCH   1  24
ATOM     21  C   LIG    1       22.254 -27.958  13.132  0.00  0.00    +0.061 C 
ATOM     22  C   LIG    1       23.274 -29.065  13.131  0.00  0.00    +0.029 C 
ATOM     23  C   LIG    1       24.134 -29.351  11.939  0.00  0.00    +0.112 C 
ATOM     24  N   LIG    1       23.188 -29.700  10.875  0.00  0.00    -0.312 N 
ATOM     25  C   LIG    1       21.817 -29.859  11.364  0.00  0.00    +0.112 C 
ATOM     26  C   LIG    1       21.859 -29.368  12.778  0.00  0.00    +0.029 C 
BRANCH  21  27
ATOM     27  N   LIG    1       21.821 -27.419  14.421  0.00  0.00    -0.327 NA
ATOM     28  H   LIG    1       22.485 -27.660  15.158  0.00  0.00    +0.118 HD
ATOM     29  H   LIG    1       21.781 -26.400  14.397  0.00  0.00    +0.118 HD
ENDBRANCH  21  27
ENDBRANCH   1  24
BRANCH   7  30
ATOM     30  C   LIG    1       26.075 -32.481   4.060  0.00  0.00    +0.342 C 
ATOM     31  O   LIG    1       25.593 -32.325   2.946  0.00  0.00    -0.245 OA
BRANCH  30  32
ATOM     32  O   LIG    1       27.162 -33.264   4.267  0.00  0.00    -0.477 OA
ATOM     33  H   LIG    1       27.247 -34.012   3.624  0.00  0.00    +0.295 HD
ENDBRANCH  30  32
ENDBRANCH   7  30
TORSDOF 5
ENDMDL
MODEL 5
REMARK VINA RESULT:      -6.0      4.879      6.234
REMARK  Name = *****
REMARK                            x       y       z     vdW  Elec       q    Type
REMARK                         _______ _______ _______ _____ _____    ______ ____
ROOT
ATOM      1  C   LIG    1       21.713 -29.501  11.815  0.00  0.00    +0.159 A 
ATOM      2  C   LIG    1       21.233 -30.405  10.862  0.00  0.00    +0.164 A 
ATOM      3  F   LIG    1       19.920 -30.629  10.699  0.00  0.00    -0.202 F 
ATOM      4  C   LIG    1       22.116 -31.114  10.067  0.00  0.00    +0.057 A 
ATOM      5  C   LIG    1       23.483 -30.917  10.241  0.00  0.00    +0.068 A 
ATOM      6  C   LIG    1       24.417 -31.684   9.405  0.00  0.00    +0.205 A 
ATOM      7  C   LIG    1       25.856 -31.463   9.584  0.00  0.00    +0.122 A 
ATOM      8  C   LIG    1       26.217 -30.566  10.515  0.00  0.00    +0.112 A 
ATOM      9  N   LIG    1       25.383 -29.798  11.337  0.00  0.00    -0.297 N 
ATOM     10  O   LIG    1       24.015 -32.505   8.584  0.00  0.00    -0.286 OA
ATOM     11  C   LIG    1       23.953 -30.006  11.195  0.00  0.00    +0.151 A 
ATOM     12  N   LIG    1       23.057 -29.321  11.956  0.00  0.00    -0.211 NA
ENDROOT
BRANCH   9  13
ATOM     13  C   LIG    1       25.968 -28.860  12.275  0.00  0.00    +0.083 A 
ATOM     14  C   LIG    1       26.184 -29.177  13.639  0.00  0.00    +0.150 A 
ATOM     15  F   LIG    1       25.903 -30.401  14.114  0.00  0.00    -0.203 F 
ATOM     16  C   LIG    1       26.721 -28.266  14.549  0.00  0.00    +0.078 A 
ATOM     17  C   LIG    1       27.082 -27.006  14.109  0.00  0.00    +0.126 A 
ATOM     18  F   LIG    1       27.609 -26.127  14.969  0.00  0.00    -0.205 F 
ATOM     19  C   LIG    1       26.902 -26.644  12.782  0.00  0.00    +0.040 A 
ATOM     20  C   LIG    1       26.339 -27.559  11.880  0.00  0.00    +0.032 A 
ENDBRANCH   9  13
BRANCH   1  24
ATOM     21  C   LIG    1       18.906 -27.321  14.381  0.00  0.00    +0.061 C 
ATOM     22  C   LIG    1       20.385 -27.104  14.207  0.00  0.00    +0.029 C 
ATOM     23  C   LIG    1       21.079 -27.369  12.906  0.00  0.00    +0.112 C 
ATOM     24  N   LIG    1       20.868 -28.799  12.659  0.00  0.00    -0.312 N 
ATOM     25  C   LIG    1       20.278 -29.492  13.805  0.00  0.00    +0.112 C 
ATOM     26  C   LIG    1       19.890 -28.399  14.752  0.00  0.00    +0.029 C 
BRANCH  21  27
ATOM     27  N   LIG    1       18.225 -26.601  15.458  0.00  0.00    -0.327 NA
ATOM     28  H   LIG    1       18.073 -27.209  16.263  0.00  0.00    +0.118 HD
ATOM     29  H   LIG    1       18.791 -25.822  15.793  0.00  0.00    +0.118 HD
ENDBRANCH  21  27
ENDBRANCH   1  24
BRANCH   7  30
ATOM     30  C   LIG    1       26.890 -32.186   8.815  0.00  0.00    +0.342 C 
ATOM     31  O   LIG    1       27.592 -33.065   9.297  0.00  0.00    -0.245 OA
BRANCH  30  32
ATOM     32  O   LIG    1       27.007 -31.806   7.519  0.00  0.00    -0.477 OA
ATOM     33  H   LIG    1       27.184 -30.840   7.397  0.00  0.00    +0.295 HD
ENDBRANCH  30  32
ENDBRANCH   7  30
TORSDOF 5
ENDMDL
MODEL 6
REMARK VINA RESULT:      -5.8      4.743      8.209
REMARK  Name = *****
REMARK                            x       y       z     vdW  Elec       q    Type
REMARK                         _______ _______ _______ _____ _____    ______ ____
ROOT
ATOM      1  C   LIG    1       21.496 -30.939  10.889  0.00  0.00    +0.159 A 
ATOM      2  C   LIG    1       21.420 -30.521  12.221  0.00  0.00    +0.164 A 
ATOM      3  F   LIG    1       20.339 -30.764  12.977  0.00  0.00    -0.202 F 
ATOM      4  C   LIG    1       22.467 -29.818  12.791  0.00  0.00    +0.057 A 
ATOM      5  C   LIG    1       23.586 -29.531  12.013  0.00  0.00    +0.068 A 
ATOM      6  C   LIG    1       24.688 -28.772  12.620  0.00  0.00    +0.205 A 
ATOM      7  C   LIG    1       25.870 -28.483  11.798  0.00  0.00    +0.122 A 
ATOM      8  C   LIG    1       25.853 -28.937  10.536  0.00  0.00    +0.112 A 
ATOM      9  N   LIG    1       24.843 -29.671   9.901  0.00  0.00    -0.297 N 
ATOM     10  O   LIG    1       24.627 -28.370  13.779  0.00  0.00    -0.286 OA
ATOM     11  C   LIG    1       23.653 -29.959  10.682  0.00  0.00    +0.151 A 
ATOM     12  N   LIG    1       22.608 -30.652  10.154  0.00  0.00    -0.211 NA
ENDROOT
BRANCH   9  13
ATOM     13  C   LIG    1       25.021 -30.093   8.525  0.00  0.00    +0.083 A 
ATOM     14  C   LIG    1       25.686 -31.294   8.175  0.00  0.00    +0.150 A 
ATOM     15  F   LIG    1       26.136 -32.133   9.121  0.00  0.00    -0.203 F 
ATOM     16  C   LIG    1       25.882 -31.688   6.851  0.00  0.00    +0.078 A 
ATOM     17  C   LIG    1       25.393 -30.893   5.830  0.00  0.00    +0.126 A 
ATOM     18  F   LIG    1       25.564 -31.266   4.557  0.00  0.00    -0.205 F 
ATOM     19  C   LIG    1       24.725 -29.712   6.116  0.00  0.00    +0.040 A 
ATOM     20  C   LIG    1       24.554 -29.312   7.448  0.00  0.00    +0.032 A 
ENDBRANCH   9  13
BRANCH   1  24
ATOM     21  C   LIG    1       18.300 -33.057   8.763  0.00  0.00    +0.061 C 
ATOM     22  C   LIG    1       18.199 -32.180   9.983  0.00  0.00    +0.029 C 
ATOM     23  C   LIG    1       19.117 -31.017  10.203  0.00  0.00    +0.112 C 
ATOM     24  N   LIG    1       20.457 -31.609  10.264  0.00  0.00    -0.312 N 
ATOM     25  C   LIG    1       20.429 -33.072  10.311  0.00  0.00    +0.112 C 
ATOM     26  C   LIG    1       19.001 -33.435  10.042  0.00  0.00    +0.029 C 
BRANCH  21  27
ATOM     27  N   LIG    1       17.119 -33.825   8.366  0.00  0.00    -0.327 NA
ATOM     28  H   LIG    1       17.358 -34.520   7.658  0.00  0.00    +0.118 HD
ATOM     29  H   LIG    1       16.738 -34.345   9.156  0.00  0.00    +0.118 HD
ENDBRANCH  21  27
ENDBRANCH   1  24
BRANCH   7  30
ATOM     30  C   LIG    1       27.032 -27.715  12.292  0.00  0.00    +0.342 C 
ATOM     31  O   LIG    1       26.991 -26.515  12.528  0.00  0.00    -0.245 OA
BRANCH  30  32
ATOM     32  O   LIG    1       28.162 -28.441  12.470  0.00  0.00    -0.477 OA
ATOM     33  H   LIG    1       28.580 -28.749  11.627  0.00  0.00    +0.295 HD
ENDBRANCH  30  32
ENDBRANCH   7  30
TORSDOF 5
ENDMDL
MODEL 7
REMARK VINA RESULT:      -5.6      5.334      7.356
REMARK  Name = *****
REMARK                            x       y       z     vdW  Elec       q    Type
REMARK                         _______ _______ _______ _____ _____    ______ ____
ROOT
ATOM      1  C   LIG    1       23.359 -27.327  13.572  0.00  0.00    +0.159 A 
ATOM      2  C   LIG    1       22.188 -27.100  14.301  0.00  0.00    +0.164 A 
ATOM      3  F   LIG    1       22.108 -26.130  15.224  0.00  0.00    -0.202 F 
ATOM      4  C   LIG    1       21.074 -27.895  14.096  0.00  0.00    +0.057 A 
ATOM      5  C   LIG    1       21.147 -28.925  13.162  0.00  0.00    +0.068 A 
ATOM      6  C   LIG    1       19.967 -29.776  12.959  0.00  0.00    +0.205 A 
ATOM      7  C   LIG    1       20.046 -30.852  11.965  0.00  0.00    +0.122 A 
ATOM      8  C   LIG    1       21.208 -30.983  11.308  0.00  0.00    +0.112 A 
ATOM      9  N   LIG    1       22.364 -30.204  11.446  0.00  0.00    -0.297 N 
ATOM     10  O   LIG    1       18.939 -29.611  13.612  0.00  0.00    -0.286 OA
ATOM     11  C   LIG    1       22.324 -29.141  12.434  0.00  0.00    +0.151 A 
ATOM     12  N   LIG    1       23.398 -28.337  12.657  0.00  0.00    -0.211 NA
ENDROOT
BRANCH   9  13
ATOM     13  C   LIG    1       23.524 -30.491  10.624  0.00  0.00    +0.083 A 
ATOM     14  C   LIG    1       24.668 -31.162  11.124  0.00  0.00    +0.150 A 
ATOM     15  F   LIG    1       24.702 -31.617  12.386  0.00  0.00    -0.203 F 
ATOM     16  C   LIG    1       25.795 -31.413  10.341  0.00  0.00    +0.078 A 
ATOM     17  C   LIG    1       25.800 -31.018   9.016  0.00  0.00    +0.126 A 
ATOM     18  F   LIG    1       26.870 -31.264   8.252  0.00  0.00    -0.205 F 
ATOM     19  C   LIG    1       24.703 -30.367   8.471  0.00  0.00    +0.040 A 
ATOM     20  C   LIG    1       23.584 -30.096   9.272  0.00  0.00    +0.032 A 
ENDBRANCH   9  13
BRANCH   1  24
ATOM     21  C   LIG    1       27.025 -25.054  14.357  0.00  0.00    +0.061 C 
ATOM     22  C   LIG    1       25.839 -24.667  13.515  0.00  0.00    +0.029 C 
ATOM     23  C   LIG    1       24.450 -25.119  13.844  0.00  0.00    +0.112 C 
ATOM     24  N   LIG    1       24.510 -26.582  13.771  0.00  0.00    -0.312 N 
ATOM     25  C   LIG    1       25.774 -27.071  13.218  0.00  0.00    +0.112 C 
ATOM     26  C   LIG    1       26.650 -25.859  13.140  0.00  0.00    +0.029 C 
BRANCH  21  27
ATOM     27  N   LIG    1       28.221 -24.215  14.292  0.00  0.00    -0.327 NA
ATOM     28  H   LIG    1       28.012 -23.259  14.580  0.00  0.00    +0.118 HD
ATOM     29  H   LIG    1       28.941 -24.552  14.931  0.00  0.00    +0.118 HD
ENDBRANCH  21  27
ENDBRANCH   1  24
BRANCH   7  30
ATOM     30  C   LIG    1       18.931 -31.782  11.685  0.00  0.00    +0.342 C 
ATOM     31  O   LIG    1       19.045 -32.999  11.738  0.00  0.00    -0.245 OA
BRANCH  30  32
ATOM     32  O   LIG    1       17.757 -31.186  11.366  0.00  0.00    -0.477 OA
ATOM     33  H   LIG    1       17.547 -30.390  11.916  0.00  0.00    +0.295 HD
ENDBRANCH  30  32
ENDBRANCH   7  30
TORSDOF 5
ENDMDL
MODEL 8
REMARK VINA RESULT:      -5.5      5.968      8.438
REMARK  Name = *****
REMARK                            x       y       z     vdW  Elec       q    Type
REMARK                         _______ _______ _______ _____ _____    ______ ____
ROOT
ATOM      1  C   LIG    1       21.817 -31.561  10.250  0.00  0.00    +0.159 A 
ATOM      2  C   LIG    1       20.760 -32.457  10.063  0.00  0.00    +0.164 A 
ATOM      3  F   LIG    1       20.799 -33.407   9.116  0.00  0.00    -0.202 F 
ATOM      4  C   LIG    1       19.625 -32.371  10.849  0.00  0.00    +0.057 A 
ATOM      5  C   LIG    1       19.554 -31.373  11.818  0.00  0.00    +0.068 A 
ATOM      6  C   LIG    1       18.340 -31.276  12.640  0.00  0.00    +0.205 A 
ATOM      7  C   LIG    1       18.276 -30.230  13.667  0.00  0.00    +0.122 A 
ATOM      8  C   LIG    1       19.345 -29.427  13.778  0.00  0.00    +0.112 A 
ATOM      9  N   LIG    1       20.532 -29.469  13.036  0.00  0.00    -0.297 N 
ATOM     10  O   LIG    1       17.389 -32.035  12.470  0.00  0.00    -0.286 OA
ATOM     11  C   LIG    1       20.620 -30.483  12.000  0.00  0.00    +0.151 A 
ATOM     12  N   LIG    1       21.723 -30.601  11.213  0.00  0.00    -0.211 NA
ENDROOT
BRANCH   9  13
ATOM     13  C   LIG    1       21.590 -28.520  13.321  0.00  0.00    +0.083 A 
ATOM     14  C   LIG    1       21.480 -27.140  13.019  0.00  0.00    +0.150 A 
ATOM     15  F   LIG    1       20.349 -26.637  12.500  0.00  0.00    -0.203 F 
ATOM     16  C   LIG    1       22.508 -26.230  13.267  0.00  0.00    +0.078 A 
ATOM     17  C   LIG    1       23.679 -26.677  13.852  0.00  0.00    +0.126 A 
ATOM     18  F   LIG    1       24.667 -25.812  14.106  0.00  0.00    -0.205 F 
ATOM     19  C   LIG    1       23.837 -28.016  14.178  0.00  0.00    +0.040 A 
ATOM     20  C   LIG    1       22.808 -28.927  13.902  0.00  0.00    +0.032 A 
ENDBRANCH   9  13
BRANCH   1  24
ATOM     21  C   LIG    1       25.315 -31.632   7.608  0.00  0.00    +0.061 C 
ATOM     22  C   LIG    1       25.185 -32.159   9.012  0.00  0.00    +0.029 C 
ATOM     23  C   LIG    1       23.894 -32.708   9.538  0.00  0.00    +0.112 C 
ATOM     24  N   LIG    1       22.955 -31.585   9.460  0.00  0.00    -0.312 N 
ATOM     25  C   LIG    1       23.611 -30.320   9.125  0.00  0.00    +0.112 C 
ATOM     26  C   LIG    1       25.010 -30.703   8.754  0.00  0.00    +0.029 C 
BRANCH  21  27
ATOM     27  N   LIG    1       26.650 -31.582   7.011  0.00  0.00    -0.327 NA
ATOM     28  H   LIG    1       26.810 -30.687   6.549  0.00  0.00    +0.118 HD
ATOM     29  H   LIG    1       27.374 -31.666   7.724  0.00  0.00    +0.118 HD
ENDBRANCH  21  27
ENDBRANCH   1  24
BRANCH   7  30
ATOM     30  C   LIG    1       17.104 -30.023  14.542  0.00  0.00    +0.342 C 
ATOM     31  O   LIG    1       16.535 -28.946  14.658  0.00  0.00    -0.245 OA
BRANCH  30  32
ATOM     32  O   LIG    1       16.692 -31.126  15.216  0.00  0.00    -0.477 OA
ATOM     33  H   LIG    1       15.711 -31.181  15.335  0.00  0.00    +0.295 HD
ENDBRANCH  30  32
ENDBRANCH   7  30
TORSDOF 5
ENDMDL
MODEL 9
REMARK VINA RESULT:      -5.4      5.089      7.932
REMARK  Name = *****
REMARK                            x       y       z     vdW  Elec       q    Type
REMARK                         _______ _______ _______ _____ _____    ______ ____
ROOT
ATOM      1  C   LIG    1       24.138 -30.571   8.875  0.00  0.00    +0.159 A 
ATOM      2  C   LIG    1       25.078 -29.808   9.574  0.00  0.00    +0.164 A 
ATOM      3  F   LIG    1       26.282 -29.523   9.055  0.00  0.00    -0.202 F 
ATOM      4  C   LIG    1       24.791 -29.339  10.843  0.00  0.00    +0.057 A 
ATOM      5  C   LIG    1       23.557 -29.648  11.410  0.00  0.00    +0.068 A 
ATOM      6  C   LIG    1       23.263 -29.159  12.764  0.00  0.00    +0.205 A 
ATOM      7  C   LIG    1       21.956 -29.478  13.351  0.00  0.00    +0.122 A 
ATOM      8  C   LIG    1       21.118 -30.205  12.598  0.00  0.00    +0.112 A 
ATOM      9  N   LIG    1       21.330 -30.694  11.303  0.00  0.00    -0.297 N 
ATOM     10  O   LIG    1       24.088 -28.513  13.405  0.00  0.00    -0.286 OA
ATOM     11  C   LIG    1       22.621 -30.409  10.700  0.00  0.00    +0.151 A 
ATOM     12  N   LIG    1       22.934 -30.849   9.451  0.00  0.00    -0.211 NA
ENDROOT
BRANCH   9  13
ATOM     13  C   LIG    1       20.285 -31.448  10.640  0.00  0.00    +0.083 A 
ATOM     14  C   LIG    1       20.415 -32.826  10.333  0.00  0.00    +0.150 A 
ATOM     15  F   LIG    1       21.507 -33.513  10.701  0.00  0.00    -0.203 F 
ATOM     16  C   LIG    1       19.421 -33.547   9.671  0.00  0.00    +0.078 A 
ATOM     17  C   LIG    1       18.247 -32.909   9.314  0.00  0.00    +0.126 A 
ATOM     18  F   LIG    1       17.282 -33.593   8.689  0.00  0.00    -0.205 F 
ATOM     19  C   LIG    1       18.062 -31.564   9.599  0.00  0.00    +0.040 A 
ATOM     20  C   LIG    1       19.076 -30.842  10.243  0.00  0.00    +0.032 A 
ENDBRANCH   9  13
BRANCH   1  24
ATOM     21  C   LIG    1       24.787 -32.266   4.885  0.00  0.00    +0.061 C 
ATOM     22  C   LIG    1       25.756 -32.159   6.031  0.00  0.00    +0.029 C 
ATOM     23  C   LIG    1       25.309 -32.232   7.458  0.00  0.00    +0.112 C 
ATOM     24  N   LIG    1       24.397 -31.095   7.619  0.00  0.00    -0.312 N 
ATOM     25  C   LIG    1       24.402 -30.196   6.464  0.00  0.00    +0.112 C 
ATOM     26  C   LIG    1       25.196 -30.920   5.422  0.00  0.00    +0.029 C 
BRANCH  21  27
ATOM     27  N   LIG    1       25.303 -32.679   3.580  0.00  0.00    -0.327 NA
ATOM     28  H   LIG    1       26.084 -32.089   3.293  0.00  0.00    +0.118 HD
ATOM     29  H   LIG    1       25.666 -33.632   3.614  0.00  0.00    +0.118 HD
ENDBRANCH  21  27
ENDBRANCH   1  24
BRANCH   7  30
ATOM     30  C   LIG    1       21.553 -29.058  14.709  0.00  0.00    +0.342 C 
ATOM     31  O   LIG    1       20.986 -29.800  15.500  0.00  0.00    -0.245 OA
BRANCH  30  32
ATOM     32  O   LIG    1       21.861 -27.776  15.026  0.00  0.00    -0.477 OA
ATOM     33  H   LIG    1       21.429 -27.451  15.855  0.00  0.00    +0.295 HD
ENDBRANCH  30  32
ENDBRANCH   7  30
TORSDOF 5
ENDMDL
