MODEL 1
REMARK VINA RESULT:      17.6      0.000      0.000
REMARK  Name = *****
REMARK                            x       y       z     vdW  Elec       q    Type
REMARK                         _______ _______ _______ _____ _____    ______ ____
ROOT
ATOM      1  C   LIG    1       27.079 -15.790   3.390  0.00  0.00    +0.173 A 
ATOM      2  C   LIG    1       28.089 -15.896   4.405  0.00  0.00    +0.206 A 
ATOM      3  C   LIG    1       28.385 -17.222   4.960  0.00  0.00    +0.187 A 
ATOM      4  C   LIG    1       27.747 -18.375   4.441  0.00  0.00    +0.085 A 
ATOM      5  C   LIG    1       26.627 -18.134   3.659  0.00  0.00    +0.094 A 
ATOM      6  C   LIG    1       25.672 -19.074   3.145  0.00  0.00    +0.342 C 
ATOM      7  O   LIG    1       24.614 -18.411   2.696  0.00  0.00    -0.451 OA
ATOM      8  C   LIG    1       24.717 -16.981   3.085  0.00  0.00    +0.233 C 
ATOM      9  O   LIG    1       25.877 -20.348   3.037  0.00  0.00    -0.245 OA
ATOM     10  C   LIG    1       26.198 -16.875   3.306  0.00  0.00    +0.056 A 
ENDROOT
BRANCH   8  11
ATOM     11  C   LIG    1       23.742 -16.799   4.392  0.00  0.00    +0.136 C 
ATOM     12  N   LIG    1       23.361 -15.356   4.614  0.00  0.00    -0.295 NA
ATOM     13  C   LIG    1       23.526 -14.947   6.009  0.00  0.00    +0.105 C 
ATOM     14  C   LIG    1       22.011 -14.955   4.170  0.00  0.00    +0.089 C 
ATOM     15  C   LIG    1       21.318 -15.900   3.218  0.00  0.00    +0.051 C 
ATOM     16  C   LIG    1       21.379 -17.308   3.698  0.00  0.00    -0.034 A 
ATOM     17  C   LIG    1       20.336 -18.180   3.411  0.00  0.00    +0.053 A 
ATOM     18  C   LIG    1       20.438 -19.467   3.865  0.00  0.00    +0.170 A 
ATOM     19  O   LIG    1       19.573 -20.465   3.548  0.00  0.00    -0.453 OA
ATOM     20  C   LIG    1       20.123 -21.542   4.318  0.00  0.00    +0.467 C 
ATOM     21  O   LIG    1       21.256 -21.146   5.113  0.00  0.00    -0.449 OA
ATOM     22  C   LIG    1       21.455 -19.859   4.704  0.00  0.00    +0.208 A 
ATOM     23  C   LIG    1       22.505 -19.001   5.028  0.00  0.00    +0.170 A 
ATOM     24  C   LIG    1       22.528 -17.736   4.404  0.00  0.00    +0.022 A 
BRANCH  23  25
ATOM     25  O   LIG    1       23.487 -19.246   5.948  0.00  0.00    -0.491 OA
ATOM     26  C   LIG    1       24.235 -20.444   5.780  0.00  0.00    +0.277 C 
ENDBRANCH  23  25
ENDBRANCH   8  11
BRANCH   4  27
ATOM     27  N   LIG    1       27.923 -19.705   4.892  0.00  0.00    -0.354 N 
ATOM     28  H   LIG    1       27.101 -20.280   4.722  0.00  0.00    +0.142 HD
ATOM     29  H   LIG    1       28.700 -20.155   4.396  0.00  0.00    +0.142 HD
ENDBRANCH   4  27
BRANCH   1  30
ATOM     30  O   LIG    1       26.889 -14.942   2.323  0.00  0.00    -0.488 OA
BRANCH  30  32
ATOM     31  C   LIG    1       25.349 -12.995   3.149  0.00  0.00    +0.048 C 
ATOM     32  C   LIG    1       25.790 -14.060   2.136  0.00  0.00    +0.226 C 
ENDBRANCH  30  32
ENDBRANCH   1  30
BRANCH   2  33
ATOM     33  O   LIG    1       28.438 -14.841   5.314  0.00  0.00    -0.485 OA
BRANCH  33  34
ATOM     34  C   LIG    1       27.780 -13.595   5.152  0.00  0.00    +0.226 C 
ATOM     35  C   LIG    1       28.673 -12.374   4.796  0.00  0.00    +0.048 C 
ENDBRANCH  33  34
ENDBRANCH   2  33
BRANCH   3  36
ATOM     36  O   LIG    1       29.273 -17.228   6.023  0.00  0.00    -0.487 OA
BRANCH  36  37
ATOM     37  C   LIG    1       29.133 -18.211   7.055  0.00  0.00    +0.226 C 
ATOM     38  C   LIG    1       29.400 -19.619   6.529  0.00  0.00    +0.048 C 
ENDBRANCH  36  37
ENDBRANCH   3  36
TORSDOF 9
ENDMDL
