MODEL 1
REMARK VINA RESULT:       0.9      0.000      0.000
REMARK  Name = *****
REMARK                            x       y       z     vdW  Elec       q    Type
REMARK                         _______ _______ _______ _____ _____    ______ ____
ROOT
ATOM      1  C   LIG    1       25.678 -14.440   4.059  0.00  0.00    +0.144 C 
ATOM      2  C   LIG    1       26.024 -13.770   2.728  0.00  0.00    +0.239 C 
ATOM      3  O   LIG    1       25.215 -13.612   1.812  0.00  0.00    -0.274 OA
ATOM      4  N   LIG    1       27.322 -13.371   2.552  0.00  0.00    -0.239 N 
ATOM      5  H   LIG    1       27.551 -12.964   1.655  0.00  0.00    +0.159 HD
ATOM      6  C   LIG    1       28.296 -13.345   3.497  0.00  0.00    +0.312 C 
ATOM      7  O   LIG    1       29.414 -12.900   3.254  0.00  0.00    -0.252 OA
ATOM      8  N   LIG    1       27.964 -13.794   4.734  0.00  0.00    -0.239 N 
ATOM      9  H   LIG    1       28.664 -13.680   5.455  0.00  0.00    +0.159 HD
ATOM     10  C   LIG    1       26.717 -14.179   5.150  0.00  0.00    +0.239 C 
ATOM     11  O   LIG    1       26.507 -14.351   6.350  0.00  0.00    -0.274 OA
ENDROOT
BRANCH   1  12
ATOM     12  C   LIG    1       25.659 -15.979   3.825  0.00  0.00    -0.049 C 
ATOM     13  C   LIG    1       24.295 -16.675   3.746  0.00  0.00    +0.035 C 
ATOM     14  C   LIG    1       24.372 -18.215   3.610  0.00  0.00    -0.006 C 
ATOM     15  C   LIG    1       25.456 -18.566   2.595  0.00  0.00    +0.011 C 
ATOM     16  C   LIG    1       26.700 -18.230   3.416  0.00  0.00    +0.012 C 
ATOM     17  C   LIG    1       26.418 -18.954   4.737  0.00  0.00    +0.008 C 
ATOM     18  C   LIG    1       24.892 -18.876   4.901  0.00  0.00    +0.004 C 
ATOM     19  C   LIG    1       26.767 -16.741   3.673  0.00  0.00    -0.023 C 
ENDBRANCH   1  12
BRANCH   1  21
ATOM     20  C   LIG    1       24.204 -12.366   4.606  0.00  0.00    +0.005 C 
ATOM     21  C   LIG    1       24.301 -13.888   4.537  0.00  0.00    +0.026 C 
ENDBRANCH   1  21
TORSDOF 2
ENDMDL
MODEL 2
REMARK VINA RESULT:       1.1      1.439      2.281
REMARK  Name = *****
REMARK                            x       y       z     vdW  Elec       q    Type
REMARK                         _______ _______ _______ _____ _____    ______ ____
ROOT
ATOM      1  C   LIG    1       25.211 -14.646   3.369  0.00  0.00    +0.144 C 
ATOM      2  C   LIG    1       26.649 -14.332   2.950  0.00  0.00    +0.239 C 
ATOM      3  O   LIG    1       27.083 -14.512   1.812  0.00  0.00    -0.274 OA
ATOM      4  N   LIG    1       27.491 -13.865   3.923  0.00  0.00    -0.239 N 
ATOM      5  H   LIG    1       28.449 -13.696   3.647  0.00  0.00    +0.159 HD
ATOM      6  C   LIG    1       27.145 -13.483   5.178  0.00  0.00    +0.312 C 
ATOM      7  O   LIG    1       27.969 -13.008   5.956  0.00  0.00    -0.252 OA
ATOM      8  N   LIG    1       25.837 -13.610   5.521  0.00  0.00    -0.239 N 
ATOM      9  H   LIG    1       25.571 -13.234   6.421  0.00  0.00    +0.159 HD
ATOM     10  C   LIG    1       24.816 -13.993   4.693  0.00  0.00    +0.239 C 
ATOM     11  O   LIG    1       23.651 -13.853   5.067  0.00  0.00    -0.274 OA
ENDROOT
BRANCH   1  12
ATOM     12  C   LIG    1       25.105 -16.184   3.585  0.00  0.00    -0.049 C 
ATOM     13  C   LIG    1       26.345 -17.037   3.286  0.00  0.00    +0.035 C 
ATOM     14  C   LIG    1       26.120 -18.562   3.435  0.00  0.00    -0.006 C 
ATOM     15  C   LIG    1       25.318 -18.820   4.707  0.00  0.00    +0.011 C 
ATOM     16  C   LIG    1       23.948 -18.312   4.258  0.00  0.00    +0.012 C 
ATOM     17  C   LIG    1       23.770 -19.017   2.909  0.00  0.00    +0.008 C 
ATOM     18  C   LIG    1       25.193 -19.111   2.333  0.00  0.00    +0.004 C 
ATOM     19  C   LIG    1       23.996 -16.818   4.034  0.00  0.00    -0.023 C 
ENDBRANCH   1  12
BRANCH   1  21
ATOM     20  C   LIG    1       24.344 -12.632   1.967  0.00  0.00    +0.005 C 
ATOM     21  C   LIG    1       24.255 -14.130   2.252  0.00  0.00    +0.026 C 
ENDBRANCH   1  21
TORSDOF 2
ENDMDL
MODEL 3
REMARK VINA RESULT:       1.2      1.401      1.737
REMARK  Name = *****
REMARK                            x       y       z     vdW  Elec       q    Type
REMARK                         _______ _______ _______ _____ _____    ______ ____
ROOT
ATOM      1  C   LIG    1       25.215 -14.773   3.345  0.00  0.00    +0.144 C 
ATOM      2  C   LIG    1       26.642 -14.372   2.963  0.00  0.00    +0.239 C 
ATOM      3  O   LIG    1       27.079 -14.415   1.813  0.00  0.00    -0.274 OA
ATOM      4  N   LIG    1       27.473 -13.991   3.982  0.00  0.00    -0.239 N 
ATOM      5  H   LIG    1       28.425 -13.765   3.727  0.00  0.00    +0.159 HD
ATOM      6  C   LIG    1       27.120 -13.758   5.271  0.00  0.00    +0.312 C 
ATOM      7  O   LIG    1       27.931 -13.347   6.096  0.00  0.00    -0.252 OA
ATOM      8  N   LIG    1       25.817 -13.960   5.597  0.00  0.00    -0.239 N 
ATOM      9  H   LIG    1       25.542 -13.692   6.533  0.00  0.00    +0.159 HD
ATOM     10  C   LIG    1       24.805 -14.280   4.732  0.00  0.00    +0.239 C 
ATOM     11  O   LIG    1       23.638 -14.215   5.118  0.00  0.00    -0.274 OA
ENDROOT
BRANCH   1  12
ATOM     12  C   LIG    1       25.155 -16.328   3.392  0.00  0.00    -0.049 C 
ATOM     13  C   LIG    1       23.784 -16.985   3.593  0.00  0.00    +0.035 C 
ATOM     14  C   LIG    1       23.830 -18.527   3.724  0.00  0.00    -0.006 C 
ATOM     15  C   LIG    1       24.785 -19.083   2.670  0.00  0.00    +0.011 C 
ATOM     16  C   LIG    1       26.119 -18.645   3.272  0.00  0.00    +0.012 C 
ATOM     17  C   LIG    1       25.988 -19.119   4.724  0.00  0.00    +0.008 C 
ATOM     18  C   LIG    1       24.492 -18.967   5.045  0.00  0.00    +0.004 C 
ATOM     19  C   LIG    1       26.230 -17.138   3.251  0.00  0.00    -0.023 C 
ENDBRANCH   1  12
BRANCH   1  21
ATOM     20  C   LIG    1       24.324 -12.648   2.133  0.00  0.00    +0.005 C 
ATOM     21  C   LIG    1       24.242 -14.165   2.290  0.00  0.00    +0.026 C 
ENDBRANCH   1  21
TORSDOF 2
ENDMDL
MODEL 4
REMARK VINA RESULT:       1.8      3.733      5.764
REMARK  Name = *****
REMARK                            x       y       z     vdW  Elec       q    Type
REMARK                         _______ _______ _______ _____ _____    ______ ____
ROOT
ATOM      1  C   LIG    1       23.852 -18.726   3.786  0.00  0.00    +0.144 C 
ATOM      2  C   LIG    1       23.491 -19.195   5.197  0.00  0.00    +0.239 C 
ATOM      3  O   LIG    1       22.426 -18.928   5.754  0.00  0.00    -0.274 OA
ATOM      4  N   LIG    1       24.439 -19.914   5.873  0.00  0.00    -0.239 N 
ATOM      5  H   LIG    1       24.209 -20.188   6.819  0.00  0.00    +0.159 HD
ATOM      6  C   LIG    1       25.596 -20.408   5.364  0.00  0.00    +0.312 C 
ATOM      7  O   LIG    1       26.349 -21.105   6.039  0.00  0.00    -0.252 OA
ATOM      8  N   LIG    1       25.862 -20.132   4.062  0.00  0.00    -0.239 N 
ATOM      9  H   LIG    1       26.675 -20.583   3.665  0.00  0.00    +0.159 HD
ATOM     10  C   LIG    1       25.032 -19.487   3.184  0.00  0.00    +0.239 C 
ATOM     11  O   LIG    1       25.299 -19.499   1.982  0.00  0.00    -0.274 OA
ENDROOT
BRANCH   1  12
ATOM     12  C   LIG    1       24.287 -17.235   3.878  0.00  0.00    -0.049 C 
ATOM     13  C   LIG    1       23.287 -16.232   4.467  0.00  0.00    +0.035 C 
ATOM     14  C   LIG    1       23.765 -14.759   4.431  0.00  0.00    -0.006 C 
ATOM     15  C   LIG    1       25.228 -14.706   4.862  0.00  0.00    +0.011 C 
ATOM     16  C   LIG    1       25.886 -15.313   3.623  0.00  0.00    +0.012 C 
ATOM     17  C   LIG    1       25.240 -14.510   2.489  0.00  0.00    +0.008 C 
ATOM     18  C   LIG    1       23.817 -14.213   2.991  0.00  0.00    +0.004 C 
ATOM     19  C   LIG    1       25.495 -16.767   3.486  0.00  0.00    -0.023 C 
ENDBRANCH   1  12
BRANCH   1  21
ATOM     20  C   LIG    1       21.265 -18.594   3.521  0.00  0.00    +0.005 C 
ATOM     21  C   LIG    1       22.605 -18.933   2.872  0.00  0.00    +0.026 C 
ENDBRANCH   1  21
TORSDOF 2
ENDMDL
MODEL 5
REMARK VINA RESULT:       2.2      1.942      3.713
REMARK  Name = *****
REMARK                            x       y       z     vdW  Elec       q    Type
REMARK                         _______ _______ _______ _____ _____    ______ ____
ROOT
ATOM      1  C   LIG    1       25.167 -14.642   3.571  0.00  0.00    +0.144 C 
ATOM      2  C   LIG    1       25.875 -14.182   4.847  0.00  0.00    +0.239 C 
ATOM      3  O   LIG    1       26.900 -14.703   5.286  0.00  0.00    -0.274 OA
ATOM      4  N   LIG    1       25.290 -13.159   5.545  0.00  0.00    -0.239 N 
ATOM      5  H   LIG    1       25.743 -12.886   6.407  0.00  0.00    +0.159 HD
ATOM      6  C   LIG    1       24.249 -12.391   5.137  0.00  0.00    +0.312 C 
ATOM      7  O   LIG    1       23.844 -11.447   5.810  0.00  0.00    -0.252 OA
ATOM      8  N   LIG    1       23.703 -12.687   3.930  0.00  0.00    -0.239 N 
ATOM      9  H   LIG    1       22.994 -12.051   3.590  0.00  0.00    +0.159 HD
ATOM     10  C   LIG    1       24.162 -13.621   3.039  0.00  0.00    +0.239 C 
ATOM     11  O   LIG    1       23.712 -13.635   1.894  0.00  0.00    -0.274 OA
ENDROOT
BRANCH   1  12
ATOM     12  C   LIG    1       24.355 -15.925   3.915  0.00  0.00    -0.049 C 
ATOM     13  C   LIG    1       25.021 -17.284   3.666  0.00  0.00    +0.035 C 
ATOM     14  C   LIG    1       24.108 -18.503   3.944  0.00  0.00    -0.006 C 
ATOM     15  C   LIG    1       23.350 -18.263   5.247  0.00  0.00    +0.011 C 
ATOM     16  C   LIG    1       22.365 -17.192   4.782  0.00  0.00    +0.012 C 
ATOM     17  C   LIG    1       21.799 -17.811   3.499  0.00  0.00    +0.008 C 
ATOM     18  C   LIG    1       22.972 -18.611   2.908  0.00  0.00    +0.004 C 
ATOM     19  C   LIG    1       23.104 -15.920   4.434  0.00  0.00    -0.023 C 
ENDBRANCH   1  12
BRANCH   1  21
ATOM     20  C   LIG    1       27.244 -13.751   2.280  0.00  0.00    +0.005 C 
ATOM     21  C   LIG    1       26.251 -14.893   2.479  0.00  0.00    +0.026 C 
ENDBRANCH   1  21
TORSDOF 2
ENDMDL
MODEL 6
REMARK VINA RESULT:       2.3      4.235      6.357
REMARK  Name = *****
REMARK                            x       y       z     vdW  Elec       q    Type
REMARK                         _______ _______ _______ _____ _____    ______ ____
ROOT
ATOM      1  C   LIG    1       24.034 -20.278   4.726  0.00  0.00    +0.144 C 
ATOM      2  C   LIG    1       24.342 -20.448   6.216  0.00  0.00    +0.239 C 
ATOM      3  O   LIG    1       23.492 -20.725   7.062  0.00  0.00    -0.274 OA
ATOM      4  N   LIG    1       25.635 -20.232   6.610  0.00  0.00    -0.239 N 
ATOM      5  H   LIG    1       25.823 -20.309   7.600  0.00  0.00    +0.159 HD
ATOM      6  C   LIG    1       26.710 -20.057   5.801  0.00  0.00    +0.312 C 
ATOM      7  O   LIG    1       27.845 -19.942   6.255  0.00  0.00    -0.252 OA
ATOM      8  N   LIG    1       26.479 -20.058   4.462  0.00  0.00    -0.239 N 
ATOM      9  H   LIG    1       27.295 -20.025   3.866  0.00  0.00    +0.159 HD
ATOM     10  C   LIG    1       25.283 -20.316   3.847  0.00  0.00    +0.239 C 
ATOM     11  O   LIG    1       25.259 -20.504   2.630  0.00  0.00    -0.274 OA
ENDROOT
BRANCH   1  12
ATOM     12  C   LIG    1       23.397 -18.871   4.531  0.00  0.00    -0.049 C 
ATOM     13  C   LIG    1       24.166 -17.847   3.687  0.00  0.00    +0.035 C 
ATOM     14  C   LIG    1       23.508 -16.447   3.626  0.00  0.00    -0.006 C 
ATOM     15  C   LIG    1       22.005 -16.618   3.419  0.00  0.00    +0.011 C 
ATOM     16  C   LIG    1       21.608 -17.127   4.804  0.00  0.00    +0.012 C 
ATOM     17  C   LIG    1       22.291 -16.113   5.727  0.00  0.00    +0.008 C 
ATOM     18  C   LIG    1       23.581 -15.724   4.986  0.00  0.00    +0.004 C 
ATOM     19  C   LIG    1       22.202 -18.496   5.045  0.00  0.00    -0.023 C 
ENDBRANCH   1  12
BRANCH   1  21
ATOM     20  C   LIG    1       21.647 -21.313   4.802  0.00  0.00    +0.005 C 
ATOM     21  C   LIG    1       23.081 -21.433   4.293  0.00  0.00    +0.026 C 
ENDBRANCH   1  21
TORSDOF 2
ENDMDL
MODEL 7
REMARK VINA RESULT:       2.6      1.015      1.256
REMARK  Name = *****
REMARK                            x       y       z     vdW  Elec       q    Type
REMARK                         _______ _______ _______ _____ _____    ______ ____
ROOT
ATOM      1  C   LIG    1       24.837 -14.368   4.036  0.00  0.00    +0.144 C 
ATOM      2  C   LIG    1       25.137 -13.841   2.631  0.00  0.00    +0.239 C 
ATOM      3  O   LIG    1       24.266 -13.537   1.815  0.00  0.00    -0.274 OA
ATOM      4  N   LIG    1       26.454 -13.754   2.269  0.00  0.00    -0.239 N 
ATOM      5  H   LIG    1       26.643 -13.442   1.327  0.00  0.00    +0.159 HD
ATOM      6  C   LIG    1       27.529 -13.916   3.082  0.00  0.00    +0.312 C 
ATOM      7  O   LIG    1       28.675 -13.745   2.673  0.00  0.00    -0.252 OA
ATOM      8  N   LIG    1       27.278 -14.233   4.378  0.00  0.00    -0.239 N 
ATOM      9  H   LIG    1       28.077 -14.256   4.997  0.00  0.00    +0.159 HD
ATOM     10  C   LIG    1       26.045 -14.310   4.970  0.00  0.00    +0.239 C 
ATOM     11  O   LIG    1       25.968 -14.388   6.196  0.00  0.00    -0.274 OA
ENDROOT
BRANCH   1  12
ATOM     12  C   LIG    1       24.448 -15.870   3.907  0.00  0.00    -0.049 C 
ATOM     13  C   LIG    1       23.030 -16.281   4.325  0.00  0.00    +0.035 C 
ATOM     14  C   LIG    1       22.762 -17.804   4.257  0.00  0.00    -0.006 C 
ATOM     15  C   LIG    1       23.354 -18.350   2.959  0.00  0.00    +0.011 C 
ATOM     16  C   LIG    1       24.841 -18.277   3.300  0.00  0.00    +0.012 C 
ATOM     17  C   LIG    1       24.889 -18.947   4.677  0.00  0.00    +0.008 C 
ATOM     18  C   LIG    1       23.552 -18.571   5.336  0.00  0.00    +0.004 C 
ATOM     19  C   LIG    1       25.273 -16.834   3.437  0.00  0.00    -0.023 C 
ENDBRANCH   1  12
BRANCH   1  21
ATOM     20  C   LIG    1       24.013 -12.015   4.786  0.00  0.00    +0.005 C 
ATOM     21  C   LIG    1       23.693 -13.501   4.645  0.00  0.00    +0.026 C 
ENDBRANCH   1  21
TORSDOF 2
ENDMDL
MODEL 8
REMARK VINA RESULT:       2.8      3.689      5.854
REMARK  Name = *****
REMARK                            x       y       z     vdW  Elec       q    Type
REMARK                         _______ _______ _______ _____ _____    ______ ____
ROOT
ATOM      1  C   LIG    1       24.678 -18.805   3.536  0.00  0.00    +0.144 C 
ATOM      2  C   LIG    1       23.170 -18.884   3.787  0.00  0.00    +0.239 C 
ATOM      3  O   LIG    1       22.321 -18.561   2.956  0.00  0.00    -0.274 OA
ATOM      4  N   LIG    1       22.769 -19.298   5.029  0.00  0.00    -0.239 N 
ATOM      5  H   LIG    1       21.773 -19.311   5.200  0.00  0.00    +0.159 HD
ATOM      6  C   LIG    1       23.558 -19.816   6.004  0.00  0.00    +0.312 C 
ATOM      7  O   LIG    1       23.087 -20.227   7.061  0.00  0.00    -0.252 OA
ATOM      8  N   LIG    1       24.887 -19.899   5.739  0.00  0.00    -0.239 N 
ATOM      9  H   LIG    1       25.453 -20.374   6.430  0.00  0.00    +0.159 HD
ATOM     10  C   LIG    1       25.497 -19.603   4.550  0.00  0.00    +0.239 C 
ATOM     11  O   LIG    1       26.671 -19.932   4.375  0.00  0.00    -0.274 OA
ENDROOT
BRANCH   1  12
ATOM     12  C   LIG    1       25.108 -17.317   3.691  0.00  0.00    -0.049 C 
ATOM     13  C   LIG    1       24.030 -16.296   4.078  0.00  0.00    +0.035 C 
ATOM     14  C   LIG    1       24.525 -14.830   4.114  0.00  0.00    -0.006 C 
ATOM     15  C   LIG    1       25.886 -14.787   4.805  0.00  0.00    +0.011 C 
ATOM     16  C   LIG    1       26.751 -15.416   3.714  0.00  0.00    +0.012 C 
ATOM     17  C   LIG    1       26.333 -14.620   2.473  0.00  0.00    +0.008 C 
ATOM     18  C   LIG    1       24.847 -14.301   2.702  0.00  0.00    +0.004 C 
ATOM     19  C   LIG    1       26.373 -16.867   3.523  0.00  0.00    -0.023 C 
ENDBRANCH   1  12
BRANCH   1  21
ATOM     20  C   LIG    1       24.474 -20.793   1.868  0.00  0.00    +0.005 C 
ATOM     21  C   LIG    1       24.962 -19.367   2.110  0.00  0.00    +0.026 C 
ENDBRANCH   1  21
TORSDOF 2
ENDMDL
MODEL 9
REMARK VINA RESULT:       3.5      1.977      3.610
REMARK  Name = *****
REMARK                            x       y       z     vdW  Elec       q    Type
REMARK                         _______ _______ _______ _____ _____    ______ ____
ROOT
ATOM      1  C   LIG    1       25.449 -14.438   3.984  0.00  0.00    +0.144 C 
ATOM      2  C   LIG    1       24.790 -13.225   4.644  0.00  0.00    +0.239 C 
ATOM      3  O   LIG    1       24.777 -13.031   5.860  0.00  0.00    -0.274 OA
ATOM      4  N   LIG    1       24.148 -12.342   3.818  0.00  0.00    -0.239 N 
ATOM      5  H   LIG    1       23.682 -11.563   4.265  0.00  0.00    +0.159 HD
ATOM      6  C   LIG    1       24.183 -12.329   2.462  0.00  0.00    +0.312 C 
ATOM      7  O   LIG    1       23.628 -11.447   1.812  0.00  0.00    -0.252 OA
ATOM      8  N   LIG    1       24.895 -13.314   1.856  0.00  0.00    -0.239 N 
ATOM      9  H   LIG    1       24.996 -13.242   0.853  0.00  0.00    +0.159 HD
ATOM     10  C   LIG    1       25.662 -14.261   2.481  0.00  0.00    +0.239 C 
ATOM     11  O   LIG    1       26.430 -14.953   1.812  0.00  0.00    -0.274 OA
ENDROOT
BRANCH   1  12
ATOM     12  C   LIG    1       24.489 -15.651   4.155  0.00  0.00    -0.049 C 
ATOM     13  C   LIG    1       25.043 -17.050   3.859  0.00  0.00    +0.035 C 
ATOM     14  C   LIG    1       23.995 -18.186   3.960  0.00  0.00    -0.006 C 
ATOM     15  C   LIG    1       23.145 -17.960   5.208  0.00  0.00    +0.011 C 
ATOM     16  C   LIG    1       22.314 -16.765   4.744  0.00  0.00    +0.012 C 
ATOM     17  C   LIG    1       21.815 -17.232   3.373  0.00  0.00    +0.008 C 
ATOM     18  C   LIG    1       22.956 -18.105   2.825  0.00  0.00    +0.004 C 
ATOM     19  C   LIG    1       23.201 -15.554   4.562  0.00  0.00    -0.023 C 
ENDBRANCH   1  12
BRANCH   1  21
ATOM     20  C   LIG    1       27.748 -13.444   4.695  0.00  0.00    +0.005 C 
ATOM     21  C   LIG    1       26.833 -14.667   4.662  0.00  0.00    +0.026 C 
ENDBRANCH   1  21
TORSDOF 2
ENDMDL
