MODEL 1
REMARK VINA RESULT:       1.8      0.000      0.000
REMARK  Name = *****
REMARK                            x       y       z     vdW  Elec       q    Type
REMARK                         _______ _______ _______ _____ _____    ______ ____
ROOT
ATOM      1  C   LIG    1       25.899 -17.479   4.032  0.00  0.00    +0.328 C 
ATOM      2  N   LIG    1       26.573 -16.216   3.797  0.00  0.00    -0.208 N 
ATOM      3  C   LIG    1       27.884 -16.215   4.240  0.00  0.00    +0.275 C 
ATOM      4  O   LIG    1       28.677 -15.284   4.262  0.00  0.00    -0.268 OA
ATOM      5  C   LIG    1       28.155 -17.568   4.746  0.00  0.00    +0.152 A 
ATOM      6  N   LIG    1       29.317 -18.011   5.268  0.00  0.00    -0.247 NA
ATOM      7  C   LIG    1       29.270 -19.315   5.637  0.00  0.00    +0.131 A 
ATOM      8  C   LIG    1       28.133 -20.110   5.475  0.00  0.00    +0.131 A 
ATOM      9  N   LIG    1       26.967 -19.640   4.953  0.00  0.00    -0.251 NA
ATOM     10  C   LIG    1       27.013 -18.333   4.602  0.00  0.00    +0.131 A 
ENDROOT
BRANCH   2  11
ATOM     11  C   LIG    1       25.884 -15.079   3.371  0.00  0.00    +0.131 A 
ATOM     12  N   LIG    1       26.349 -14.416   2.292  0.00  0.00    -0.238 NA
ATOM     13  C   LIG    1       25.631 -13.339   1.872  0.00  0.00    +0.133 A 
ATOM     14  C   LIG    1       24.522 -12.838   2.535  0.00  0.00    +0.059 A 
ATOM     15 CL   LIG    1       23.694 -11.448   1.963  0.00  0.00    -0.082 Cl
ATOM     16  C   LIG    1       24.101 -13.491   3.684  0.00  0.00    +0.025 A 
ATOM     17  C   LIG    1       24.774 -14.643   4.093  0.00  0.00    +0.045 A 
ENDBRANCH   2  11
BRANCH   1  18
ATOM     18  O   LIG    1       25.521 -18.001   2.760  0.00  0.00    -0.422 OA
BRANCH  18  24
ATOM     19  C   LIG    1       22.002 -21.323   5.605  0.00  0.00    +0.105 C 
ATOM     20  N   LIG    1       23.361 -20.786   5.613  0.00  0.00    -0.302 NA
ATOM     21  C   LIG    1       24.262 -21.572   4.732  0.00  0.00    +0.103 C 
ATOM     22  C   LIG    1       24.087 -21.286   3.224  0.00  0.00    +0.126 C 
ATOM     23  N   LIG    1       24.216 -19.852   2.982  0.00  0.00    -0.265 N 
ATOM     24  C   LIG    1       25.469 -19.350   2.665  0.00  0.00    +0.405 C 
ATOM     25  O   LIG    1       26.428 -20.051   2.355  0.00  0.00    -0.226 OA
ATOM     26  C   LIG    1       23.244 -19.059   3.732  0.00  0.00    +0.126 C 
ATOM     27  C   LIG    1       23.384 -19.350   5.243  0.00  0.00    +0.103 C 
ENDBRANCH  18  24
ENDBRANCH   1  18
TORSDOF 3
ENDMDL
