MODEL 1
REMARK VINA RESULT:      -6.5      0.000      0.000
REMARK  Name = *****
REMARK                            x       y       z     vdW  Elec       q    Type
REMARK                         _______ _______ _______ _____ _____    ______ ____
ROOT
ATOM      1  C   LIG    1       28.617 -19.412   7.652  0.00  0.00    +0.260 C 
ATOM      2  N   LIG    1       28.632 -19.430   6.211  0.00  0.00    -0.235 N 
ATOM      3  C   LIG    1       27.451 -19.959   5.723  0.00  0.00    +0.317 C 
ATOM      4  O   LIG    1       27.121 -19.957   4.535  0.00  0.00    -0.252 OA
ATOM      5  N   LIG    1       26.741 -20.482   6.758  0.00  0.00    -0.199 N 
ATOM      6  C   LIG    1       27.355 -20.228   7.952  0.00  0.00    +0.264 C 
ATOM      7  O   LIG    1       26.982 -20.580   9.065  0.00  0.00    -0.271 OA
ENDROOT
BRANCH   1  10
ATOM      8  O   LIG    1       31.912 -19.734   9.159  0.00  0.00    -0.253 OA
ATOM      9  C   LIG    1       30.821 -19.246   8.852  0.00  0.00    +0.307 C 
ATOM     10  N   LIG    1       29.767 -19.989   8.327  0.00  0.00    -0.235 N 
ATOM     11  N   LIG    1       30.566 -17.914   9.004  0.00  0.00    -0.277 N 
ATOM     12  H   LIG    1       29.698 -17.561   8.657  0.00  0.00    +0.152 HD
BRANCH  10  13
ATOM     13  C   LIG    1       29.912 -21.411   8.111  0.00  0.00    +0.270 C 
BRANCH  13  14
ATOM     14  O   LIG    1       30.372 -21.982   9.325  0.00  0.00    -0.377 OA
ATOM     15  H   LIG    1       29.574 -22.093   9.875  0.00  0.00    +0.211 HD
ENDBRANCH  13  14
ENDBRANCH  10  13
BRANCH  11  16
ATOM     16  C   LIG    1       31.420 -16.876   9.483  0.00  0.00    +0.265 C 
BRANCH  16  17
ATOM     17  O   LIG    1       32.474 -16.814   8.554  0.00  0.00    -0.377 OA
ATOM     18  H   LIG    1       32.033 -16.622   7.710  0.00  0.00    +0.211 HD
ENDBRANCH  16  17
ENDBRANCH  11  16
ENDBRANCH   1  10
BRANCH   2  19
ATOM     19  C   LIG    1       29.481 -18.563   5.445  0.00  0.00    +0.270 C 
BRANCH  19  20
ATOM     20  O   LIG    1       28.676 -17.750   4.615  0.00  0.00    -0.377 OA
ATOM     21  H   LIG    1       27.754 -18.022   4.764  0.00  0.00    +0.211 HD
ENDBRANCH  19  20
ENDBRANCH   2  19
BRANCH   5  22
ATOM     22  C   LIG    1       25.492 -21.164   6.637  0.00  0.00    +0.276 C 
BRANCH  22  23
ATOM     23  O   LIG    1       25.652 -22.163   5.647  0.00  0.00    -0.376 OA
ATOM     24  H   LIG    1       25.403 -23.000   6.071  0.00  0.00    +0.211 HD
ENDBRANCH  22  23
ENDBRANCH   5  22
TORSDOF 9
ENDMDL
MODEL 2
REMARK VINA RESULT:      -6.4      1.796      5.528
REMARK  Name = *****
REMARK                            x       y       z     vdW  Elec       q    Type
REMARK                         _______ _______ _______ _____ _____    ______ ____
ROOT
ATOM      1  C   LIG    1       27.731 -21.063   6.661  0.00  0.00    +0.260 C 
ATOM      2  N   LIG    1       27.814 -19.798   5.977  0.00  0.00    -0.235 N 
ATOM      3  C   LIG    1       29.030 -19.190   6.231  0.00  0.00    +0.317 C 
ATOM      4  O   LIG    1       29.440 -18.177   5.661  0.00  0.00    -0.252 OA
ATOM      5  N   LIG    1       29.673 -19.883   7.208  0.00  0.00    -0.199 N 
ATOM      6  C   LIG    1       28.977 -21.008   7.551  0.00  0.00    +0.264 C 
ATOM      7  O   LIG    1       29.276 -21.831   8.408  0.00  0.00    -0.271 OA
ENDROOT
BRANCH   1  10
ATOM      8  O   LIG    1       24.449 -22.262   7.673  0.00  0.00    -0.253 OA
ATOM      9  C   LIG    1       25.576 -22.256   7.171  0.00  0.00    +0.307 C 
ATOM     10  N   LIG    1       26.543 -21.297   7.464  0.00  0.00    -0.235 N 
ATOM     11  N   LIG    1       25.962 -23.206   6.271  0.00  0.00    -0.277 N 
ATOM     12  H   LIG    1       26.854 -23.101   5.832  0.00  0.00    +0.152 HD
BRANCH  10  13
ATOM     13  C   LIG    1       26.256 -20.233   8.398  0.00  0.00    +0.270 C 
BRANCH  13  14
ATOM     14  O   LIG    1       25.823 -20.831   9.608  0.00  0.00    -0.377 OA
ATOM     15  H   LIG    1       26.335 -20.388  10.311  0.00  0.00    +0.211 HD
ENDBRANCH  13  14
ENDBRANCH  10  13
BRANCH  11  16
ATOM     16  C   LIG    1       25.223 -24.303   5.737  0.00  0.00    +0.265 C 
BRANCH  16  17
ATOM     17  O   LIG    1       24.778 -23.863   4.478  0.00  0.00    -0.377 OA
ATOM     18  H   LIG    1       24.772 -24.669   3.935  0.00  0.00    +0.211 HD
ENDBRANCH  16  17
ENDBRANCH  11  16
ENDBRANCH   1  10
BRANCH   2  19
ATOM     19  C   LIG    1       27.011 -19.498   4.825  0.00  0.00    +0.270 C 
BRANCH  19  20
ATOM     20  O   LIG    1       26.231 -20.632   4.503  0.00  0.00    -0.377 OA
ATOM     21  H   LIG    1       25.574 -20.733   5.212  0.00  0.00    +0.211 HD
ENDBRANCH  19  20
ENDBRANCH   2  19
BRANCH   5  22
ATOM     22  C   LIG    1       30.933 -19.526   7.777  0.00  0.00    +0.276 C 
BRANCH  22  23
ATOM     23  O   LIG    1       31.693 -20.713   7.899  0.00  0.00    -0.376 OA
ATOM     24  H   LIG    1       31.104 -21.365   8.310  0.00  0.00    +0.211 HD
ENDBRANCH  22  23
ENDBRANCH   5  22
TORSDOF 9
ENDMDL
MODEL 3
REMARK VINA RESULT:      -6.0      1.184      5.750
REMARK  Name = *****
REMARK                            x       y       z     vdW  Elec       q    Type
REMARK                         _______ _______ _______ _____ _____    ______ ____
ROOT
ATOM      1  C   LIG    1       29.384 -19.533   8.268  0.00  0.00    +0.260 C 
ATOM      2  N   LIG    1       30.442 -20.496   8.441  0.00  0.00    -0.235 N 
ATOM      3  C   LIG    1       31.555 -19.895   9.001  0.00  0.00    +0.317 C 
ATOM      4  O   LIG    1       32.551 -20.500   9.401  0.00  0.00    -0.252 OA
ATOM      5  N   LIG    1       31.367 -18.548   9.020  0.00  0.00    -0.199 N 
ATOM      6  C   LIG    1       30.112 -18.222   8.586  0.00  0.00    +0.264 C 
ATOM      7  O   LIG    1       29.639 -17.099   8.466  0.00  0.00    -0.271 OA
ENDROOT
BRANCH   1  10
ATOM      8  O   LIG    1       27.117 -20.188   5.500  0.00  0.00    -0.253 OA
ATOM      9  C   LIG    1       27.512 -19.989   6.652  0.00  0.00    +0.307 C 
ATOM     10  N   LIG    1       28.767 -19.465   6.955  0.00  0.00    -0.235 N 
ATOM     11  N   LIG    1       26.732 -20.278   7.734  0.00  0.00    -0.277 N 
ATOM     12  H   LIG    1       27.137 -20.179   8.642  0.00  0.00    +0.152 HD
BRANCH  10  13
ATOM     13  C   LIG    1       29.690 -19.124   5.898  0.00  0.00    +0.270 C 
BRANCH  13  14
ATOM     14  O   LIG    1       29.273 -17.883   5.351  0.00  0.00    -0.377 OA
ATOM     15  H   LIG    1       29.002 -18.084   4.436  0.00  0.00    +0.211 HD
ENDBRANCH  13  14
ENDBRANCH  10  13
BRANCH  11  16
ATOM     16  C   LIG    1       25.422 -20.841   7.783  0.00  0.00    +0.265 C 
BRANCH  16  17
ATOM     17  O   LIG    1       25.340 -21.461   9.043  0.00  0.00    -0.377 OA
ATOM     18  H   LIG    1       24.991 -22.346   8.848  0.00  0.00    +0.211 HD
ENDBRANCH  16  17
ENDBRANCH  11  16
ENDBRANCH   1  10
BRANCH   2  19
ATOM     19  C   LIG    1       30.187 -21.906   8.519  0.00  0.00    +0.270 C 
BRANCH  19  20
ATOM     20  O   LIG    1       30.651 -22.387   9.765  0.00  0.00    -0.377 OA
ATOM     21  H   LIG    1       30.430 -23.333   9.802  0.00  0.00    +0.211 HD
ENDBRANCH  19  20
ENDBRANCH   2  19
BRANCH   5  22
ATOM     22  C   LIG    1       32.323 -17.590   9.475  0.00  0.00    +0.276 C 
BRANCH  22  23
ATOM     23  O   LIG    1       32.512 -16.654   8.430  0.00  0.00    -0.376 OA
ATOM     24  H   LIG    1       31.729 -16.728   7.862  0.00  0.00    +0.211 HD
ENDBRANCH  22  23
ENDBRANCH   5  22
TORSDOF 9
ENDMDL
MODEL 4
REMARK VINA RESULT:      -5.9      1.806      5.369
REMARK  Name = *****
REMARK                            x       y       z     vdW  Elec       q    Type
REMARK                         _______ _______ _______ _____ _____    ______ ____
ROOT
ATOM      1  C   LIG    1       27.853 -20.795   6.715  0.00  0.00    +0.260 C 
ATOM      2  N   LIG    1       28.357 -19.582   6.123  0.00  0.00    -0.235 N 
ATOM      3  C   LIG    1       29.621 -19.298   6.608  0.00  0.00    +0.317 C 
ATOM      4  O   LIG    1       30.356 -18.411   6.168  0.00  0.00    -0.252 OA
ATOM      5  N   LIG    1       29.898 -20.139   7.639  0.00  0.00    -0.199 N 
ATOM      6  C   LIG    1       28.901 -21.061   7.801  0.00  0.00    +0.264 C 
ATOM      7  O   LIG    1       28.839 -21.942   8.650  0.00  0.00    -0.271 OA
ENDROOT
BRANCH   1  10
ATOM      8  O   LIG    1       24.237 -20.520   7.001  0.00  0.00    -0.253 OA
ATOM      9  C   LIG    1       25.343 -20.852   6.566  0.00  0.00    +0.307 C 
ATOM     10  N   LIG    1       26.523 -20.737   7.297  0.00  0.00    -0.235 N 
ATOM     11  N   LIG    1       25.492 -21.362   5.309  0.00  0.00    -0.277 N 
ATOM     12  H   LIG    1       26.420 -21.530   4.979  0.00  0.00    +0.152 HD
BRANCH  10  13
ATOM     13  C   LIG    1       26.501 -20.205   8.640  0.00  0.00    +0.270 C 
BRANCH  13  14
ATOM     14  O   LIG    1       25.828 -21.145   9.461  0.00  0.00    -0.377 OA
ATOM     15  H   LIG    1       25.472 -21.814   8.846  0.00  0.00    +0.211 HD
ENDBRANCH  13  14
ENDBRANCH  10  13
BRANCH  11  16
ATOM     16  C   LIG    1       24.509 -21.587   4.299  0.00  0.00    +0.265 C 
BRANCH  16  17
ATOM     17  O   LIG    1       23.403 -22.123   4.982  0.00  0.00    -0.377 OA
ATOM     18  H   LIG    1       23.101 -21.395   5.551  0.00  0.00    +0.211 HD
ENDBRANCH  16  17
ENDBRANCH  11  16
ENDBRANCH   1  10
BRANCH   2  19
ATOM     19  C   LIG    1       27.863 -19.080   4.872  0.00  0.00    +0.270 C 
BRANCH  19  20
ATOM     20  O   LIG    1       28.496 -17.847   4.592  0.00  0.00    -0.377 OA
ATOM     21  H   LIG    1       28.230 -17.593   3.692  0.00  0.00    +0.211 HD
ENDBRANCH  19  20
ENDBRANCH   2  19
BRANCH   5  22
ATOM     22  C   LIG    1       31.088 -20.111   8.427  0.00  0.00    +0.276 C 
BRANCH  22  23
ATOM     23  O   LIG    1       31.665 -21.402   8.366  0.00  0.00    -0.376 OA
ATOM     24  H   LIG    1       31.752 -21.610   7.423  0.00  0.00    +0.211 HD
ENDBRANCH  22  23
ENDBRANCH   5  22
TORSDOF 9
ENDMDL
MODEL 5
REMARK VINA RESULT:      -5.8      3.103      6.848
REMARK  Name = *****
REMARK                            x       y       z     vdW  Elec       q    Type
REMARK                         _______ _______ _______ _____ _____    ______ ____
ROOT
ATOM      1  C   LIG    1       25.218 -22.111   5.580  0.00  0.00    +0.260 C 
ATOM      2  N   LIG    1       25.161 -20.875   4.842  0.00  0.00    -0.235 N 
ATOM      3  C   LIG    1       26.257 -20.085   5.138  0.00  0.00    +0.317 C 
ATOM      4  O   LIG    1       26.552 -19.045   4.545  0.00  0.00    -0.252 OA
ATOM      5  N   LIG    1       26.929 -20.637   6.183  0.00  0.00    -0.199 N 
ATOM      6  C   LIG    1       26.382 -21.839   6.538  0.00  0.00    +0.264 C 
ATOM      7  O   LIG    1       26.741 -22.575   7.449  0.00  0.00    -0.271 OA
ENDROOT
BRANCH   1  10
ATOM      8  O   LIG    1       22.484 -24.112   6.904  0.00  0.00    -0.253 OA
ATOM      9  C   LIG    1       23.620 -23.801   6.535  0.00  0.00    +0.307 C 
ATOM     10  N   LIG    1       24.027 -22.487   6.322  0.00  0.00    -0.235 N 
ATOM     11  N   LIG    1       24.577 -24.746   6.302  0.00  0.00    -0.277 N 
ATOM     12  H   LIG    1       25.450 -24.443   5.921  0.00  0.00    +0.152 HD
BRANCH  10  13
ATOM     13  C   LIG    1       23.104 -21.394   6.528  0.00  0.00    +0.270 C 
BRANCH  13  14
ATOM     14  O   LIG    1       23.379 -20.839   7.804  0.00  0.00    -0.377 OA
ATOM     15  H   LIG    1       22.510 -20.750   8.238  0.00  0.00    +0.211 HD
ENDBRANCH  13  14
ENDBRANCH  10  13
BRANCH  11  16
ATOM     16  C   LIG    1       24.492 -26.167   6.397  0.00  0.00    +0.265 C 
BRANCH  16  17
ATOM     17  O   LIG    1       23.623 -26.549   5.360  0.00  0.00    -0.377 OA
ATOM     18  H   LIG    1       24.134 -26.384   4.550  0.00  0.00    +0.211 HD
ENDBRANCH  16  17
ENDBRANCH  11  16
ENDBRANCH   1  10
BRANCH   2  19
ATOM     19  C   LIG    1       24.400 -20.741   3.632  0.00  0.00    +0.270 C 
BRANCH  19  20
ATOM     20  O   LIG    1       23.835 -19.446   3.587  0.00  0.00    -0.377 OA
ATOM     21  H   LIG    1       23.927 -19.068   4.478  0.00  0.00    +0.211 HD
ENDBRANCH  19  20
ENDBRANCH   2  19
BRANCH   5  22
ATOM     22  C   LIG    1       28.084 -20.076   6.807  0.00  0.00    +0.276 C 
BRANCH  22  23
ATOM     23  O   LIG    1       29.163 -20.961   6.572  0.00  0.00    -0.376 OA
ATOM     24  H   LIG    1       29.697 -20.550   5.874  0.00  0.00    +0.211 HD
ENDBRANCH  22  23
ENDBRANCH   5  22
TORSDOF 9
ENDMDL
MODEL 6
REMARK VINA RESULT:      -5.5      2.732      4.742
REMARK  Name = *****
REMARK                            x       y       z     vdW  Elec       q    Type
REMARK                         _______ _______ _______ _____ _____    ______ ____
ROOT
ATOM      1  C   LIG    1       25.964 -21.856   6.368  0.00  0.00    +0.260 C 
ATOM      2  N   LIG    1       25.193 -23.017   6.732  0.00  0.00    -0.235 N 
ATOM      3  C   LIG    1       23.918 -22.935   6.202  0.00  0.00    +0.317 C 
ATOM      4  O   LIG    1       23.092 -23.850   6.219  0.00  0.00    -0.252 OA
ATOM      5  N   LIG    1       23.736 -21.692   5.681  0.00  0.00    -0.199 N 
ATOM      6  C   LIG    1       24.888 -20.960   5.746  0.00  0.00    +0.264 C 
ATOM      7  O   LIG    1       25.050 -19.801   5.381  0.00  0.00    -0.271 OA
ENDROOT
BRANCH   1  10
ATOM      8  O   LIG    1       28.550 -20.102   8.231  0.00  0.00    -0.253 OA
ATOM      9  C   LIG    1       27.831 -20.444   7.289  0.00  0.00    +0.307 C 
ATOM     10  N   LIG    1       26.646 -21.158   7.445  0.00  0.00    -0.235 N 
ATOM     11  N   LIG    1       28.155 -20.141   5.998  0.00  0.00    -0.277 N 
ATOM     12  H   LIG    1       27.582 -20.519   5.271  0.00  0.00    +0.152 HD
BRANCH  10  13
ATOM     13  C   LIG    1       26.195 -21.545   8.762  0.00  0.00    +0.270 C 
BRANCH  13  14
ATOM     14  O   LIG    1       25.936 -20.357   9.491  0.00  0.00    -0.377 OA
ATOM     15  H   LIG    1       26.244 -19.631   8.916  0.00  0.00    +0.211 HD
ENDBRANCH  13  14
ENDBRANCH  10  13
BRANCH  11  16
ATOM     16  C   LIG    1       29.294 -19.452   5.486  0.00  0.00    +0.265 C 
BRANCH  16  17
ATOM     17  O   LIG    1       28.773 -18.313   4.846  0.00  0.00    -0.377 OA
ATOM     18  H   LIG    1       28.723 -18.570   3.910  0.00  0.00    +0.211 HD
ENDBRANCH  16  17
ENDBRANCH  11  16
ENDBRANCH   1  10
BRANCH   2  19
ATOM     19  C   LIG    1       25.810 -24.258   7.106  0.00  0.00    +0.270 C 
BRANCH  19  20
ATOM     20  O   LIG    1       25.800 -25.129   5.993  0.00  0.00    -0.377 OA
ATOM     21  H   LIG    1       25.003 -25.681   6.075  0.00  0.00    +0.211 HD
ENDBRANCH  19  20
ENDBRANCH   2  19
BRANCH   5  22
ATOM     22  C   LIG    1       22.524 -21.215   5.096  0.00  0.00    +0.276 C 
BRANCH  22  23
ATOM     23  O   LIG    1       22.356 -19.872   5.510  0.00  0.00    -0.376 OA
ATOM     24  H   LIG    1       23.065 -19.700   6.150  0.00  0.00    +0.211 HD
ENDBRANCH  22  23
ENDBRANCH   5  22
TORSDOF 9
ENDMDL
MODEL 7
REMARK VINA RESULT:      -5.5      2.246      4.253
REMARK  Name = *****
REMARK                            x       y       z     vdW  Elec       q    Type
REMARK                         _______ _______ _______ _____ _____    ______ ____
ROOT
ATOM      1  C   LIG    1       26.578 -21.349   6.269  0.00  0.00    +0.260 C 
ATOM      2  N   LIG    1       25.722 -22.472   6.557  0.00  0.00    -0.235 N 
ATOM      3  C   LIG    1       24.705 -22.555   5.624  0.00  0.00    +0.317 C 
ATOM      4  O   LIG    1       23.917 -23.499   5.529  0.00  0.00    -0.252 OA
ATOM      5  N   LIG    1       24.719 -21.434   4.855  0.00  0.00    -0.199 N 
ATOM      6  C   LIG    1       25.784 -20.637   5.169  0.00  0.00    +0.264 C 
ATOM      7  O   LIG    1       26.068 -19.553   4.675  0.00  0.00    -0.271 OA
ENDROOT
BRANCH   1  10
ATOM      8  O   LIG    1       28.398 -19.444   8.777  0.00  0.00    -0.253 OA
ATOM      9  C   LIG    1       28.125 -19.973   7.696  0.00  0.00    +0.307 C 
ATOM     10  N   LIG    1       26.855 -20.438   7.366  0.00  0.00    -0.235 N 
ATOM     11  N   LIG    1       29.072 -20.147   6.728  0.00  0.00    -0.277 N 
ATOM     12  H   LIG    1       28.815 -20.660   5.909  0.00  0.00    +0.152 HD
BRANCH  10  13
ATOM     13  C   LIG    1       25.766 -20.317   8.308  0.00  0.00    +0.270 C 
BRANCH  13  14
ATOM     14  O   LIG    1       26.162 -20.970   9.503  0.00  0.00    -0.377 OA
ATOM     15  H   LIG    1       25.769 -20.444  10.225  0.00  0.00    +0.211 HD
ENDBRANCH  13  14
ENDBRANCH  10  13
BRANCH  11  16
ATOM     16  C   LIG    1       30.459 -19.815   6.745  0.00  0.00    +0.265 C 
BRANCH  16  17
ATOM     17  O   LIG    1       31.010 -20.606   7.768  0.00  0.00    -0.377 OA
ATOM     18  H   LIG    1       30.984 -20.032   8.551  0.00  0.00    +0.211 HD
ENDBRANCH  16  17
ENDBRANCH  11  16
ENDBRANCH   1  10
BRANCH   2  19
ATOM     19  C   LIG    1       26.166 -23.591   7.338  0.00  0.00    +0.270 C 
BRANCH  19  20
ATOM     20  O   LIG    1       26.116 -24.756   6.538  0.00  0.00    -0.377 OA
ATOM     21  H   LIG    1       26.401 -25.496   7.101  0.00  0.00    +0.211 HD
ENDBRANCH  19  20
ENDBRANCH   2  19
BRANCH   5  22
ATOM     22  C   LIG    1       23.783 -21.135   3.819  0.00  0.00    +0.276 C 
BRANCH  22  23
ATOM     23  O   LIG    1       22.489 -21.194   4.389  0.00  0.00    -0.376 OA
ATOM     24  H   LIG    1       22.557 -20.751   5.250  0.00  0.00    +0.211 HD
ENDBRANCH  22  23
ENDBRANCH   5  22
TORSDOF 9
ENDMDL
MODEL 8
REMARK VINA RESULT:      -5.5      3.937      5.592
REMARK  Name = *****
REMARK                            x       y       z     vdW  Elec       q    Type
REMARK                         _______ _______ _______ _____ _____    ______ ____
ROOT
ATOM      1  C   LIG    1       25.521 -20.716   6.765  0.00  0.00    +0.260 C 
ATOM      2  N   LIG    1       25.910 -20.423   5.409  0.00  0.00    -0.235 N 
ATOM      3  C   LIG    1       24.798 -20.137   4.638  0.00  0.00    +0.317 C 
ATOM      4  O   LIG    1       24.837 -19.704   3.485  0.00  0.00    -0.252 OA
ATOM      5  N   LIG    1       23.679 -20.424   5.356  0.00  0.00    -0.199 N 
ATOM      6  C   LIG    1       23.997 -20.796   6.632  0.00  0.00    +0.264 C 
ATOM      7  O   LIG    1       23.222 -21.135   7.519  0.00  0.00    -0.271 OA
ENDROOT
BRANCH   1  10
ATOM      8  O   LIG    1       25.955 -24.245   7.533  0.00  0.00    -0.253 OA
ATOM      9  C   LIG    1       25.753 -23.217   6.880  0.00  0.00    +0.307 C 
ATOM     10  N   LIG    1       26.045 -21.938   7.348  0.00  0.00    -0.235 N 
ATOM     11  N   LIG    1       25.212 -23.263   5.628  0.00  0.00    -0.277 N 
ATOM     12  H   LIG    1       24.990 -22.396   5.183  0.00  0.00    +0.152 HD
BRANCH  10  13
ATOM     13  C   LIG    1       26.616 -21.755   8.663  0.00  0.00    +0.270 C 
BRANCH  13  14
ATOM     14  O   LIG    1       25.845 -20.768   9.329  0.00  0.00    -0.377 OA
ATOM     15  H   LIG    1       26.281 -20.642  10.193  0.00  0.00    +0.211 HD
ENDBRANCH  13  14
ENDBRANCH  10  13
BRANCH  11  16
ATOM     16  C   LIG    1       24.779 -24.389   4.867  0.00  0.00    +0.265 C 
BRANCH  16  17
ATOM     17  O   LIG    1       25.760 -25.373   5.082  0.00  0.00    -0.377 OA
ATOM     18  H   LIG    1       25.277 -26.098   5.513  0.00  0.00    +0.211 HD
ENDBRANCH  16  17
ENDBRANCH  11  16
ENDBRANCH   1  10
BRANCH   2  19
ATOM     19  C   LIG    1       27.234 -19.983   5.071  0.00  0.00    +0.270 C 
BRANCH  19  20
ATOM     20  O   LIG    1       27.152 -18.713   4.456  0.00  0.00    -0.377 OA
ATOM     21  H   LIG    1       27.064 -18.059   5.171  0.00  0.00    +0.211 HD
ENDBRANCH  19  20
ENDBRANCH   2  19
BRANCH   5  22
ATOM     22  C   LIG    1       22.340 -20.309   4.873  0.00  0.00    +0.276 C 
BRANCH  22  23
ATOM     23  O   LIG    1       21.759 -21.598   4.932  0.00  0.00    -0.376 OA
ATOM     24  H   LIG    1       21.536 -21.747   5.865  0.00  0.00    +0.211 HD
ENDBRANCH  22  23
ENDBRANCH   5  22
TORSDOF 9
ENDMDL
MODEL 9
REMARK VINA RESULT:      -5.5      2.833      6.548
REMARK  Name = *****
REMARK                            x       y       z     vdW  Elec       q    Type
REMARK                         _______ _______ _______ _____ _____    ______ ____
ROOT
ATOM      1  C   LIG    1       25.367 -20.450   6.349  0.00  0.00    +0.260 C 
ATOM      2  N   LIG    1       26.141 -21.037   7.413  0.00  0.00    -0.235 N 
ATOM      3  C   LIG    1       27.482 -20.739   7.255  0.00  0.00    +0.317 C 
ATOM      4  O   LIG    1       28.356 -20.977   8.091  0.00  0.00    -0.252 OA
ATOM      5  N   LIG    1       27.666 -20.162   6.037  0.00  0.00    -0.199 N 
ATOM      6  C   LIG    1       26.471 -19.961   5.404  0.00  0.00    +0.264 C 
ATOM      7  O   LIG    1       26.294 -19.482   4.291  0.00  0.00    -0.271 OA
ENDROOT
BRANCH   1  10
ATOM      8  O   LIG    1       22.346 -21.688   4.745  0.00  0.00    -0.253 OA
ATOM      9  C   LIG    1       23.245 -20.913   5.081  0.00  0.00    +0.307 C 
ATOM     10  N   LIG    1       24.449 -21.328   5.645  0.00  0.00    -0.235 N 
ATOM     11  N   LIG    1       23.119 -19.563   4.923  0.00  0.00    -0.277 N 
ATOM     12  H   LIG    1       23.840 -18.979   5.293  0.00  0.00    +0.152 HD
BRANCH  10  13
ATOM     13  C   LIG    1       24.703 -22.732   5.870  0.00  0.00    +0.270 C 
BRANCH  13  14
ATOM     14  O   LIG    1       24.761 -23.364   4.602  0.00  0.00    -0.377 OA
ATOM     15  H   LIG    1       24.104 -24.085   4.644  0.00  0.00    +0.211 HD
ENDBRANCH  13  14
ENDBRANCH  10  13
BRANCH  11  16
ATOM     16  C   LIG    1       22.023 -18.808   4.408  0.00  0.00    +0.265 C 
BRANCH  16  17
ATOM     17  O   LIG    1       22.300 -17.476   4.764  0.00  0.00    -0.377 OA
ATOM     18  H   LIG    1       23.106 -17.261   4.265  0.00  0.00    +0.211 HD
ENDBRANCH  16  17
ENDBRANCH  11  16
ENDBRANCH   1  10
BRANCH   2  19
ATOM     19  C   LIG    1       25.559 -21.392   8.675  0.00  0.00    +0.270 C 
BRANCH  19  20
ATOM     20  O   LIG    1       25.929 -20.427   9.639  0.00  0.00    -0.377 OA
ATOM     21  H   LIG    1       26.583 -20.848  10.223  0.00  0.00    +0.211 HD
ENDBRANCH  19  20
ENDBRANCH   2  19
BRANCH   5  22
ATOM     22  C   LIG    1       28.926 -19.767   5.495  0.00  0.00    +0.276 C 
BRANCH  22  23
ATOM     23  O   LIG    1       28.765 -18.470   4.954  0.00  0.00    -0.376 OA
ATOM     24  H   LIG    1       27.946 -18.498   4.435  0.00  0.00    +0.211 HD
ENDBRANCH  22  23
ENDBRANCH   5  22
TORSDOF 9
ENDMDL
