MODEL 1
REMARK VINA RESULT:      -8.1      0.000      0.000
REMARK  Name = *****
REMARK                            x       y       z     vdW  Elec       q    Type
REMARK                         _______ _______ _______ _____ _____    ______ ____
ROOT
ATOM      1  C   LIG    1       29.029 -19.361   5.955  0.00  0.00    +0.149 A 
ATOM      2  C   LIG    1       27.773 -19.989   6.030  0.00  0.00    +0.147 A 
ATOM      3  N   LIG    1       26.619 -19.852   5.292  0.00  0.00    -0.231 NA
ATOM      4  C   LIG    1       25.780 -20.724   5.813  0.00  0.00    +0.203 A 
ATOM      5  N   LIG    1       26.326 -21.393   6.877  0.00  0.00    -0.288 N 
ATOM      6  C   LIG    1       27.610 -20.941   7.026  0.00  0.00    +0.169 A 
ATOM      7  N   LIG    1       28.519 -21.325   7.934  0.00  0.00    -0.198 NA
ATOM      8  C   LIG    1       29.667 -20.636   7.771  0.00  0.00    +0.226 A 
ATOM      9 CL   LIG    1       30.905 -21.004   8.896  0.00  0.00    -0.041 Cl
ATOM     10  N   LIG    1       29.974 -19.690   6.862  0.00  0.00    -0.201 NA
ENDROOT
BRANCH   5  11
ATOM     11  C1* LIG    1       25.714 -22.455   7.662  0.00  0.00    +0.225 C 
ATOM     12  O4* LIG    1       26.200 -23.730   7.178  0.00  0.00    -0.348 OA
ATOM     13  C4* LIG    1       25.075 -24.480   6.690  0.00  0.00    +0.175 C 
ATOM     14  C3* LIG    1       23.952 -23.477   6.463  0.00  0.00    +0.150 C 
ATOM     15  C2* LIG    1       24.193 -22.502   7.588  0.00  0.00    +0.088 C 
BRANCH  14  16
ATOM     16  O3* LIG    1       22.664 -24.057   6.544  0.00  0.00    -0.389 OA
ATOM     17  H3* LIG    1       22.663 -24.616   7.351  0.00  0.00    +0.210 HD
ENDBRANCH  14  16
BRANCH  13  18
ATOM     18  C5* LIG    1       25.436 -25.248   5.422  0.00  0.00    +0.190 C 
BRANCH  18  19
ATOM     19  O5* LIG    1       24.744 -24.703   4.303  0.00  0.00    -0.392 OA
ATOM     20  H5* LIG    1       24.152 -24.011   4.649  0.00  0.00    +0.209 HD
ENDBRANCH  18  19
ENDBRANCH  13  18
ENDBRANCH   5  11
BRANCH   1  21
ATOM     21  N   LIG    1       29.340 -18.407   4.996  0.00  0.00    -0.341 N 
ATOM     22  H   LIG    1       30.188 -18.604   4.478  0.00  0.00    +0.144 HD
ATOM     23  H   LIG    1       28.532 -18.086   4.480  0.00  0.00    +0.144 HD
ENDBRANCH   1  21
TORSDOF 5
ENDMDL
MODEL 2
REMARK VINA RESULT:      -7.7      3.838      6.309
REMARK  Name = *****
REMARK                            x       y       z     vdW  Elec       q    Type
REMARK                         _______ _______ _______ _____ _____    ______ ____
ROOT
ATOM      1  C   LIG    1       23.966 -20.981   6.913  0.00  0.00    +0.149 A 
ATOM      2  C   LIG    1       25.291 -20.761   7.329  0.00  0.00    +0.147 A 
ATOM      3  N   LIG    1       25.893 -20.786   8.567  0.00  0.00    -0.231 NA
ATOM      4  C   LIG    1       27.163 -20.525   8.330  0.00  0.00    +0.203 A 
ATOM      5  N   LIG    1       27.403 -20.296   7.000  0.00  0.00    -0.288 N 
ATOM      6  C   LIG    1       26.213 -20.452   6.340  0.00  0.00    +0.169 A 
ATOM      7  N   LIG    1       25.978 -20.332   5.025  0.00  0.00    -0.198 NA
ATOM      8  C   LIG    1       24.673 -20.544   4.759  0.00  0.00    +0.226 A 
ATOM      9 CL   LIG    1       24.228 -20.383   3.113  0.00  0.00    -0.041 Cl
ATOM     10  N   LIG    1       23.667 -20.847   5.603  0.00  0.00    -0.201 NA
ENDROOT
BRANCH   5  11
ATOM     11  C1* LIG    1       28.684 -20.026   6.366  0.00  0.00    +0.225 C 
ATOM     12  O4* LIG    1       29.659 -20.974   6.866  0.00  0.00    -0.348 OA
ATOM     13  C4* LIG    1       30.694 -20.237   7.537  0.00  0.00    +0.175 C 
ATOM     14  C3* LIG    1       30.120 -18.859   7.839  0.00  0.00    +0.150 C 
ATOM     15  C2* LIG    1       29.242 -18.634   6.633  0.00  0.00    +0.088 C 
BRANCH  14  16
ATOM     16  O3* LIG    1       31.112 -17.857   7.955  0.00  0.00    -0.389 OA
ATOM     17  H3* LIG    1       30.901 -17.352   8.768  0.00  0.00    +0.210 HD
ENDBRANCH  14  16
BRANCH  13  18
ATOM     18  C5* LIG    1       31.157 -20.964   8.796  0.00  0.00    +0.190 C 
BRANCH  18  19
ATOM     19  O5* LIG    1       32.292 -20.310   9.353  0.00  0.00    -0.392 OA
ATOM     20  H5* LIG    1       32.153 -20.278  10.317  0.00  0.00    +0.209 HD
ENDBRANCH  18  19
ENDBRANCH  13  18
ENDBRANCH   5  11
BRANCH   1  21
ATOM     21  N   LIG    1       22.945 -21.319   7.790  0.00  0.00    -0.341 N 
ATOM     22  H   LIG    1       22.292 -20.566   7.973  0.00  0.00    +0.144 HD
ATOM     23  H   LIG    1       22.570 -22.243   7.624  0.00  0.00    +0.144 HD
ENDBRANCH   1  21
TORSDOF 5
ENDMDL
MODEL 3
REMARK VINA RESULT:      -7.1      4.011      6.097
REMARK  Name = *****
REMARK                            x       y       z     vdW  Elec       q    Type
REMARK                         _______ _______ _______ _____ _____    ______ ____
ROOT
ATOM      1  C   LIG    1       25.727 -20.101   4.765  0.00  0.00    +0.149 A 
ATOM      2  C   LIG    1       26.941 -19.915   5.449  0.00  0.00    +0.147 A 
ATOM      3  N   LIG    1       28.154 -19.389   5.065  0.00  0.00    -0.231 NA
ATOM      4  C   LIG    1       28.908 -19.455   6.144  0.00  0.00    +0.203 A 
ATOM      5  N   LIG    1       28.250 -20.033   7.198  0.00  0.00    -0.288 N 
ATOM      6  C   LIG    1       26.981 -20.327   6.773  0.00  0.00    +0.169 A 
ATOM      7  N   LIG    1       25.987 -20.892   7.475  0.00  0.00    -0.198 NA
ATOM      8  C   LIG    1       24.890 -21.035   6.704  0.00  0.00    +0.226 A 
ATOM      9 CL   LIG    1       23.553 -21.782   7.469  0.00  0.00    -0.041 Cl
ATOM     10  N   LIG    1       24.700 -20.690   5.415  0.00  0.00    -0.201 NA
ENDROOT
BRANCH   5  11
ATOM     11  C1* LIG    1       28.747 -20.227   8.551  0.00  0.00    +0.225 C 
ATOM     12  O4* LIG    1       29.302 -18.976   9.027  0.00  0.00    -0.348 OA
ATOM     13  C4* LIG    1       30.698 -19.182   9.297  0.00  0.00    +0.175 C 
ATOM     14  C3* LIG    1       31.100 -20.451   8.557  0.00  0.00    +0.150 C 
ATOM     15  C2* LIG    1       29.844 -21.276   8.679  0.00  0.00    +0.088 C 
BRANCH  14  16
ATOM     16  O3* LIG    1       32.212 -21.105   9.139  0.00  0.00    -0.389 OA
ATOM     17  H3* LIG    1       32.087 -21.051  10.110  0.00  0.00    +0.210 HD
ENDBRANCH  14  16
BRANCH  13  18
ATOM     18  C5* LIG    1       31.524 -17.972   8.871  0.00  0.00    +0.190 C 
BRANCH  18  19
ATOM     19  O5* LIG    1       32.299 -18.287   7.719  0.00  0.00    -0.392 OA
ATOM     20  H5* LIG    1       32.750 -19.131   7.906  0.00  0.00    +0.209 HD
ENDBRANCH  18  19
ENDBRANCH  13  18
ENDBRANCH   5  11
BRANCH   1  21
ATOM     21  N   LIG    1       25.537 -19.716   3.445  0.00  0.00    -0.341 N 
ATOM     22  H   LIG    1       26.302 -19.965   2.829  0.00  0.00    +0.144 HD
ATOM     23  H   LIG    1       24.593 -19.874   3.119  0.00  0.00    +0.144 HD
ENDBRANCH   1  21
TORSDOF 5
ENDMDL
MODEL 4
REMARK VINA RESULT:      -7.1      3.984      6.667
REMARK  Name = *****
REMARK                            x       y       z     vdW  Elec       q    Type
REMARK                         _______ _______ _______ _____ _____    ______ ____
ROOT
ATOM      1  C   LIG    1       26.566 -20.202   5.384  0.00  0.00    +0.149 A 
ATOM      2  C   LIG    1       27.832 -19.683   5.708  0.00  0.00    +0.147 A 
ATOM      3  N   LIG    1       28.594 -18.679   5.155  0.00  0.00    -0.231 NA
ATOM      4  C   LIG    1       29.680 -18.629   5.901  0.00  0.00    +0.203 A 
ATOM      5  N   LIG    1       29.670 -19.579   6.889  0.00  0.00    -0.288 N 
ATOM      6  C   LIG    1       28.486 -20.260   6.786  0.00  0.00    +0.169 A 
ATOM      7  N   LIG    1       28.046 -21.269   7.553  0.00  0.00    -0.198 NA
ATOM      8  C   LIG    1       26.838 -21.690   7.128  0.00  0.00    +0.226 A 
ATOM      9 CL   LIG    1       26.176 -23.006   8.001  0.00  0.00    -0.041 Cl
ATOM     10  N   LIG    1       26.085 -21.236   6.106  0.00  0.00    -0.201 NA
ENDROOT
BRANCH   5  11
ATOM     11  C1* LIG    1       30.672 -19.789   7.923  0.00  0.00    +0.225 C 
ATOM     12  O4* LIG    1       30.073 -19.516   9.213  0.00  0.00    -0.348 OA
ATOM     13  C4* LIG    1       30.783 -18.420   9.811  0.00  0.00    +0.175 C 
ATOM     14  C3* LIG    1       31.537 -17.725   8.684  0.00  0.00    +0.150 C 
ATOM     15  C2* LIG    1       31.900 -18.896   7.806  0.00  0.00    +0.088 C 
BRANCH  14  16
ATOM     16  O3* LIG    1       32.688 -17.033   9.131  0.00  0.00    -0.389 OA
ATOM     17  H3* LIG    1       32.575 -16.100   8.851  0.00  0.00    +0.210 HD
ENDBRANCH  14  16
BRANCH  13  18
ATOM     18  C5* LIG    1       29.828 -17.479  10.539  0.00  0.00    +0.190 C 
BRANCH  18  19
ATOM     19  O5* LIG    1       30.537 -16.352  11.045  0.00  0.00    -0.392 OA
ATOM     20  H5* LIG    1       31.471 -16.619  11.120  0.00  0.00    +0.209 HD
ENDBRANCH  18  19
ENDBRANCH  13  18
ENDBRANCH   5  11
BRANCH   1  21
ATOM     21  N   LIG    1       25.789 -19.707   4.345  0.00  0.00    -0.341 N 
ATOM     22  H   LIG    1       24.793 -19.727   4.530  0.00  0.00    +0.144 HD
ATOM     23  H   LIG    1       26.178 -18.874   3.923  0.00  0.00    +0.144 HD
ENDBRANCH   1  21
TORSDOF 5
ENDMDL
MODEL 5
REMARK VINA RESULT:      -6.8      3.661      6.217
REMARK  Name = *****
REMARK                            x       y       z     vdW  Elec       q    Type
REMARK                         _______ _______ _______ _____ _____    ______ ____
ROOT
ATOM      1  C   LIG    1       23.913 -22.435   7.406  0.00  0.00    +0.149 A 
ATOM      2  C   LIG    1       25.054 -21.681   7.732  0.00  0.00    +0.147 A 
ATOM      3  N   LIG    1       25.232 -20.539   8.482  0.00  0.00    -0.231 NA
ATOM      4  C   LIG    1       26.530 -20.315   8.452  0.00  0.00    +0.203 A 
ATOM      5  N   LIG    1       27.195 -21.237   7.688  0.00  0.00    -0.288 N 
ATOM      6  C   LIG    1       26.265 -22.129   7.225  0.00  0.00    +0.169 A 
ATOM      7  N   LIG    1       26.467 -23.203   6.447  0.00  0.00    -0.198 NA
ATOM      8  C   LIG    1       25.298 -23.823   6.189  0.00  0.00    +0.226 A 
ATOM      9 CL   LIG    1       25.410 -25.195   5.170  0.00  0.00    -0.041 Cl
ATOM     10  N   LIG    1       24.054 -23.511   6.604  0.00  0.00    -0.201 NA
ENDROOT
BRANCH   5  11
ATOM     11  C1* LIG    1       28.630 -21.332   7.466  0.00  0.00    +0.225 C 
ATOM     12  O4* LIG    1       29.315 -20.755   8.604  0.00  0.00    -0.348 OA
ATOM     13  C4* LIG    1       30.085 -19.635   8.140  0.00  0.00    +0.175 C 
ATOM     14  C3* LIG    1       29.514 -19.249   6.781  0.00  0.00    +0.150 C 
ATOM     15  C2* LIG    1       29.130 -20.599   6.228  0.00  0.00    +0.088 C 
BRANCH  14  16
ATOM     16  O3* LIG    1       30.452 -18.593   5.950  0.00  0.00    -0.389 OA
ATOM     17  H3* LIG    1       31.338 -18.800   6.316  0.00  0.00    +0.210 HD
ENDBRANCH  14  16
BRANCH  13  18
ATOM     18  C5* LIG    1       30.036 -18.483   9.140  0.00  0.00    +0.190 C 
BRANCH  18  19
ATOM     19  O5* LIG    1       30.778 -18.815  10.309  0.00  0.00    -0.392 OA
ATOM     20  H5* LIG    1       30.937 -17.980  10.786  0.00  0.00    +0.209 HD
ENDBRANCH  18  19
ENDBRANCH  13  18
ENDBRANCH   5  11
BRANCH   1  21
ATOM     21  N   LIG    1       22.641 -22.116   7.863  0.00  0.00    -0.341 N 
ATOM     22  H   LIG    1       22.121 -21.506   7.244  0.00  0.00    +0.144 HD
ATOM     23  H   LIG    1       22.157 -22.907   8.268  0.00  0.00    +0.144 HD
ENDBRANCH   1  21
TORSDOF 5
ENDMDL
MODEL 6
REMARK VINA RESULT:      -6.6      2.021      2.978
REMARK  Name = *****
REMARK                            x       y       z     vdW  Elec       q    Type
REMARK                         _______ _______ _______ _____ _____    ______ ____
ROOT
ATOM      1  C   LIG    1       29.652 -20.913   7.787  0.00  0.00    +0.149 A 
ATOM      2  C   LIG    1       28.288 -21.214   7.949  0.00  0.00    +0.147 A 
ATOM      3  N   LIG    1       27.623 -22.115   8.750  0.00  0.00    -0.231 NA
ATOM      4  C   LIG    1       26.346 -21.924   8.486  0.00  0.00    +0.203 A 
ATOM      5  N   LIG    1       26.157 -20.966   7.524  0.00  0.00    -0.288 N 
ATOM      6  C   LIG    1       27.393 -20.492   7.174  0.00  0.00    +0.169 A 
ATOM      7  N   LIG    1       27.687 -19.539   6.276  0.00  0.00    -0.198 NA
ATOM      8  C   LIG    1       29.021 -19.362   6.198  0.00  0.00    +0.226 A 
ATOM      9 CL   LIG    1       29.537 -18.194   5.056  0.00  0.00    -0.041 Cl
ATOM     10  N   LIG    1       30.007 -19.981   6.877  0.00  0.00    -0.201 NA
ENDROOT
BRANCH   5  11
ATOM     11  C1* LIG    1       24.890 -20.461   7.016  0.00  0.00    +0.225 C 
ATOM     12  O4* LIG    1       23.820 -21.291   7.529  0.00  0.00    -0.348 OA
ATOM     13  C4* LIG    1       23.155 -21.902   6.412  0.00  0.00    +0.175 C 
ATOM     14  C3* LIG    1       24.110 -21.797   5.229  0.00  0.00    +0.150 C 
ATOM     15  C2* LIG    1       24.768 -20.467   5.498  0.00  0.00    +0.088 C 
BRANCH  14  16
ATOM     16  O3* LIG    1       23.447 -21.806   3.979  0.00  0.00    -0.389 OA
ATOM     17  H3* LIG    1       24.016 -22.322   3.368  0.00  0.00    +0.210 HD
ENDBRANCH  14  16
BRANCH  13  18
ATOM     18  C5* LIG    1       22.771 -23.345   6.724  0.00  0.00    +0.190 C 
BRANCH  18  19
ATOM     19  O5* LIG    1       23.526 -24.241   5.914  0.00  0.00    -0.392 OA
ATOM     20  H5* LIG    1       24.262 -23.726   5.536  0.00  0.00    +0.209 HD
ENDBRANCH  18  19
ENDBRANCH  13  18
ENDBRANCH   5  11
BRANCH   1  21
ATOM     21  N   LIG    1       30.655 -21.541   8.512  0.00  0.00    -0.341 N 
ATOM     22  H   LIG    1       30.314 -22.171   9.229  0.00  0.00    +0.144 HD
ATOM     23  H   LIG    1       31.426 -21.851   7.935  0.00  0.00    +0.144 HD
ENDBRANCH   1  21
TORSDOF 5
ENDMDL
MODEL 7
REMARK VINA RESULT:      -6.3      3.823      5.129
REMARK  Name = *****
REMARK                            x       y       z     vdW  Elec       q    Type
REMARK                         _______ _______ _______ _____ _____    ______ ____
ROOT
ATOM      1  C   LIG    1       24.852 -21.135   7.625  0.00  0.00    +0.149 A 
ATOM      2  C   LIG    1       25.179 -22.473   7.346  0.00  0.00    +0.147 A 
ATOM      3  N   LIG    1       26.098 -23.339   7.894  0.00  0.00    -0.231 NA
ATOM      4  C   LIG    1       25.930 -24.470   7.237  0.00  0.00    +0.203 A 
ATOM      5  N   LIG    1       24.971 -24.362   6.264  0.00  0.00    -0.288 N 
ATOM      6  C   LIG    1       24.471 -23.089   6.325  0.00  0.00    +0.169 A 
ATOM      7  N   LIG    1       23.508 -22.544   5.566  0.00  0.00    -0.198 NA
ATOM      8  C   LIG    1       23.304 -21.258   5.917  0.00  0.00    +0.226 A 
ATOM      9 CL   LIG    1       22.121 -20.430   4.997  0.00  0.00    -0.041 Cl
ATOM     10  N   LIG    1       23.908 -20.527   6.875  0.00  0.00    -0.201 NA
ENDROOT
BRANCH   5  11
ATOM     11  C1* LIG    1       24.489 -25.412   5.379  0.00  0.00    +0.225 C 
ATOM     12  O4* LIG    1       23.859 -26.442   6.179  0.00  0.00    -0.348 OA
ATOM     13  C4* LIG    1       24.589 -27.664   5.987  0.00  0.00    +0.175 C 
ATOM     14  C3* LIG    1       25.945 -27.274   5.413  0.00  0.00    +0.150 C 
ATOM     15  C2* LIG    1       25.573 -26.092   4.553  0.00  0.00    +0.088 C 
BRANCH  14  16
ATOM     16  O3* LIG    1       26.543 -28.305   4.651  0.00  0.00    -0.389 OA
ATOM     17  H3* LIG    1       26.399 -29.137   5.149  0.00  0.00    +0.210 HD
ENDBRANCH  14  16
BRANCH  13  18
ATOM     18  C5* LIG    1       24.712 -28.441   7.295  0.00  0.00    +0.190 C 
BRANCH  18  19
ATOM     19  O5* LIG    1       26.035 -28.331   7.810  0.00  0.00    -0.392 OA
ATOM     20  H5* LIG    1       26.076 -27.489   8.298  0.00  0.00    +0.209 HD
ENDBRANCH  18  19
ENDBRANCH  13  18
ENDBRANCH   5  11
BRANCH   1  21
ATOM     21  N   LIG    1       25.463 -20.402   8.633  0.00  0.00    -0.341 N 
ATOM     22  H   LIG    1       25.924 -19.560   8.309  0.00  0.00    +0.144 HD
ATOM     23  H   LIG    1       24.905 -20.344   9.475  0.00  0.00    +0.144 HD
ENDBRANCH   1  21
TORSDOF 5
ENDMDL
MODEL 8
REMARK VINA RESULT:      -6.3      2.965      3.961
REMARK  Name = *****
REMARK                            x       y       z     vdW  Elec       q    Type
REMARK                         _______ _______ _______ _____ _____    ______ ____
ROOT
ATOM      1  C   LIG    1       25.295 -18.859   3.878  0.00  0.00    +0.149 A 
ATOM      2  C   LIG    1       25.852 -19.733   4.829  0.00  0.00    +0.147 A 
ATOM      3  N   LIG    1       27.150 -19.987   5.209  0.00  0.00    -0.231 NA
ATOM      4  C   LIG    1       27.052 -20.890   6.165  0.00  0.00    +0.203 A 
ATOM      5  N   LIG    1       25.751 -21.257   6.394  0.00  0.00    -0.288 N 
ATOM      6  C   LIG    1       24.965 -20.518   5.551  0.00  0.00    +0.169 A 
ATOM      7  N   LIG    1       23.629 -20.541   5.437  0.00  0.00    -0.198 NA
ATOM      8  C   LIG    1       23.223 -19.680   4.482  0.00  0.00    +0.226 A 
ATOM      9 CL   LIG    1       21.534 -19.638   4.208  0.00  0.00    -0.041 Cl
ATOM     10  N   LIG    1       23.956 -18.860   3.703  0.00  0.00    -0.201 NA
ENDROOT
BRANCH   5  11
ATOM     11  C1* LIG    1       25.259 -22.187   7.399  0.00  0.00    +0.225 C 
ATOM     12  O4* LIG    1       26.139 -23.337   7.439  0.00  0.00    -0.348 OA
ATOM     13  C4* LIG    1       25.371 -24.498   7.085  0.00  0.00    +0.175 C 
ATOM     14  C3* LIG    1       24.115 -23.991   6.387  0.00  0.00    +0.150 C 
ATOM     15  C2* LIG    1       23.853 -22.713   7.142  0.00  0.00    +0.088 C 
BRANCH  14  16
ATOM     16  O3* LIG    1       23.025 -24.887   6.485  0.00  0.00    -0.389 OA
ATOM     17  H3* LIG    1       23.297 -25.706   6.020  0.00  0.00    +0.210 HD
ENDBRANCH  14  16
BRANCH  13  18
ATOM     18  C5* LIG    1       26.183 -25.446   6.207  0.00  0.00    +0.190 C 
BRANCH  18  19
ATOM     19  O5* LIG    1       25.616 -25.516   4.902  0.00  0.00    -0.392 OA
ATOM     20  H5* LIG    1       25.821 -26.402   4.554  0.00  0.00    +0.209 HD
ENDBRANCH  18  19
ENDBRANCH  13  18
ENDBRANCH   5  11
BRANCH   1  21
ATOM     21  N   LIG    1       26.060 -18.001   3.101  0.00  0.00    -0.341 N 
ATOM     22  H   LIG    1       26.475 -17.235   3.619  0.00  0.00    +0.144 HD
ATOM     23  H   LIG    1       26.637 -18.486   2.427  0.00  0.00    +0.144 HD
ENDBRANCH   1  21
TORSDOF 5
ENDMDL
MODEL 9
REMARK VINA RESULT:      -6.2      5.607      7.927
REMARK  Name = *****
REMARK                            x       y       z     vdW  Elec       q    Type
REMARK                         _______ _______ _______ _____ _____    ______ ____
ROOT
ATOM      1  C   LIG    1       24.434 -30.347   8.963  0.00  0.00    +0.149 A 
ATOM      2  C   LIG    1       24.524 -29.532   7.821  0.00  0.00    +0.147 A 
ATOM      3  N   LIG    1       23.807 -29.497   6.646  0.00  0.00    -0.231 NA
ATOM      4  C   LIG    1       24.332 -28.501   5.960  0.00  0.00    +0.203 A 
ATOM      5  N   LIG    1       25.379 -27.915   6.622  0.00  0.00    -0.288 N 
ATOM      6  C   LIG    1       25.511 -28.558   7.824  0.00  0.00    +0.169 A 
ATOM      7  N   LIG    1       26.400 -28.312   8.798  0.00  0.00    -0.198 NA
ATOM      8  C   LIG    1       26.225 -29.171   9.823  0.00  0.00    +0.226 A 
ATOM      9 CL   LIG    1       27.325 -28.988  11.122  0.00  0.00    -0.041 Cl
ATOM     10  N   LIG    1       25.321 -30.160   9.964  0.00  0.00    -0.201 NA
ENDROOT
BRANCH   5  11
ATOM     11  C1* LIG    1       26.163 -26.766   6.195  0.00  0.00    +0.225 C 
ATOM     12  O4* LIG    1       25.863 -25.649   7.066  0.00  0.00    -0.348 OA
ATOM     13  C4* LIG    1       25.294 -24.600   6.267  0.00  0.00    +0.175 C 
ATOM     14  C3* LIG    1       24.828 -25.248   4.969  0.00  0.00    +0.150 C 
ATOM     15  C2* LIG    1       25.886 -26.305   4.770  0.00  0.00    +0.088 C 
BRANCH  14  16
ATOM     16  O3* LIG    1       24.784 -24.344   3.882  0.00  0.00    -0.389 OA
ATOM     17  H3* LIG    1       24.003 -24.596   3.344  0.00  0.00    +0.210 HD
ENDBRANCH  14  16
BRANCH  13  18
ATOM     18  C5* LIG    1       24.159 -23.900   7.008  0.00  0.00    +0.190 C 
BRANCH  18  19
ATOM     19  O5* LIG    1       22.902 -24.299   6.473  0.00  0.00    -0.392 OA
ATOM     20  H5* LIG    1       22.632 -23.606   5.843  0.00  0.00    +0.209 HD
ENDBRANCH  18  19
ENDBRANCH  13  18
ENDBRANCH   5  11
BRANCH   1  21
ATOM     21  N   LIG    1       23.480 -31.345   9.107  0.00  0.00    -0.341 N 
ATOM     22  H   LIG    1       22.928 -31.510   8.274  0.00  0.00    +0.144 HD
ATOM     23  H   LIG    1       23.822 -32.148   9.617  0.00  0.00    +0.144 HD
ENDBRANCH   1  21
TORSDOF 5
ENDMDL
