MODEL 1
REMARK VINA RESULT:      -5.5      0.000      0.000
REMARK  Name = *****
REMARK                            x       y       z     vdW  Elec       q    Type
REMARK                         _______ _______ _______ _____ _____    ______ ____
ROOT
ATOM      1  N   LIG    1       24.216 -17.361   3.858  0.00  0.00    -0.297 N 
ATOM      2  C   LIG    1       25.459 -16.897   3.414  0.00  0.00    +0.226 C 
ATOM      3  O   LIG    1       26.311 -17.803   3.061  0.00  0.00    -0.275 OA
ENDROOT
BRANCH   1   5
ATOM      4  C   LIG    1       22.312 -16.143   5.264  0.00  0.00    +0.024 C 
ATOM      5  C   LIG    1       23.098 -16.415   3.990  0.00  0.00    +0.105 C 
ENDBRANCH   1   5
BRANCH   2   6
ATOM      6  C   LIG    1       25.965 -15.385   3.239  0.00  0.00    +0.130 C 
BRANCH   6   7
ATOM      7  C   LIG    1       25.132 -14.062   3.343  0.00  0.00    -0.033 A 
ATOM      8  C   LIG    1       24.867 -13.319   2.165  0.00  0.00    +0.004 A 
ATOM      9  C   LIG    1       24.360 -12.006   2.215  0.00  0.00    +0.000 A 
ATOM     10  C   LIG    1       23.884 -11.487   3.410  0.00  0.00    +0.000 A 
ATOM     11  C   LIG    1       24.012 -12.244   4.563  0.00  0.00    +0.000 A 
ATOM     12  C   LIG    1       24.767 -13.425   4.542  0.00  0.00    +0.004 A 
ENDBRANCH   6   7
BRANCH   6  13
ATOM     13  C   LIG    1       27.281 -15.178   4.062  0.00  0.00    +0.173 C 
BRANCH  13  14
ATOM     14  O   LIG    1       28.166 -14.158   3.589  0.00  0.00    -0.394 OA
ATOM     15  H   LIG    1       28.762 -14.551   2.921  0.00  0.00    +0.209 HD
ENDBRANCH  13  14
ENDBRANCH   6  13
ENDBRANCH   2   6
BRANCH   1  16
ATOM     16  C   LIG    1       23.942 -18.790   3.642  0.00  0.00    +0.143 C 
BRANCH  16  17
ATOM     17  C   LIG    1       24.068 -19.764   4.795  0.00  0.00    -0.027 A 
ATOM     18  C   LIG    1       25.270 -20.434   5.047  0.00  0.00    +0.025 A 
ATOM     19  C   LIG    1       25.361 -21.278   6.144  0.00  0.00    +0.111 A 
ATOM     20  N   LIG    1       24.328 -21.545   6.967  0.00  0.00    -0.263 NA
ATOM     21  C   LIG    1       23.156 -20.942   6.678  0.00  0.00    +0.111 A 
ATOM     22  C   LIG    1       22.980 -20.053   5.626  0.00  0.00    +0.025 A 
ENDBRANCH  16  17
ENDBRANCH   1  16
TORSDOF 7
ENDMDL
MODEL 2
REMARK VINA RESULT:      -4.3      1.758      2.376
REMARK  Name = *****
REMARK                            x       y       z     vdW  Elec       q    Type
REMARK                         _______ _______ _______ _____ _____    ______ ____
ROOT
ATOM      1  N   LIG    1       23.637 -16.941   4.129  0.00  0.00    -0.297 N 
ATOM      2  C   LIG    1       24.732 -16.166   3.729  0.00  0.00    +0.226 C 
ATOM      3  O   LIG    1       25.700 -16.804   3.157  0.00  0.00    -0.275 OA
ENDROOT
BRANCH   1   5
ATOM      4  C   LIG    1       22.111 -15.578   5.832  0.00  0.00    +0.024 C 
ATOM      5  C   LIG    1       22.381 -16.274   4.507  0.00  0.00    +0.105 C 
ENDBRANCH   1   5
BRANCH   2   6
ATOM      6  C   LIG    1       24.938 -14.579   3.841  0.00  0.00    +0.130 C 
BRANCH   6   7
ATOM      7  C   LIG    1       26.267 -13.786   4.082  0.00  0.00    -0.033 A 
ATOM      8  C   LIG    1       27.083 -13.453   2.971  0.00  0.00    +0.004 A 
ATOM      9  C   LIG    1       28.399 -12.980   3.133  0.00  0.00    +0.000 A 
ATOM     10  C   LIG    1       28.856 -12.603   4.388  0.00  0.00    +0.000 A 
ATOM     11  C   LIG    1       28.030 -12.797   5.482  0.00  0.00    +0.000 A 
ATOM     12  C   LIG    1       26.839 -13.522   5.339  0.00  0.00    +0.004 A 
ENDBRANCH   6   7
BRANCH   6  13
ATOM     13  C   LIG    1       24.173 -13.872   2.672  0.00  0.00    +0.173 C 
BRANCH  13  14
ATOM     14  O   LIG    1       23.805 -12.508   2.896  0.00  0.00    -0.394 OA
ATOM     15  H   LIG    1       22.829 -12.442   2.872  0.00  0.00    +0.209 HD
ENDBRANCH  13  14
ENDBRANCH   6  13
ENDBRANCH   2   6
BRANCH   1  16
ATOM     16  C   LIG    1       23.610 -18.327   3.640  0.00  0.00    +0.143 C 
BRANCH  16  17
ATOM     17  C   LIG    1       23.846 -19.471   4.604  0.00  0.00    -0.027 A 
ATOM     18  C   LIG    1       25.100 -20.083   4.705  0.00  0.00    +0.025 A 
ATOM     19  C   LIG    1       25.290 -21.093   5.637  0.00  0.00    +0.111 A 
ATOM     20  N   LIG    1       24.311 -21.572   6.428  0.00  0.00    -0.263 NA
ATOM     21  C   LIG    1       23.090 -21.017   6.278  0.00  0.00    +0.111 A 
ATOM     22  C   LIG    1       22.813 -19.978   5.400  0.00  0.00    +0.025 A 
ENDBRANCH  16  17
ENDBRANCH   1  16
TORSDOF 7
ENDMDL
MODEL 3
REMARK VINA RESULT:      -4.2      2.608      7.177
REMARK  Name = *****
REMARK                            x       y       z     vdW  Elec       q    Type
REMARK                         _______ _______ _______ _____ _____    ______ ____
ROOT
ATOM      1  N   LIG    1       24.605 -16.287   3.882  0.00  0.00    -0.297 N 
ATOM      2  C   LIG    1       23.355 -16.849   4.166  0.00  0.00    +0.226 C 
ATOM      3  O   LIG    1       22.416 -16.017   4.475  0.00  0.00    -0.275 OA
ENDROOT
BRANCH   1   5
ATOM      4  C   LIG    1       27.043 -17.350   3.769  0.00  0.00    +0.024 C 
ATOM      5  C   LIG    1       25.638 -17.113   3.237  0.00  0.00    +0.105 C 
ENDBRANCH   1   5
BRANCH   2   6
ATOM      6  C   LIG    1       22.909 -18.389   4.118  0.00  0.00    +0.130 C 
BRANCH   6   7
ATOM      7  C   LIG    1       23.480 -19.593   4.944  0.00  0.00    -0.033 A 
ATOM      8  C   LIG    1       22.820 -19.986   6.136  0.00  0.00    +0.004 A 
ATOM      9  C   LIG    1       23.415 -20.873   7.053  0.00  0.00    +0.000 A 
ATOM     10  C   LIG    1       24.562 -21.571   6.707  0.00  0.00    +0.000 A 
ATOM     11  C   LIG    1       25.162 -21.301   5.488  0.00  0.00    +0.000 A 
ATOM     12  C   LIG    1       24.716 -20.222   4.713  0.00  0.00    +0.004 A 
ENDBRANCH   6   7
BRANCH   6  13
ATOM     13  C   LIG    1       21.347 -18.480   4.173  0.00  0.00    +0.173 C 
BRANCH  13  14
ATOM     14  O   LIG    1       20.653 -18.121   2.975  0.00  0.00    -0.394 OA
ATOM     15  H   LIG    1       20.809 -17.171   2.800  0.00  0.00    +0.209 HD
ENDBRANCH  13  14
ENDBRANCH   6  13
ENDBRANCH   2   6
BRANCH   1  16
ATOM     16  C   LIG    1       24.640 -14.825   3.731  0.00  0.00    +0.143 C 
BRANCH  16  17
ATOM     17  C   LIG    1       25.956 -14.086   3.857  0.00  0.00    -0.027 A 
ATOM     18  C   LIG    1       26.431 -13.662   5.102  0.00  0.00    +0.025 A 
ATOM     19  C   LIG    1       27.665 -13.035   5.182  0.00  0.00    +0.111 A 
ATOM     20  N   LIG    1       28.427 -12.749   4.108  0.00  0.00    -0.263 NA
ATOM     21  C   LIG    1       27.930 -13.105   2.905  0.00  0.00    +0.111 A 
ATOM     22  C   LIG    1       26.724 -13.770   2.730  0.00  0.00    +0.025 A 
ENDBRANCH  16  17
ENDBRANCH   1  16
TORSDOF 7
ENDMDL
MODEL 4
REMARK VINA RESULT:      -3.7      2.391      7.164
REMARK  Name = *****
REMARK                            x       y       z     vdW  Elec       q    Type
REMARK                         _______ _______ _______ _____ _____    ______ ____
ROOT
ATOM      1  N   LIG    1       24.558 -16.876   3.838  0.00  0.00    -0.297 N 
ATOM      2  C   LIG    1       24.166 -18.199   4.072  0.00  0.00    +0.226 C 
ATOM      3  O   LIG    1       22.929 -18.375   4.400  0.00  0.00    -0.275 OA
ENDROOT
BRANCH   1   5
ATOM      4  C   LIG    1       26.900 -15.624   3.653  0.00  0.00    +0.024 C 
ATOM      5  C   LIG    1       25.845 -16.611   3.176  0.00  0.00    +0.105 C 
ENDBRANCH   1   5
BRANCH   2   6
ATOM      6  C   LIG    1       25.034 -19.543   3.947  0.00  0.00    +0.130 C 
BRANCH   6   7
ATOM      7  C   LIG    1       26.078 -20.124   4.960  0.00  0.00    -0.033 A 
ATOM      8  C   LIG    1       25.663 -21.111   5.890  0.00  0.00    +0.004 A 
ATOM      9  C   LIG    1       26.466 -21.481   6.985  0.00  0.00    +0.000 A 
ATOM     10  C   LIG    1       27.787 -21.063   7.056  0.00  0.00    +0.000 A 
ATOM     11  C   LIG    1       28.263 -20.196   6.086  0.00  0.00    +0.000 A 
ATOM     12  C   LIG    1       27.375 -19.621   5.166  0.00  0.00    +0.004 A 
ENDBRANCH   6   7
BRANCH   6  13
ATOM     13  C   LIG    1       24.104 -20.722   3.502  0.00  0.00    +0.173 C 
BRANCH  13  14
ATOM     14  O   LIG    1       23.051 -21.068   4.405  0.00  0.00    -0.394 OA
ATOM     15  H   LIG    1       23.061 -22.038   4.536  0.00  0.00    +0.209 HD
ENDBRANCH  13  14
ENDBRANCH   6  13
ENDBRANCH   2   6
BRANCH   1  16
ATOM     16  C   LIG    1       23.475 -15.885   3.754  0.00  0.00    +0.143 C 
BRANCH  16  17
ATOM     17  C   LIG    1       23.800 -14.407   3.815  0.00  0.00    -0.027 A 
ATOM     18  C   LIG    1       23.866 -13.633   2.651  0.00  0.00    +0.025 A 
ATOM     19  C   LIG    1       24.116 -12.273   2.753  0.00  0.00    +0.111 A 
ATOM     20  N   LIG    1       24.361 -11.644   3.919  0.00  0.00    -0.263 NA
ATOM     21  C   LIG    1       24.358 -12.412   5.029  0.00  0.00    +0.111 A 
ATOM     22  C   LIG    1       24.082 -13.773   5.030  0.00  0.00    +0.025 A 
ENDBRANCH  16  17
ENDBRANCH   1  16
TORSDOF 7
ENDMDL
MODEL 5
REMARK VINA RESULT:      -3.6      1.928      3.020
REMARK  Name = *****
REMARK                            x       y       z     vdW  Elec       q    Type
REMARK                         _______ _______ _______ _____ _____    ______ ____
ROOT
ATOM      1  N   LIG    1       25.209 -17.505   3.318  0.00  0.00    -0.297 N 
ATOM      2  C   LIG    1       24.401 -16.487   3.837  0.00  0.00    +0.226 C 
ATOM      3  O   LIG    1       23.168 -16.801   4.064  0.00  0.00    -0.275 OA
ENDROOT
BRANCH   1   5
ATOM      4  C   LIG    1       27.610 -17.711   4.448  0.00  0.00    +0.024 C 
ATOM      5  C   LIG    1       26.670 -17.335   3.313  0.00  0.00    +0.105 C 
ENDBRANCH   1   5
BRANCH   2   6
ATOM      6  C   LIG    1       24.804 -14.987   4.236  0.00  0.00    +0.130 C 
BRANCH   6   7
ATOM      7  C   LIG    1       26.210 -14.302   4.150  0.00  0.00    -0.033 A 
ATOM      8  C   LIG    1       26.796 -13.779   5.332  0.00  0.00    +0.004 A 
ATOM      9  C   LIG    1       27.919 -12.931   5.289  0.00  0.00    +0.000 A 
ATOM     10  C   LIG    1       28.628 -12.769   4.107  0.00  0.00    +0.000 A 
ATOM     11  C   LIG    1       28.150 -13.375   2.957  0.00  0.00    +0.000 A 
ATOM     12  C   LIG    1       26.887 -13.982   2.960  0.00  0.00    +0.004 A 
ENDBRANCH   6   7
BRANCH   6  13
ATOM     13  C   LIG    1       23.758 -13.990   3.632  0.00  0.00    +0.173 C 
BRANCH  13  14
ATOM     14  O   LIG    1       23.844 -12.636   4.086  0.00  0.00    -0.394 OA
ATOM     15  H   LIG    1       22.993 -12.394   4.501  0.00  0.00    +0.209 HD
ENDBRANCH  13  14
ENDBRANCH   6  13
ENDBRANCH   2   6
BRANCH   1  16
ATOM     16  C   LIG    1       24.630 -18.857   3.321  0.00  0.00    +0.143 C 
BRANCH  16  17
ATOM     17  C   LIG    1       24.532 -19.631   4.619  0.00  0.00    -0.027 A 
ATOM     18  C   LIG    1       25.663 -20.211   5.203  0.00  0.00    +0.025 A 
ATOM     19  C   LIG    1       25.541 -20.867   6.418  0.00  0.00    +0.111 A 
ATOM     20  N   LIG    1       24.368 -21.036   7.060  0.00  0.00    -0.263 NA
ATOM     21  C   LIG    1       23.273 -20.528   6.457  0.00  0.00    +0.111 A 
ATOM     22  C   LIG    1       23.303 -19.824   5.260  0.00  0.00    +0.025 A 
ENDBRANCH  16  17
ENDBRANCH   1  16
TORSDOF 7
ENDMDL
MODEL 6
REMARK VINA RESULT:      -3.4      1.766      7.045
REMARK  Name = *****
REMARK                            x       y       z     vdW  Elec       q    Type
REMARK                         _______ _______ _______ _____ _____    ______ ____
ROOT
ATOM      1  N   LIG    1       25.225 -16.484   3.444  0.00  0.00    -0.297 N 
ATOM      2  C   LIG    1       26.001 -17.634   3.634  0.00  0.00    +0.226 C 
ATOM      3  O   LIG    1       27.274 -17.445   3.760  0.00  0.00    -0.275 OA
ENDROOT
BRANCH   1   5
ATOM      4  C   LIG    1       22.960 -16.034   4.766  0.00  0.00    +0.024 C 
ATOM      5  C   LIG    1       23.764 -16.568   3.591  0.00  0.00    +0.105 C 
ENDBRANCH   1   5
BRANCH   2   6
ATOM      6  C   LIG    1       25.525 -19.160   3.762  0.00  0.00    +0.130 C 
BRANCH   6   7
ATOM      7  C   LIG    1       24.832 -19.864   4.978  0.00  0.00    -0.033 A 
ATOM      8  C   LIG    1       25.614 -20.661   5.852  0.00  0.00    +0.004 A 
ATOM      9  C   LIG    1       25.024 -21.522   6.797  0.00  0.00    +0.000 A 
ATOM     10  C   LIG    1       23.665 -21.443   7.061  0.00  0.00    +0.000 A 
ATOM     11  C   LIG    1       22.890 -20.576   6.308  0.00  0.00    +0.000 A 
ATOM     12  C   LIG    1       23.444 -19.935   5.191  0.00  0.00    +0.004 A 
ENDBRANCH   6   7
BRANCH   6  13
ATOM     13  C   LIG    1       24.740 -19.570   2.471  0.00  0.00    +0.173 C 
BRANCH  13  14
ATOM     14  O   LIG    1       24.142 -20.869   2.484  0.00  0.00    -0.394 OA
ATOM     15  H   LIG    1       23.820 -21.053   3.389  0.00  0.00    +0.209 HD
ENDBRANCH  13  14
ENDBRANCH   6  13
ENDBRANCH   2   6
BRANCH   1  16
ATOM     16  C   LIG    1       25.908 -15.199   3.652  0.00  0.00    +0.143 C 
BRANCH  16  17
ATOM     17  C   LIG    1       25.185 -13.904   3.347  0.00  0.00    -0.027 A 
ATOM     18  C   LIG    1       24.487 -13.214   4.344  0.00  0.00    +0.025 A 
ATOM     19  C   LIG    1       23.881 -12.005   4.037  0.00  0.00    +0.111 A 
ATOM     20  N   LIG    1       23.872 -11.467   2.802  0.00  0.00    -0.263 NA
ATOM     21  C   LIG    1       24.494 -12.172   1.834  0.00  0.00    +0.111 A 
ATOM     22  C   LIG    1       25.159 -13.371   2.053  0.00  0.00    +0.025 A 
ENDBRANCH  16  17
ENDBRANCH   1  16
TORSDOF 7
ENDMDL
MODEL 7
REMARK VINA RESULT:      -3.4      1.486      2.412
REMARK  Name = *****
REMARK                            x       y       z     vdW  Elec       q    Type
REMARK                         _______ _______ _______ _____ _____    ______ ____
ROOT
ATOM      1  N   LIG    1       26.862 -18.449   3.831  0.00  0.00    -0.297 N 
ATOM      2  C   LIG    1       26.170 -17.376   3.257  0.00  0.00    +0.226 C 
ATOM      3  O   LIG    1       25.086 -17.676   2.620  0.00  0.00    -0.275 OA
ENDROOT
BRANCH   1   5
ATOM      4  C   LIG    1       28.724 -19.233   5.564  0.00  0.00    +0.024 C 
ATOM      5  C   LIG    1       27.922 -18.180   4.815  0.00  0.00    +0.105 C 
ENDBRANCH   1   5
BRANCH   2   6
ATOM      6  C   LIG    1       26.512 -15.810   3.317  0.00  0.00    +0.130 C 
BRANCH   6   7
ATOM      7  C   LIG    1       25.519 -14.598   3.341  0.00  0.00    -0.033 A 
ATOM      8  C   LIG    1       25.404 -13.777   2.190  0.00  0.00    +0.004 A 
ATOM      9  C   LIG    1       24.741 -12.536   2.228  0.00  0.00    +0.000 A 
ATOM     10  C   LIG    1       23.976 -12.187   3.332  0.00  0.00    +0.000 A 
ATOM     11  C   LIG    1       23.964 -13.033   4.428  0.00  0.00    +0.000 A 
ATOM     12  C   LIG    1       24.847 -14.121   4.480  0.00  0.00    +0.004 A 
ENDBRANCH   6   7
BRANCH   6  13
ATOM     13  C   LIG    1       27.591 -15.555   4.423  0.00  0.00    +0.173 C 
BRANCH  13  14
ATOM     14  O   LIG    1       28.385 -14.375   4.268  0.00  0.00    -0.394 OA
ATOM     15  H   LIG    1       29.323 -14.641   4.196  0.00  0.00    +0.209 HD
ENDBRANCH  13  14
ENDBRANCH   6  13
ENDBRANCH   2   6
BRANCH   1  16
ATOM     16  C   LIG    1       26.158 -19.739   3.850  0.00  0.00    +0.143 C 
BRANCH  16  17
ATOM     17  C   LIG    1       25.092 -20.000   4.894  0.00  0.00    -0.027 A 
ATOM     18  C   LIG    1       23.750 -19.686   4.652  0.00  0.00    +0.025 A 
ATOM     19  C   LIG    1       22.797 -19.987   5.612  0.00  0.00    +0.111 A 
ATOM     20  N   LIG    1       23.091 -20.522   6.813  0.00  0.00    -0.263 NA
ATOM     21  C   LIG    1       24.395 -20.762   7.062  0.00  0.00    +0.111 A 
ATOM     22  C   LIG    1       25.416 -20.529   6.149  0.00  0.00    +0.025 A 
ENDBRANCH  16  17
ENDBRANCH   1  16
TORSDOF 7
ENDMDL
MODEL 8
REMARK VINA RESULT:      -2.9      2.206      3.265
REMARK  Name = *****
REMARK                            x       y       z     vdW  Elec       q    Type
REMARK                         _______ _______ _______ _____ _____    ______ ____
ROOT
ATOM      1  N   LIG    1       23.583 -16.356   3.965  0.00  0.00    -0.297 N 
ATOM      2  C   LIG    1       23.409 -15.058   4.459  0.00  0.00    +0.226 C 
ATOM      3  O   LIG    1       22.504 -14.914   5.370  0.00  0.00    -0.275 OA
ENDROOT
BRANCH   1   5
ATOM      4  C   LIG    1       26.189 -16.824   3.695  0.00  0.00    +0.024 C 
ATOM      5  C   LIG    1       24.774 -16.668   3.160  0.00  0.00    +0.105 C 
ENDBRANCH   1   5
BRANCH   2   6
ATOM      6  C   LIG    1       24.211 -13.721   4.081  0.00  0.00    +0.130 C 
BRANCH   6   7
ATOM      7  C   LIG    1       25.756 -13.465   4.134  0.00  0.00    -0.033 A 
ATOM      8  C   LIG    1       26.491 -13.426   2.922  0.00  0.00    +0.004 A 
ATOM      9  C   LIG    1       27.898 -13.463   2.907  0.00  0.00    +0.000 A 
ATOM     10  C   LIG    1       28.613 -13.303   4.085  0.00  0.00    +0.000 A 
ATOM     11  C   LIG    1       27.917 -13.210   5.278  0.00  0.00    +0.000 A 
ATOM     12  C   LIG    1       26.537 -13.453   5.303  0.00  0.00    +0.004 A 
ENDBRANCH   6   7
BRANCH   6  13
ATOM     13  C   LIG    1       23.690 -13.172   2.710  0.00  0.00    +0.173 C 
BRANCH  13  14
ATOM     14  O   LIG    1       23.609 -11.749   2.592  0.00  0.00    -0.394 OA
ATOM     15  H   LIG    1       24.204 -11.464   1.870  0.00  0.00    +0.209 HD
ENDBRANCH  13  14
ENDBRANCH   6  13
ENDBRANCH   2   6
BRANCH   1  16
ATOM     16  C   LIG    1       22.899 -17.428   4.703  0.00  0.00    +0.143 C 
BRANCH  16  17
ATOM     17  C   LIG    1       23.311 -18.870   4.492  0.00  0.00    -0.027 A 
ATOM     18  C   LIG    1       23.005 -19.855   5.436  0.00  0.00    +0.025 A 
ATOM     19  C   LIG    1       23.354 -21.173   5.182  0.00  0.00    +0.111 A 
ATOM     20  N   LIG    1       24.034 -21.566   4.087  0.00  0.00    -0.263 NA
ATOM     21  C   LIG    1       24.380 -20.599   3.214  0.00  0.00    +0.111 A 
ATOM     22  C   LIG    1       24.043 -19.260   3.364  0.00  0.00    +0.025 A 
ENDBRANCH  16  17
ENDBRANCH   1  16
TORSDOF 7
ENDMDL
MODEL 9
REMARK VINA RESULT:      -2.6      2.346      6.460
REMARK  Name = *****
REMARK                            x       y       z     vdW  Elec       q    Type
REMARK                         _______ _______ _______ _____ _____    ______ ____
ROOT
ATOM      1  N   LIG    1       25.255 -16.017   3.361  0.00  0.00    -0.297 N 
ATOM      2  C   LIG    1       25.776 -17.309   3.505  0.00  0.00    +0.226 C 
ATOM      3  O   LIG    1       26.901 -17.536   2.910  0.00  0.00    -0.275 OA
ENDROOT
BRANCH   1   5
ATOM      4  C   LIG    1       23.427 -14.250   4.146  0.00  0.00    +0.024 C 
ATOM      5  C   LIG    1       24.155 -15.582   4.235  0.00  0.00    +0.105 C 
ENDBRANCH   1   5
BRANCH   2   6
ATOM      6  C   LIG    1       25.192 -18.542   4.347  0.00  0.00    +0.130 C 
BRANCH   6   7
ATOM      7  C   LIG    1       23.714 -19.058   4.418  0.00  0.00    -0.033 A 
ATOM      8  C   LIG    1       23.448 -20.308   5.034  0.00  0.00    +0.004 A 
ATOM      9  C   LIG    1       22.201 -20.947   4.903  0.00  0.00    +0.000 A 
ATOM     10  C   LIG    1       21.119 -20.265   4.365  0.00  0.00    +0.000 A 
ATOM     11  C   LIG    1       21.318 -18.987   3.870  0.00  0.00    +0.000 A 
ATOM     12  C   LIG    1       22.619 -18.477   3.755  0.00  0.00    +0.004 A 
ENDBRANCH   6   7
BRANCH   6  13
ATOM     13  C   LIG    1       26.116 -19.791   4.150  0.00  0.00    +0.173 C 
BRANCH  13  14
ATOM     14  O   LIG    1       27.358 -19.772   4.858  0.00  0.00    -0.394 OA
ATOM     15  H   LIG    1       27.782 -18.902   4.717  0.00  0.00    +0.209 HD
ENDBRANCH  13  14
ENDBRANCH   6  13
ENDBRANCH   2   6
BRANCH   1  16
ATOM     16  C   LIG    1       26.154 -15.018   2.765  0.00  0.00    +0.143 C 
BRANCH  16  17
ATOM     17  C   LIG    1       26.995 -14.132   3.660  0.00  0.00    -0.027 A 
ATOM     18  C   LIG    1       28.161 -13.523   3.186  0.00  0.00    +0.025 A 
ATOM     19  C   LIG    1       28.875 -12.677   4.021  0.00  0.00    +0.111 A 
ATOM     20  N   LIG    1       28.543 -12.443   5.306  0.00  0.00    -0.263 NA
ATOM     21  C   LIG    1       27.452 -13.085   5.772  0.00  0.00    +0.111 A 
ATOM     22  C   LIG    1       26.654 -13.920   5.001  0.00  0.00    +0.025 A 
ENDBRANCH  16  17
ENDBRANCH   1  16
TORSDOF 7
ENDMDL
