MODEL 1
REMARK VINA RESULT:      -8.1      0.000      0.000
REMARK  Name = *****
REMARK                            x       y       z     vdW  Elec       q    Type
REMARK                         _______ _______ _______ _____ _____    ______ ____
ROOT
ATOM      1  O   UNK    1       26.966 -22.461   7.420  0.00  0.00    -0.283 OA
ENDROOT
BRANCH   1   2
ATOM      2  P   UNK    1       26.777 -20.931   7.822  0.00  0.00    +0.475 P 
ATOM      3  O   UNK    1       26.161 -20.066   6.777  0.00  0.00    -0.227 OA
BRANCH   2   4
ATOM      4  O   UNK    1       25.901 -20.977   9.160  0.00  0.00    -0.302 OA
ATOM      5  H   UNK    1       25.134 -20.379   9.101  0.00  0.00    +0.222 HD
ENDBRANCH   2   4
BRANCH   2   6
ATOM      6  O   UNK    1       28.214 -20.473   8.369  0.00  0.00    -0.284 OA
BRANCH   6   7
ATOM      7  C   UNK    1       29.375 -20.988   7.733  0.00  0.00    +0.202 C 
BRANCH   7   8
ATOM      8  C   UNK    1       30.685 -20.606   8.441  0.00  0.00    +0.187 C 
BRANCH   8   9
ATOM      9  N   UNK    1       31.672 -20.058   7.484  0.00  0.00    -0.317 NA
ATOM     10  H   UNK    1       31.451 -20.353   6.534  0.00  0.00    +0.119 HD
ATOM     11  H   UNK    1       31.610 -19.036   7.480  0.00  0.00    +0.119 HD
ENDBRANCH   8   9
BRANCH   8  12
ATOM     12  C   UNK    1       31.265 -21.826   9.174  0.00  0.00    +0.324 C 
ATOM     13  O   UNK    1       30.818 -22.297  10.208  0.00  0.00    -0.249 OA
BRANCH  12  14
ATOM     14  O   UNK    1       32.283 -22.414   8.496  0.00  0.00    -0.479 OA
ATOM     15  H   UNK    1       32.986 -21.794   8.222  0.00  0.00    +0.295 HD
ENDBRANCH  12  14
ENDBRANCH   8  12
ENDBRANCH   7   8
ENDBRANCH   6   7
ENDBRANCH   2   6
ENDBRANCH   1   2
BRANCH   1  16
ATOM     16  C   UNK    1       25.823 -23.302   7.498  0.00  0.00    +0.220 C 
BRANCH  16  17
ATOM     17  C   UNK    1       24.965 -23.123   6.238  0.00  0.00    +0.240 C 
BRANCH  17  18
ATOM     18  C   UNK    1       25.055 -24.361   5.330  0.00  0.00    +0.279 C 
BRANCH  18  19
ATOM     19  O   UNK    1       26.114 -25.253   5.724  0.00  0.00    -0.461 OA
BRANCH  19  20
ATOM     20  C   UNK    1       25.938 -26.540   5.303  0.00  0.00    +0.307 C 
ATOM     21  O   UNK    1       26.780 -27.189   4.725  0.00  0.00    -0.251 OA
BRANCH  20  22
ATOM     22  C   UNK    1       24.576 -27.055   5.701  0.00  0.00    +0.117 C 
ATOM     23  C   UNK    1       24.494 -28.560   5.504  0.00  0.00    +0.015 C 
ENDBRANCH  20  22
ENDBRANCH  19  20
ENDBRANCH  18  19
ENDBRANCH  17  18
BRANCH  17  24
ATOM     24  O   UNK    1       23.569 -22.950   6.590  0.00  0.00    -0.456 OA
BRANCH  24  25
ATOM     25  C   UNK    1       23.118 -21.667   6.718  0.00  0.00    +0.307 C 
ATOM     26  O   UNK    1       23.160 -20.989   7.741  0.00  0.00    -0.251 OA
BRANCH  25  27
ATOM     27  C   UNK    1       22.618 -21.146   5.393  0.00  0.00    +0.120 C 
BRANCH  27  29
ATOM     28  C   UNK    1       23.114 -19.008   4.124  0.00  0.00    +0.004 C 
ATOM     29  C   UNK    1       22.577 -19.621   5.408  0.00  0.00    +0.008 C 
ENDBRANCH  27  29
ENDBRANCH  25  27
ENDBRANCH  24  25
ENDBRANCH  17  24
ENDBRANCH  16  17
ENDBRANCH   1  16
TORSDOF 18
ENDMDL
MODEL 2
REMARK VINA RESULT:      -8.0      2.838      5.123
REMARK  Name = *****
REMARK                            x       y       z     vdW  Elec       q    Type
REMARK                         _______ _______ _______ _____ _____    ______ ____
ROOT
ATOM      1  O   UNK    1       29.480 -21.101   8.354  0.00  0.00    -0.283 OA
ENDROOT
BRANCH   1   2
ATOM      2  P   UNK    1       30.968 -20.695   8.755  0.00  0.00    +0.475 P 
ATOM      3  O   UNK    1       31.820 -21.805   9.267  0.00  0.00    -0.227 OA
BRANCH   2   4
ATOM      4  O   UNK    1       31.572 -20.036   7.428  0.00  0.00    -0.302 OA
ATOM      5  H   UNK    1       31.559 -19.064   7.478  0.00  0.00    +0.222 HD
ENDBRANCH   2   4
BRANCH   2   6
ATOM      6  O   UNK    1       30.798 -19.425   9.720  0.00  0.00    -0.284 OA
BRANCH   6   7
ATOM      7  C   UNK    1       30.212 -18.245   9.188  0.00  0.00    +0.202 C 
BRANCH   7   8
ATOM      8  C   UNK    1       31.085 -16.991   9.363  0.00  0.00    +0.187 C 
BRANCH   8   9
ATOM      9  N   UNK    1       32.294 -17.056   8.511  0.00  0.00    -0.317 NA
ATOM     10  H   UNK    1       33.049 -17.537   8.997  0.00  0.00    +0.119 HD
ATOM     11  H   UNK    1       32.094 -17.619   7.680  0.00  0.00    +0.119 HD
ENDBRANCH   8   9
BRANCH   8  12
ATOM     12  C   UNK    1       31.474 -16.820  10.839  0.00  0.00    +0.324 C 
ATOM     13  O   UNK    1       30.788 -16.267  11.684  0.00  0.00    -0.249 OA
BRANCH  12  14
ATOM     14  O   UNK    1       32.635 -17.449  11.155  0.00  0.00    -0.479 OA
ATOM     15  H   UNK    1       32.611 -17.921  12.009  0.00  0.00    +0.295 HD
ENDBRANCH  12  14
ENDBRANCH   8  12
ENDBRANCH   7   8
ENDBRANCH   6   7
ENDBRANCH   2   6
ENDBRANCH   1   2
BRANCH   1  16
ATOM     16  C   UNK    1       29.066 -20.827   7.023  0.00  0.00    +0.220 C 
BRANCH  16  17
ATOM     17  C   UNK    1       27.569 -20.491   7.008  0.00  0.00    +0.240 C 
BRANCH  17  18
ATOM     18  C   UNK    1       27.129 -19.991   5.622  0.00  0.00    +0.279 C 
BRANCH  18  19
ATOM     19  O   UNK    1       25.994 -20.717   5.112  0.00  0.00    -0.461 OA
BRANCH  19  20
ATOM     20  C   UNK    1       25.156 -19.963   4.342  0.00  0.00    +0.307 C 
ATOM     21  O   UNK    1       25.495 -18.972   3.736  0.00  0.00    -0.251 OA
BRANCH  20  22
ATOM     22  C   UNK    1       23.770 -20.560   4.312  0.00  0.00    +0.117 C 
ATOM     23  C   UNK    1       22.893 -19.933   5.384  0.00  0.00    +0.015 C 
ENDBRANCH  20  22
ENDBRANCH  19  20
ENDBRANCH  18  19
ENDBRANCH  17  18
BRANCH  17  24
ATOM     24  O   UNK    1       26.778 -21.669   7.310  0.00  0.00    -0.456 OA
BRANCH  24  25
ATOM     25  C   UNK    1       25.796 -21.530   8.249  0.00  0.00    +0.307 C 
ATOM     26  O   UNK    1       25.918 -20.979   9.339  0.00  0.00    -0.251 OA
BRANCH  25  27
ATOM     27  C   UNK    1       24.491 -22.088   7.738  0.00  0.00    +0.120 C 
BRANCH  27  29
ATOM     28  C   UNK    1       23.425 -24.104   6.631  0.00  0.00    +0.004 C 
ATOM     29  C   UNK    1       24.721 -23.437   7.064  0.00  0.00    +0.008 C 
ENDBRANCH  27  29
ENDBRANCH  25  27
ENDBRANCH  24  25
ENDBRANCH  17  24
ENDBRANCH  16  17
ENDBRANCH   1  16
TORSDOF 18
ENDMDL
MODEL 3
REMARK VINA RESULT:      -7.9      0.906      4.789
REMARK  Name = *****
REMARK                            x       y       z     vdW  Elec       q    Type
REMARK                         _______ _______ _______ _____ _____    ______ ____
ROOT
ATOM      1  O   UNK    1       26.003 -22.557   8.102  0.00  0.00    -0.283 OA
ENDROOT
BRANCH   1   2
ATOM      2  P   UNK    1       26.709 -21.129   8.115  0.00  0.00    +0.475 P 
ATOM      3  O   UNK    1       26.547 -20.322   6.873  0.00  0.00    -0.227 OA
BRANCH   2   4
ATOM      4  O   UNK    1       26.092 -20.392   9.395  0.00  0.00    -0.302 OA
ATOM      5  H   UNK    1       26.441 -19.487   9.485  0.00  0.00    +0.222 HD
ENDBRANCH   2   4
BRANCH   2   6
ATOM      6  O   UNK    1       28.215 -21.422   8.582  0.00  0.00    -0.284 OA
BRANCH   6   7
ATOM      7  C   UNK    1       29.273 -21.113   7.686  0.00  0.00    +0.202 C 
BRANCH   7   8
ATOM      8  C   UNK    1       30.558 -20.644   8.389  0.00  0.00    +0.187 C 
BRANCH   8   9
ATOM      9  N   UNK    1       31.504 -20.035   7.427  0.00  0.00    -0.317 NA
ATOM     10  H   UNK    1       32.177 -20.728   7.101  0.00  0.00    +0.119 HD
ATOM     11  H   UNK    1       30.993 -19.729   6.596  0.00  0.00    +0.119 HD
ENDBRANCH   8   9
BRANCH   8  12
ATOM     12  C   UNK    1       31.218 -21.822   9.123  0.00  0.00    +0.324 C 
ATOM     13  O   UNK    1       32.227 -22.401   8.752  0.00  0.00    -0.249 OA
BRANCH  12  14
ATOM     14  O   UNK    1       30.623 -22.102  10.311  0.00  0.00    -0.479 OA
ATOM     15  H   UNK    1       30.348 -21.311  10.813  0.00  0.00    +0.295 HD
ENDBRANCH  12  14
ENDBRANCH   8  12
ENDBRANCH   7   8
ENDBRANCH   6   7
ENDBRANCH   2   6
ENDBRANCH   1   2
BRANCH   1  16
ATOM     16  C   UNK    1       26.142 -23.341   6.925  0.00  0.00    +0.220 C 
BRANCH  16  17
ATOM     17  C   UNK    1       24.842 -24.115   6.666  0.00  0.00    +0.240 C 
BRANCH  17  18
ATOM     18  C   UNK    1       23.613 -23.215   6.874  0.00  0.00    +0.279 C 
BRANCH  18  19
ATOM     19  O   UNK    1       23.582 -22.109   5.953  0.00  0.00    -0.461 OA
BRANCH  19  20
ATOM     20  C   UNK    1       23.216 -20.923   6.524  0.00  0.00    +0.307 C 
ATOM     21  O   UNK    1       23.297 -20.684   7.707  0.00  0.00    -0.251 OA
BRANCH  20  22
ATOM     22  C   UNK    1       22.748 -19.943   5.476  0.00  0.00    +0.117 C 
ATOM     23  C   UNK    1       23.677 -19.961   4.273  0.00  0.00    +0.015 C 
ENDBRANCH  20  22
ENDBRANCH  19  20
ENDBRANCH  18  19
ENDBRANCH  17  18
BRANCH  17  24
ATOM     24  O   UNK    1       24.797 -24.593   5.297  0.00  0.00    -0.456 OA
BRANCH  24  25
ATOM     25  C   UNK    1       25.109 -25.907   5.091  0.00  0.00    +0.307 C 
ATOM     26  O   UNK    1       25.948 -26.330   4.301  0.00  0.00    -0.251 OA
BRANCH  25  27
ATOM     27  C   UNK    1       24.327 -26.792   6.030  0.00  0.00    +0.120 C 
BRANCH  27  29
ATOM     28  C   UNK    1       24.520 -29.091   7.083  0.00  0.00    +0.004 C 
ATOM     29  C   UNK    1       25.251 -27.820   6.676  0.00  0.00    +0.008 C 
ENDBRANCH  27  29
ENDBRANCH  25  27
ENDBRANCH  24  25
ENDBRANCH  17  24
ENDBRANCH  16  17
ENDBRANCH   1  16
TORSDOF 18
ENDMDL
MODEL 4
REMARK VINA RESULT:      -7.9      2.060      2.950
REMARK  Name = *****
REMARK                            x       y       z     vdW  Elec       q    Type
REMARK                         _______ _______ _______ _____ _____    ______ ____
ROOT
ATOM      1  O   UNK    1       27.326 -20.186   7.978  0.00  0.00    -0.283 OA
ENDROOT
BRANCH   1   2
ATOM      2  P   UNK    1       28.830 -20.307   7.467  0.00  0.00    +0.475 P 
ATOM      3  O   UNK    1       29.607 -21.451   8.023  0.00  0.00    -0.227 OA
BRANCH   2   4
ATOM      4  O   UNK    1       28.704 -20.385   5.873  0.00  0.00    -0.302 OA
ATOM      5  H   UNK    1       28.462 -19.521   5.495  0.00  0.00    +0.222 HD
ENDBRANCH   2   4
BRANCH   2   6
ATOM      6  O   UNK    1       29.456 -18.847   7.689  0.00  0.00    -0.284 OA
BRANCH   6   7
ATOM      7  C   UNK    1       30.860 -18.684   7.544  0.00  0.00    +0.202 C 
BRANCH   7   8
ATOM      8  C   UNK    1       31.614 -18.615   8.882  0.00  0.00    +0.187 C 
BRANCH   8   9
ATOM      9  N   UNK    1       32.095 -19.952   9.296  0.00  0.00    -0.317 NA
ATOM     10  H   UNK    1       33.066 -19.905   9.599  0.00  0.00    +0.119 HD
ATOM     11  H   UNK    1       31.563 -20.267  10.111  0.00  0.00    +0.119 HD
ENDBRANCH   8   9
BRANCH   8  12
ATOM     12  C   UNK    1       30.712 -18.006   9.966  0.00  0.00    +0.324 C 
ATOM     13  O   UNK    1       30.615 -18.422  11.110  0.00  0.00    -0.249 OA
BRANCH  12  14
ATOM     14  O   UNK    1       30.093 -16.869   9.559  0.00  0.00    -0.479 OA
ATOM     15  H   UNK    1       29.293 -17.024   9.020  0.00  0.00    +0.295 HD
ENDBRANCH  12  14
ENDBRANCH   8  12
ENDBRANCH   7   8
ENDBRANCH   6   7
ENDBRANCH   2   6
ENDBRANCH   1   2
BRANCH   1  16
ATOM     16  C   UNK    1       26.651 -21.391   8.308  0.00  0.00    +0.220 C 
BRANCH  16  17
ATOM     17  C   UNK    1       26.095 -22.038   7.032  0.00  0.00    +0.240 C 
BRANCH  17  18
ATOM     18  C   UNK    1       25.718 -23.508   7.277  0.00  0.00    +0.279 C 
BRANCH  18  19
ATOM     19  O   UNK    1       25.194 -24.143   6.096  0.00  0.00    -0.461 OA
BRANCH  19  20
ATOM     20  C   UNK    1       24.065 -24.879   6.318  0.00  0.00    +0.307 C 
ATOM     21  O   UNK    1       23.028 -24.423   6.744  0.00  0.00    -0.251 OA
BRANCH  20  22
ATOM     22  C   UNK    1       24.273 -26.318   5.915  0.00  0.00    +0.117 C 
ATOM     23  C   UNK    1       25.494 -26.453   5.021  0.00  0.00    +0.015 C 
ENDBRANCH  20  22
ENDBRANCH  19  20
ENDBRANCH  18  19
ENDBRANCH  17  18
BRANCH  17  24
ATOM     24  O   UNK    1       24.894 -21.353   6.594  0.00  0.00    -0.456 OA
BRANCH  24  25
ATOM     25  C   UNK    1       24.947 -20.727   5.381  0.00  0.00    +0.307 C 
ATOM     26  O   UNK    1       25.888 -20.062   4.957  0.00  0.00    -0.251 OA
BRANCH  25  27
ATOM     27  C   UNK    1       23.705 -21.022   4.577  0.00  0.00    +0.120 C 
BRANCH  27  29
ATOM     28  C   UNK    1       22.391 -18.854   4.562  0.00  0.00    +0.004 C 
ATOM     29  C   UNK    1       22.515 -20.254   5.145  0.00  0.00    +0.008 C 
ENDBRANCH  27  29
ENDBRANCH  25  27
ENDBRANCH  24  25
ENDBRANCH  17  24
ENDBRANCH  16  17
ENDBRANCH   1  16
TORSDOF 18
ENDMDL
MODEL 5
REMARK VINA RESULT:      -7.6      1.556      1.686
REMARK  Name = *****
REMARK                            x       y       z     vdW  Elec       q    Type
REMARK                         _______ _______ _______ _____ _____    ______ ____
ROOT
ATOM      1  O   UNK    1       27.166 -22.518   7.284  0.00  0.00    -0.283 OA
ENDROOT
BRANCH   1   2
ATOM      2  P   UNK    1       27.389 -21.008   7.739  0.00  0.00    +0.475 P 
ATOM      3  O   UNK    1       27.214 -19.984   6.671  0.00  0.00    -0.227 OA
BRANCH   2   4
ATOM      4  O   UNK    1       26.360 -20.801   8.947  0.00  0.00    -0.302 OA
ATOM      5  H   UNK    1       25.559 -21.341   8.826  0.00  0.00    +0.222 HD
ENDBRANCH   2   4
BRANCH   2   6
ATOM      6  O   UNK    1       28.805 -21.014   8.493  0.00  0.00    -0.284 OA
BRANCH   6   7
ATOM      7  C   UNK    1       29.946 -20.540   7.793  0.00  0.00    +0.202 C 
BRANCH   7   8
ATOM      8  C   UNK    1       30.134 -19.016   7.882  0.00  0.00    +0.187 C 
BRANCH   8   9
ATOM      9  N   UNK    1       29.893 -18.369   6.572  0.00  0.00    -0.317 NA
ATOM     10  H   UNK    1       29.903 -19.061   5.825  0.00  0.00    +0.119 HD
ATOM     11  H   UNK    1       28.956 -17.960   6.563  0.00  0.00    +0.119 HD
ENDBRANCH   8   9
BRANCH   8  12
ATOM     12  C   UNK    1       31.543 -18.686   8.396  0.00  0.00    +0.324 C 
ATOM     13  O   UNK    1       32.121 -17.625   8.222  0.00  0.00    -0.249 OA
BRANCH  12  14
ATOM     14  O   UNK    1       32.064 -19.670   9.173  0.00  0.00    -0.479 OA
ATOM     15  H   UNK    1       31.779 -19.631  10.106  0.00  0.00    +0.295 HD
ENDBRANCH  12  14
ENDBRANCH   8  12
ENDBRANCH   7   8
ENDBRANCH   6   7
ENDBRANCH   2   6
ENDBRANCH   1   2
BRANCH   1  16
ATOM     16  C   UNK    1       25.885 -23.087   7.517  0.00  0.00    +0.220 C 
BRANCH  16  17
ATOM     17  C   UNK    1       25.071 -23.075   6.216  0.00  0.00    +0.240 C 
BRANCH  17  18
ATOM     18  C   UNK    1       24.884 -24.499   5.669  0.00  0.00    +0.279 C 
BRANCH  18  19
ATOM     19  O   UNK    1       25.108 -25.506   6.674  0.00  0.00    -0.461 OA
BRANCH  19  20
ATOM     20  C   UNK    1       25.942 -26.511   6.274  0.00  0.00    +0.307 C 
ATOM     21  O   UNK    1       26.956 -26.341   5.638  0.00  0.00    -0.251 OA
BRANCH  20  22
ATOM     22  C   UNK    1       25.452 -27.848   6.775  0.00  0.00    +0.117 C 
ATOM     23  C   UNK    1       24.242 -28.307   5.978  0.00  0.00    +0.015 C 
ENDBRANCH  20  22
ENDBRANCH  19  20
ENDBRANCH  18  19
ENDBRANCH  17  18
BRANCH  17  24
ATOM     24  O   UNK    1       23.749 -22.526   6.446  0.00  0.00    -0.456 OA
BRANCH  24  25
ATOM     25  C   UNK    1       23.672 -21.187   6.703  0.00  0.00    +0.307 C 
ATOM     26  O   UNK    1       23.588 -20.672   7.815  0.00  0.00    -0.251 OA
BRANCH  25  27
ATOM     27  C   UNK    1       23.779 -20.393   5.424  0.00  0.00    +0.120 C 
BRANCH  27  29
ATOM     28  C   UNK    1       22.311 -18.544   4.501  0.00  0.00    +0.004 C 
ATOM     29  C   UNK    1       22.390 -20.001   4.929  0.00  0.00    +0.008 C 
ENDBRANCH  27  29
ENDBRANCH  25  27
ENDBRANCH  24  25
ENDBRANCH  17  24
ENDBRANCH  16  17
ENDBRANCH   1  16
TORSDOF 18
ENDMDL
MODEL 6
REMARK VINA RESULT:      -7.5      1.761      4.823
REMARK  Name = *****
REMARK                            x       y       z     vdW  Elec       q    Type
REMARK                         _______ _______ _______ _____ _____    ______ ____
ROOT
ATOM      1  O   UNK    1       26.928 -22.420   7.337  0.00  0.00    -0.283 OA
ENDROOT
BRANCH   1   2
ATOM      2  P   UNK    1       27.373 -20.912   7.592  0.00  0.00    +0.475 P 
ATOM      3  O   UNK    1       27.323 -20.018   6.401  0.00  0.00    -0.227 OA
BRANCH   2   4
ATOM      4  O   UNK    1       26.407 -20.406   8.764  0.00  0.00    -0.302 OA
ATOM      5  H   UNK    1       26.912 -19.978   9.479  0.00  0.00    +0.222 HD
ENDBRANCH   2   4
BRANCH   2   6
ATOM      6  O   UNK    1       28.787 -21.025   8.339  0.00  0.00    -0.284 OA
BRANCH   6   7
ATOM      7  C   UNK    1       29.946 -20.549   7.669  0.00  0.00    +0.202 C 
BRANCH   7   8
ATOM      8  C   UNK    1       30.184 -19.041   7.846  0.00  0.00    +0.187 C 
BRANCH   8   9
ATOM      9  N   UNK    1       30.100 -18.329   6.551  0.00  0.00    -0.317 NA
ATOM     10  H   UNK    1       29.371 -18.735   5.966  0.00  0.00    +0.119 HD
ATOM     11  H   UNK    1       29.819 -17.359   6.714  0.00  0.00    +0.119 HD
ENDBRANCH   8   9
BRANCH   8  12
ATOM     12  C   UNK    1       31.548 -18.796   8.509  0.00  0.00    +0.324 C 
ATOM     13  O   UNK    1       32.097 -19.563   9.283  0.00  0.00    -0.249 OA
BRANCH  12  14
ATOM     14  O   UNK    1       32.155 -17.666   8.064  0.00  0.00    -0.479 OA
ATOM     15  H   UNK    1       32.989 -17.827   7.583  0.00  0.00    +0.295 HD
ENDBRANCH  12  14
ENDBRANCH   8  12
ENDBRANCH   7   8
ENDBRANCH   6   7
ENDBRANCH   2   6
ENDBRANCH   1   2
BRANCH   1  16
ATOM     16  C   UNK    1       25.718 -22.854   7.942  0.00  0.00    +0.220 C 
BRANCH  16  17
ATOM     17  C   UNK    1       24.710 -23.249   6.854  0.00  0.00    +0.240 C 
BRANCH  17  18
ATOM     18  C   UNK    1       23.979 -22.013   6.305  0.00  0.00    +0.279 C 
BRANCH  18  19
ATOM     19  O   UNK    1       24.282 -21.768   4.918  0.00  0.00    -0.461 OA
BRANCH  19  20
ATOM     20  C   UNK    1       23.962 -20.510   4.495  0.00  0.00    +0.307 C 
ATOM     21  O   UNK    1       24.656 -19.840   3.766  0.00  0.00    -0.251 OA
BRANCH  20  22
ATOM     22  C   UNK    1       22.608 -20.095   5.019  0.00  0.00    +0.117 C 
ATOM     23  C   UNK    1       22.289 -18.668   4.603  0.00  0.00    +0.015 C 
ENDBRANCH  20  22
ENDBRANCH  19  20
ENDBRANCH  18  19
ENDBRANCH  17  18
BRANCH  17  24
ATOM     24  O   UNK    1       25.385 -23.880   5.737  0.00  0.00    -0.456 OA
BRANCH  24  25
ATOM     25  C   UNK    1       25.568 -25.232   5.809  0.00  0.00    +0.307 C 
ATOM     26  O   UNK    1       26.652 -25.808   5.854  0.00  0.00    -0.251 OA
BRANCH  25  27
ATOM     27  C   UNK    1       24.241 -25.943   5.904  0.00  0.00    +0.120 C 
BRANCH  27  29
ATOM     28  C   UNK    1       24.379 -28.385   5.236  0.00  0.00    +0.004 C 
ATOM     29  C   UNK    1       24.446 -27.379   6.375  0.00  0.00    +0.008 C 
ENDBRANCH  27  29
ENDBRANCH  25  27
ENDBRANCH  24  25
ENDBRANCH  17  24
ENDBRANCH  16  17
ENDBRANCH   1  16
TORSDOF 18
ENDMDL
MODEL 7
REMARK VINA RESULT:      -7.5      1.604      4.877
REMARK  Name = *****
REMARK                            x       y       z     vdW  Elec       q    Type
REMARK                         _______ _______ _______ _____ _____    ______ ____
ROOT
ATOM      1  O   UNK    1       25.948 -20.280   6.870  0.00  0.00    -0.283 OA
ENDROOT
BRANCH   1   2
ATOM      2  P   UNK    1       26.686 -20.726   8.209  0.00  0.00    +0.475 P 
ATOM      3  O   UNK    1       25.854 -20.682   9.445  0.00  0.00    -0.227 OA
BRANCH   2   4
ATOM      4  O   UNK    1       27.219 -22.202   7.897  0.00  0.00    -0.302 OA
ATOM      5  H   UNK    1       26.651 -22.878   8.306  0.00  0.00    +0.222 HD
ENDBRANCH   2   4
BRANCH   2   6
ATOM      6  O   UNK    1       28.042 -19.871   8.233  0.00  0.00    -0.284 OA
BRANCH   6   7
ATOM      7  C   UNK    1       29.115 -20.282   7.398  0.00  0.00    +0.202 C 
BRANCH   7   8
ATOM      8  C   UNK    1       30.501 -19.894   7.940  0.00  0.00    +0.187 C 
BRANCH   8   9
ATOM      9  N   UNK    1       31.457 -19.642   6.838  0.00  0.00    -0.317 NA
ATOM     10  H   UNK    1       32.070 -20.444   6.706  0.00  0.00    +0.119 HD
ATOM     11  H   UNK    1       30.942 -19.536   5.960  0.00  0.00    +0.119 HD
ENDBRANCH   8   9
BRANCH   8  12
ATOM     12  C   UNK    1       31.031 -20.995   8.872  0.00  0.00    +0.324 C 
ATOM     13  O   UNK    1       32.165 -21.045   9.322  0.00  0.00    -0.249 OA
BRANCH  12  14
ATOM     14  O   UNK    1       30.068 -21.877   9.246  0.00  0.00    -0.479 OA
ATOM     15  H   UNK    1       29.350 -21.479   9.774  0.00  0.00    +0.295 HD
ENDBRANCH  12  14
ENDBRANCH   8  12
ENDBRANCH   7   8
ENDBRANCH   6   7
ENDBRANCH   2   6
ENDBRANCH   1   2
BRANCH   1  16
ATOM     16  C   UNK    1       25.784 -21.264   5.857  0.00  0.00    +0.220 C 
BRANCH  16  17
ATOM     17  C   UNK    1       24.418 -21.945   6.017  0.00  0.00    +0.240 C 
BRANCH  17  18
ATOM     18  C   UNK    1       23.358 -21.269   5.132  0.00  0.00    +0.279 C 
BRANCH  18  19
ATOM     19  O   UNK    1       23.008 -19.954   5.603  0.00  0.00    -0.461 OA
BRANCH  19  20
ATOM     20  C   UNK    1       22.859 -19.032   4.608  0.00  0.00    +0.307 C 
ATOM     21  O   UNK    1       22.104 -18.088   4.662  0.00  0.00    -0.251 OA
BRANCH  20  22
ATOM     22  C   UNK    1       23.795 -19.321   3.460  0.00  0.00    +0.117 C 
ATOM     23  C   UNK    1       25.028 -18.436   3.539  0.00  0.00    +0.015 C 
ENDBRANCH  20  22
ENDBRANCH  19  20
ENDBRANCH  18  19
ENDBRANCH  17  18
BRANCH  17  24
ATOM     24  O   UNK    1       24.491 -23.336   5.615  0.00  0.00    -0.456 OA
BRANCH  24  25
ATOM     25  C   UNK    1       23.756 -24.229   6.342  0.00  0.00    +0.307 C 
ATOM     26  O   UNK    1       22.688 -23.994   6.900  0.00  0.00    -0.251 OA
BRANCH  25  27
ATOM     27  C   UNK    1       24.399 -25.593   6.313  0.00  0.00    +0.120 C 
BRANCH  27  29
ATOM     28  C   UNK    1       25.926 -27.045   4.902  0.00  0.00    +0.004 C 
ATOM     29  C   UNK    1       25.516 -25.628   5.274  0.00  0.00    +0.008 C 
ENDBRANCH  27  29
ENDBRANCH  25  27
ENDBRANCH  24  25
ENDBRANCH  17  24
ENDBRANCH  16  17
ENDBRANCH   1  16
TORSDOF 18
ENDMDL
MODEL 8
REMARK VINA RESULT:      -7.5      2.775      6.777
REMARK  Name = *****
REMARK                            x       y       z     vdW  Elec       q    Type
REMARK                         _______ _______ _______ _____ _____    ______ ____
ROOT
ATOM      1  O   UNK    1       25.641 -23.817   7.357  0.00  0.00    -0.283 OA
ENDROOT
BRANCH   1   2
ATOM      2  P   UNK    1       24.667 -24.420   6.250  0.00  0.00    +0.475 P 
ATOM      3  O   UNK    1       23.238 -24.546   6.652  0.00  0.00    -0.227 OA
BRANCH   2   4
ATOM      4  O   UNK    1       24.854 -23.453   4.988  0.00  0.00    -0.302 OA
ATOM      5  H   UNK    1       24.416 -22.595   5.131  0.00  0.00    +0.222 HD
ENDBRANCH   2   4
BRANCH   2   6
ATOM      6  O   UNK    1       25.390 -25.765   5.760  0.00  0.00    -0.284 OA
BRANCH   6   7
ATOM      7  C   UNK    1       24.580 -26.879   5.411  0.00  0.00    +0.202 C 
BRANCH   7   8
ATOM      8  C   UNK    1       24.608 -28.011   6.451  0.00  0.00    +0.187 C 
BRANCH   8   9
ATOM      9  N   UNK    1       25.831 -27.946   7.282  0.00  0.00    -0.317 NA
ATOM     10  H   UNK    1       26.661 -27.895   6.693  0.00  0.00    +0.119 HD
ATOM     11  H   UNK    1       25.824 -27.082   7.830  0.00  0.00    +0.119 HD
ENDBRANCH   8   9
BRANCH   8  12
ATOM     12  C   UNK    1       24.502 -29.374   5.752  0.00  0.00    +0.324 C 
ATOM     13  O   UNK    1       25.450 -30.083   5.454  0.00  0.00    -0.249 OA
BRANCH  12  14
ATOM     14  O   UNK    1       23.218 -29.782   5.583  0.00  0.00    -0.479 OA
ATOM     15  H   UNK    1       22.553 -29.124   5.865  0.00  0.00    +0.295 HD
ENDBRANCH  12  14
ENDBRANCH   8  12
ENDBRANCH   7   8
ENDBRANCH   6   7
ENDBRANCH   2   6
ENDBRANCH   1   2
BRANCH   1  16
ATOM     16  C   UNK    1       26.413 -22.680   6.997  0.00  0.00    +0.220 C 
BRANCH  16  17
ATOM     17  C   UNK    1       25.827 -21.427   7.663  0.00  0.00    +0.240 C 
BRANCH  17  18
ATOM     18  C   UNK    1       26.940 -20.446   8.068  0.00  0.00    +0.279 C 
BRANCH  18  19
ATOM     19  O   UNK    1       28.203 -21.106   8.276  0.00  0.00    -0.461 OA
BRANCH  19  20
ATOM     20  C   UNK    1       29.283 -20.372   7.879  0.00  0.00    +0.307 C 
ATOM     21  O   UNK    1       30.200 -20.061   8.605  0.00  0.00    -0.251 OA
BRANCH  20  22
ATOM     22  C   UNK    1       29.201 -20.046   6.407  0.00  0.00    +0.117 C 
ATOM     23  C   UNK    1       29.602 -18.601   6.156  0.00  0.00    +0.015 C 
ENDBRANCH  20  22
ENDBRANCH  19  20
ENDBRANCH  18  19
ENDBRANCH  17  18
BRANCH  17  24
ATOM     24  O   UNK    1       24.949 -20.726   6.748  0.00  0.00    -0.456 OA
BRANCH  24  25
ATOM     25  C   UNK    1       23.605 -20.867   6.950  0.00  0.00    +0.307 C 
ATOM     26  O   UNK    1       23.075 -21.331   7.956  0.00  0.00    -0.251 OA
BRANCH  25  27
ATOM     27  C   UNK    1       22.830 -20.299   5.787  0.00  0.00    +0.120 C 
BRANCH  27  29
ATOM     28  C   UNK    1       23.533 -18.887   3.802  0.00  0.00    +0.004 C 
ATOM     29  C   UNK    1       23.727 -20.193   4.558  0.00  0.00    +0.008 C 
ENDBRANCH  27  29
ENDBRANCH  25  27
ENDBRANCH  24  25
ENDBRANCH  17  24
ENDBRANCH  16  17
ENDBRANCH   1  16
TORSDOF 18
ENDMDL
MODEL 9
REMARK VINA RESULT:      -7.5      2.180      4.922
REMARK  Name = *****
REMARK                            x       y       z     vdW  Elec       q    Type
REMARK                         _______ _______ _______ _____ _____    ______ ____
ROOT
ATOM      1  O   UNK    1       27.234 -20.541   7.856  0.00  0.00    -0.283 OA
ENDROOT
BRANCH   1   2
ATOM      2  P   UNK    1       28.819 -20.599   7.708  0.00  0.00    +0.475 P 
ATOM      3  O   UNK    1       29.513 -21.563   8.607  0.00  0.00    -0.227 OA
BRANCH   2   4
ATOM      4  O   UNK    1       29.061 -20.936   6.162  0.00  0.00    -0.302 OA
ATOM      5  H   UNK    1       29.735 -20.350   5.774  0.00  0.00    +0.222 HD
ENDBRANCH   2   4
BRANCH   2   6
ATOM      6  O   UNK    1       29.293 -19.069   7.803  0.00  0.00    -0.284 OA
BRANCH   6   7
ATOM      7  C   UNK    1       30.658 -18.768   7.552  0.00  0.00    +0.202 C 
BRANCH   7   8
ATOM      8  C   UNK    1       31.497 -18.604   8.830  0.00  0.00    +0.187 C 
BRANCH   8   9
ATOM      9  N   UNK    1       32.067 -19.898   9.268  0.00  0.00    -0.317 NA
ATOM     10  H   UNK    1       31.985 -20.001  10.278  0.00  0.00    +0.119 HD
ATOM     11  H   UNK    1       31.522 -20.663   8.863  0.00  0.00    +0.119 HD
ENDBRANCH   8   9
BRANCH   8  12
ATOM     12  C   UNK    1       30.643 -17.985   9.947  0.00  0.00    +0.324 C 
ATOM     13  O   UNK    1       30.547 -18.427  11.081  0.00  0.00    -0.249 OA
BRANCH  12  14
ATOM     14  O   UNK    1       30.070 -16.810   9.582  0.00  0.00    -0.479 OA
ATOM     15  H   UNK    1       29.668 -16.318  10.324  0.00  0.00    +0.295 HD
ENDBRANCH  12  14
ENDBRANCH   8  12
ENDBRANCH   7   8
ENDBRANCH   6   7
ENDBRANCH   2   6
ENDBRANCH   1   2
BRANCH   1  16
ATOM     16  C   UNK    1       26.577 -21.722   8.298  0.00  0.00    +0.220 C 
BRANCH  16  17
ATOM     17  C   UNK    1       25.317 -21.957   7.455  0.00  0.00    +0.240 C 
BRANCH  17  18
ATOM     18  C   UNK    1       24.963 -20.707   6.631  0.00  0.00    +0.279 C 
BRANCH  18  19
ATOM     19  O   UNK    1       25.190 -20.898   5.222  0.00  0.00    -0.461 OA
BRANCH  19  20
ATOM     20  C   UNK    1       24.191 -20.410   4.430  0.00  0.00    +0.307 C 
ATOM     21  O   UNK    1       24.237 -20.372   3.222  0.00  0.00    -0.251 OA
BRANCH  20  22
ATOM     22  C   UNK    1       23.008 -19.974   5.262  0.00  0.00    +0.117 C 
ATOM     23  C   UNK    1       22.278 -18.823   4.591  0.00  0.00    +0.015 C 
ENDBRANCH  20  22
ENDBRANCH  19  20
ENDBRANCH  18  19
ENDBRANCH  17  18
BRANCH  17  24
ATOM     24  O   UNK    1       25.524 -23.044   6.518  0.00  0.00    -0.456 OA
BRANCH  24  25
ATOM     25  C   UNK    1       24.726 -24.143   6.661  0.00  0.00    +0.307 C 
ATOM     26  O   UNK    1       23.502 -24.134   6.763  0.00  0.00    -0.251 OA
BRANCH  25  27
ATOM     27  C   UNK    1       25.548 -25.407   6.604  0.00  0.00    +0.120 C 
BRANCH  27  29
ATOM     28  C   UNK    1       25.291 -27.459   5.137  0.00  0.00    +0.004 C 
ATOM     29  C   UNK    1       24.666 -26.592   6.220  0.00  0.00    +0.008 C 
ENDBRANCH  27  29
ENDBRANCH  25  27
ENDBRANCH  24  25
ENDBRANCH  17  24
ENDBRANCH  16  17
ENDBRANCH   1  16
TORSDOF 18
ENDMDL
