MODEL 1
REMARK VINA RESULT:      -3.4      0.000      0.000
REMARK  Name = *****
REMARK                            x       y       z     vdW  Elec       q    Type
REMARK                         _______ _______ _______ _____ _____    ______ ____
ROOT
ATOM      1  N   LIG    1       25.842 -16.620   3.476  0.00  0.00    -0.087 NA
ATOM      2  C   LIG    1       25.948 -17.910   3.631  0.00  0.00    +0.108 C 
ENDROOT
BRANCH   2   3
ATOM      3  C   LIG    1       24.683 -18.680   3.956  0.00  0.00    +0.020 A 
ATOM      4  C   LIG    1       23.422 -18.125   4.223  0.00  0.00    +0.051 A 
ATOM      5 CL   LIG    1       23.128 -16.438   4.425  0.00  0.00    -0.083 Cl
ATOM      6  C   LIG    1       22.310 -18.957   4.440  0.00  0.00    +0.040 A 
ATOM      7  C   LIG    1       22.455 -20.341   4.442  0.00  0.00    +0.042 A 
ATOM      8 CL   LIG    1       21.093 -21.345   4.749  0.00  0.00    -0.084 Cl
ATOM      9  C   LIG    1       23.702 -20.910   4.224  0.00  0.00    +0.021 A 
ATOM     10  C   LIG    1       24.806 -20.086   3.974  0.00  0.00    +0.013 A 
ENDBRANCH   2   3
BRANCH   1  11
ATOM     11  O   LIG    1       27.090 -16.020   3.227  0.00  0.00    -0.389 OA
BRANCH  11  12
ATOM     12  C   LIG    1       26.921 -14.759   2.572  0.00  0.00    +0.299 C 
BRANCH  12  18
ATOM     13 CL   LIG    1       22.940 -11.448   5.683  0.00  0.00    -0.084 Cl
ATOM     14  C   LIG    1       24.095 -12.371   4.802  0.00  0.00    +0.042 A 
ATOM     15  C   LIG    1       25.346 -12.627   5.355  0.00  0.00    +0.040 A 
ATOM     16  C   LIG    1       26.278 -13.388   4.643  0.00  0.00    +0.049 A 
ATOM     17 CL   LIG    1       27.802 -13.686   5.398  0.00  0.00    -0.083 Cl
ATOM     18  C   LIG    1       25.971 -13.893   3.367  0.00  0.00    +0.011 A 
ATOM     19  C   LIG    1       24.699 -13.622   2.832  0.00  0.00    +0.010 A 
ATOM     20  C   LIG    1       23.767 -12.866   3.543  0.00  0.00    +0.020 A 
ENDBRANCH  12  18
ENDBRANCH  11  12
ENDBRANCH   1  11
BRANCH   2  21
ATOM     21  C   LIG    1       27.300 -18.629   3.608  0.00  0.00    +0.182 C 
BRANCH  21  22
ATOM     22  N   LIG    1       27.755 -19.048   4.922  0.00  0.00    -0.331 N 
ATOM     23  C   LIG    1       28.852 -18.586   5.595  0.00  0.00    +0.199 A 
ATOM     24  N   LIG    1       28.991 -19.190   6.753  0.00  0.00    -0.244 NA
ATOM     25  C   LIG    1       27.981 -20.116   6.804  0.00  0.00    +0.130 A 
ATOM     26  C   LIG    1       27.209 -20.057   5.667  0.00  0.00    +0.107 A 
ENDBRANCH  21  22
ENDBRANCH   2  21
TORSDOF 6
ENDMDL
