MODEL 1
REMARK VINA RESULT:       3.2      0.000      0.000
REMARK  Name = *****
REMARK                            x       y       z     vdW  Elec       q    Type
REMARK                         _______ _______ _______ _____ _____    ______ ____
ROOT
ATOM      1  C   LIG    1       26.114 -12.362   3.291  0.00  0.00    +0.064 A 
ATOM      2  C   LIG    1       26.419 -13.729   3.475  0.00  0.00    +0.105 A 
ATOM      3  C   LIG    1       27.790 -14.133   3.635  0.00  0.00    +0.021 A 
ATOM      4  C   LIG    1       27.798 -15.486   3.797  0.00  0.00    +0.123 A 
ATOM      5  N   LIG    1       26.479 -15.879   3.750  0.00  0.00    -0.239 N 
ATOM      6  C   LIG    1       28.925 -13.331   3.638  0.00  0.00    +0.012 A 
ATOM      7  C   LIG    1       28.590 -11.977   3.457  0.00  0.00    +0.002 A 
ATOM      8  N   LIG    1       25.635 -14.825   3.541  0.00  0.00    -0.166 NA
ATOM      9  C   LIG    1       27.250 -11.510   3.289  0.00  0.00    +0.015 A 
ENDROOT
BRANCH   5  10
ATOM     10  C   LIG    1       25.974 -17.203   3.905  0.00  0.00    +0.065 A 
ATOM     11  C   LIG    1       26.848 -18.287   4.025  0.00  0.00    +0.028 A 
ATOM     12  C   LIG    1       26.349 -19.581   4.192  0.00  0.00    +0.006 A 
ATOM     13  C   LIG    1       24.973 -19.832   4.233  0.00  0.00    -0.043 A 
ATOM     14  C   LIG    1       24.102 -18.736   4.121  0.00  0.00    +0.006 A 
ATOM     15  C   LIG    1       24.594 -17.434   3.953  0.00  0.00    +0.028 A 
BRANCH  13  16
ATOM     16  C   LIG    1       24.400 -21.239   4.387  0.00  0.00    +0.033 C 
ATOM     17  C   LIG    1       23.846 -21.571   5.794  0.00  0.00    +0.089 C 
ATOM     18  N   LIG    1       22.522 -20.998   6.072  0.00  0.00    -0.315 NA
ATOM     19  H   LIG    1       22.213 -21.293   6.998  0.00  0.00    +0.122 HD
ATOM     20  C   LIG    1       21.536 -21.399   5.073  0.00  0.00    +0.081 C 
ATOM     21  C   LIG    1       21.966 -21.025   3.654  0.00  0.00    +0.016 C 
ATOM     22  C   LIG    1       23.351 -21.570   3.312  0.00  0.00    +0.010 C 
ENDBRANCH  13  16
ENDBRANCH   5  10
BRANCH   1  26
ATOM     23  N   LIG    1       24.344 -11.555   1.847  0.00  0.00    -0.325 N 
ATOM     24  H   LIG    1       24.952 -11.735   1.050  0.00  0.00    +0.145 HD
ATOM     25  H   LIG    1       23.412 -11.199   1.696  0.00  0.00    +0.145 HD
ATOM     26  C   LIG    1       24.757 -11.824   3.118  0.00  0.00    +0.244 C 
ATOM     27  O   LIG    1       24.024 -11.624   4.082  0.00  0.00    -0.270 OA
ENDBRANCH   1  26
TORSDOF 3
ENDMDL
