MODEL 1
REMARK VINA RESULT:      -7.9      0.000      0.000
REMARK  Name = *****
REMARK                            x       y       z     vdW  Elec       q    Type
REMARK                         _______ _______ _______ _____ _____    ______ ____
ROOT
ATOM      1  C   LIG    1       24.162 -21.671   6.747  0.00  0.00    +0.146 A 
ATOM      2  C   LIG    1       24.319 -23.060   6.876  0.00  0.00    +0.101 A 
ATOM      3  C   LIG    1       25.603 -23.571   7.124  0.00  0.00    +0.019 A 
ATOM      4  C   LIG    1       26.706 -22.726   7.247  0.00  0.00    +0.013 A 
ATOM      5  C   LIG    1       26.555 -21.337   7.134  0.00  0.00    +0.058 A 
ATOM      6  C   LIG    1       25.271 -20.814   6.887  0.00  0.00    +0.059 A 
ENDROOT
BRANCH   5   7
ATOM      7  C   LIG    1       27.784 -20.460   7.232  0.00  0.00    +0.417 C 
ATOM      8  F   LIG    1       27.896 -19.606   6.176  0.00  0.00    -0.166 F 
ATOM      9  F   LIG    1       28.936 -21.185   7.247  0.00  0.00    -0.166 F 
ATOM     10  F   LIG    1       27.814 -19.681   8.347  0.00  0.00    -0.166 F 
ENDBRANCH   5   7
BRANCH   2  11
ATOM     11  C   LIG    1       23.275 -24.079   6.636  0.00  0.00    +0.340 C 
ATOM     12  O   LIG    1       23.561 -25.268   6.518  0.00  0.00    -0.245 OA
BRANCH  11  13
ATOM     13  O   LIG    1       22.007 -23.646   6.667  0.00  0.00    -0.477 OA
ATOM     14  H   LIG    1       21.465 -23.940   7.439  0.00  0.00    +0.295 HD
ENDBRANCH  11  13
ENDBRANCH   2  11
BRANCH   1  15
ATOM     15  O   LIG    1       22.993 -21.066   6.229  0.00  0.00    -0.425 OA
BRANCH  15  17
ATOM     16  C   LIG    1       22.422 -19.170   4.922  0.00  0.00    +0.136 C 
ATOM     17  C   LIG    1       23.015 -20.549   4.938  0.00  0.00    +0.309 C 
ATOM     18  O   LIG    1       23.553 -21.093   3.981  0.00  0.00    -0.251 OA
ENDBRANCH  15  17
ENDBRANCH   1  15
TORSDOF 5
ENDMDL
MODEL 2
REMARK VINA RESULT:      -7.9      3.304      4.846
REMARK  Name = *****
REMARK                            x       y       z     vdW  Elec       q    Type
REMARK                         _______ _______ _______ _____ _____    ______ ____
ROOT
ATOM      1  C   LIG    1       25.376 -22.738   6.956  0.00  0.00    +0.146 A 
ATOM      2  C   LIG    1       23.987 -22.637   6.783  0.00  0.00    +0.101 A 
ATOM      3  C   LIG    1       23.252 -23.808   6.538  0.00  0.00    +0.019 A 
ATOM      4  C   LIG    1       23.878 -25.052   6.471  0.00  0.00    +0.013 A 
ATOM      5  C   LIG    1       25.262 -25.165   6.656  0.00  0.00    +0.058 A 
ATOM      6  C   LIG    1       26.009 -23.996   6.905  0.00  0.00    +0.059 A 
ENDROOT
BRANCH   5   7
ATOM      7  C   LIG    1       25.906 -26.528   6.533  0.00  0.00    +0.417 C 
ATOM      8  F   LIG    1       27.109 -26.477   5.895  0.00  0.00    -0.166 F 
ATOM      9  F   LIG    1       25.142 -27.398   5.816  0.00  0.00    -0.166 F 
ATOM     10  F   LIG    1       26.142 -27.133   7.729  0.00  0.00    -0.166 F 
ENDBRANCH   5   7
BRANCH   2  11
ATOM     11  C   LIG    1       23.213 -21.381   6.693  0.00  0.00    +0.340 C 
ATOM     12  O   LIG    1       22.444 -21.173   5.757  0.00  0.00    -0.245 OA
BRANCH  11  13
ATOM     13  O   LIG    1       23.314 -20.545   7.736  0.00  0.00    -0.477 OA
ATOM     14  H   LIG    1       22.479 -20.106   8.026  0.00  0.00    +0.295 HD
ENDBRANCH  11  13
ENDBRANCH   2  11
BRANCH   1  15
ATOM     15  O   LIG    1       26.247 -21.624   6.930  0.00  0.00    -0.425 OA
BRANCH  15  17
ATOM     16  C   LIG    1       27.912 -20.268   7.940  0.00  0.00    +0.136 C 
ATOM     17  C   LIG    1       26.642 -21.047   8.131  0.00  0.00    +0.309 C 
ATOM     18  O   LIG    1       25.982 -21.071   9.164  0.00  0.00    -0.251 OA
ENDBRANCH  15  17
ENDBRANCH   1  15
TORSDOF 5
ENDMDL
MODEL 3
REMARK VINA RESULT:      -7.4      1.703      2.279
REMARK  Name = *****
REMARK                            x       y       z     vdW  Elec       q    Type
REMARK                         _______ _______ _______ _____ _____    ______ ____
ROOT
ATOM      1  C   LIG    1       25.739 -20.553   5.799  0.00  0.00    +0.146 A 
ATOM      2  C   LIG    1       25.109 -21.138   6.909  0.00  0.00    +0.101 A 
ATOM      3  C   LIG    1       25.838 -21.271   8.102  0.00  0.00    +0.019 A 
ATOM      4  C   LIG    1       27.158 -20.831   8.195  0.00  0.00    +0.013 A 
ATOM      5  C   LIG    1       27.790 -20.234   7.096  0.00  0.00    +0.058 A 
ATOM      6  C   LIG    1       27.067 -20.093   5.895  0.00  0.00    +0.059 A 
ENDROOT
BRANCH   5   7
ATOM      7  C   LIG    1       29.236 -19.809   7.228  0.00  0.00    +0.417 C 
ATOM      8  F   LIG    1       29.733 -19.298   6.066  0.00  0.00    -0.166 F 
ATOM      9  F   LIG    1       30.052 -20.849   7.555  0.00  0.00    -0.166 F 
ATOM     10  F   LIG    1       29.443 -18.855   8.175  0.00  0.00    -0.166 F 
ENDBRANCH   5   7
BRANCH   2  11
ATOM     11  C   LIG    1       23.773 -21.768   6.917  0.00  0.00    +0.340 C 
ATOM     12  O   LIG    1       22.999 -21.608   7.858  0.00  0.00    -0.245 OA
BRANCH  11  13
ATOM     13  O   LIG    1       23.418 -22.422   5.802  0.00  0.00    -0.477 OA
ATOM     14  H   LIG    1       22.456 -22.417   5.580  0.00  0.00    +0.295 HD
ENDBRANCH  11  13
ENDBRANCH   2  11
BRANCH   1  15
ATOM     15  O   LIG    1       25.216 -20.615   4.486  0.00  0.00    -0.425 OA
BRANCH  15  17
ATOM     16  C   LIG    1       23.244 -19.334   4.167  0.00  0.00    +0.136 C 
ATOM     17  C   LIG    1       24.717 -19.457   3.901  0.00  0.00    +0.309 C 
ATOM     18  O   LIG    1       25.405 -18.601   3.356  0.00  0.00    -0.251 OA
ENDBRANCH  15  17
ENDBRANCH   1  15
TORSDOF 5
ENDMDL
MODEL 4
REMARK VINA RESULT:      -7.3      2.932      4.368
REMARK  Name = *****
REMARK                            x       y       z     vdW  Elec       q    Type
REMARK                         _______ _______ _______ _____ _____    ______ ____
ROOT
ATOM      1  C   LIG    1       24.490 -21.247   6.862  0.00  0.00    +0.146 A 
ATOM      2  C   LIG    1       25.822 -21.040   7.255  0.00  0.00    +0.101 A 
ATOM      3  C   LIG    1       26.683 -20.359   6.380  0.00  0.00    +0.019 A 
ATOM      4  C   LIG    1       26.236 -19.888   5.146  0.00  0.00    +0.013 A 
ATOM      5  C   LIG    1       24.904 -20.078   4.751  0.00  0.00    +0.058 A 
ATOM      6  C   LIG    1       24.031 -20.758   5.623  0.00  0.00    +0.059 A 
ENDROOT
BRANCH   5   7
ATOM      7  C   LIG    1       24.472 -19.588   3.387  0.00  0.00    +0.417 C 
ATOM      8  F   LIG    1       24.338 -20.606   2.490  0.00  0.00    -0.166 F 
ATOM      9  F   LIG    1       25.370 -18.726   2.839  0.00  0.00    -0.166 F 
ATOM     10  F   LIG    1       23.277 -18.936   3.392  0.00  0.00    -0.166 F 
ENDBRANCH   5   7
BRANCH   2  11
ATOM     11  C   LIG    1       26.466 -21.597   8.463  0.00  0.00    +0.340 C 
ATOM     12  O   LIG    1       27.686 -21.569   8.603  0.00  0.00    -0.245 OA
BRANCH  11  13
ATOM     13  O   LIG    1       25.644 -22.025   9.431  0.00  0.00    -0.477 OA
ATOM     14  H   LIG    1       25.396 -22.980   9.402  0.00  0.00    +0.295 HD
ENDBRANCH  11  13
ENDBRANCH   2  11
BRANCH   1  15
ATOM     15  O   LIG    1       23.615 -22.145   7.517  0.00  0.00    -0.425 OA
BRANCH  15  17
ATOM     16  C   LIG    1       24.546 -24.158   6.674  0.00  0.00    +0.136 C 
ATOM     17  C   LIG    1       23.301 -23.351   6.902  0.00  0.00    +0.309 C 
ATOM     18  O   LIG    1       22.160 -23.747   6.691  0.00  0.00    -0.251 OA
ENDBRANCH  15  17
ENDBRANCH   1  15
TORSDOF 5
ENDMDL
MODEL 5
REMARK VINA RESULT:      -7.1      1.349      3.391
REMARK  Name = *****
REMARK                            x       y       z     vdW  Elec       q    Type
REMARK                         _______ _______ _______ _____ _____    ______ ____
ROOT
ATOM      1  C   LIG    1       25.530 -22.009   6.585  0.00  0.00    +0.146 A 
ATOM      2  C   LIG    1       25.171 -21.235   5.471  0.00  0.00    +0.101 A 
ATOM      3  C   LIG    1       26.053 -20.231   5.038  0.00  0.00    +0.019 A 
ATOM      4  C   LIG    1       27.264 -20.002   5.689  0.00  0.00    +0.013 A 
ATOM      5  C   LIG    1       27.637 -20.780   6.794  0.00  0.00    +0.058 A 
ATOM      6  C   LIG    1       26.761 -21.792   7.235  0.00  0.00    +0.059 A 
ENDROOT
BRANCH   5   7
ATOM      7  C   LIG    1       28.940 -20.471   7.497  0.00  0.00    +0.417 C 
ATOM      8  F   LIG    1       29.359 -21.500   8.287  0.00  0.00    -0.166 F 
ATOM      9  F   LIG    1       28.841 -19.389   8.317  0.00  0.00    -0.166 F 
ATOM     10  F   LIG    1       29.972 -20.209   6.649  0.00  0.00    -0.166 F 
ENDBRANCH   5   7
BRANCH   2  11
ATOM     11  C   LIG    1       23.870 -21.272   4.771  0.00  0.00    +0.340 C 
ATOM     12  O   LIG    1       23.799 -21.129   3.553  0.00  0.00    -0.245 OA
BRANCH  11  13
ATOM     13  O   LIG    1       22.802 -21.579   5.520  0.00  0.00    -0.477 OA
ATOM     14  H   LIG    1       22.933 -21.554   6.498  0.00  0.00    +0.295 HD
ENDBRANCH  11  13
ENDBRANCH   2  11
BRANCH   1  15
ATOM     15  O   LIG    1       24.622 -22.845   7.277  0.00  0.00    -0.425 OA
BRANCH  15  17
ATOM     16  C   LIG    1       25.595 -24.894   6.579  0.00  0.00    +0.136 C 
ATOM     17  C   LIG    1       24.332 -24.102   6.758  0.00  0.00    +0.309 C 
ATOM     18  O   LIG    1       23.199 -24.539   6.588  0.00  0.00    -0.251 OA
ENDBRANCH  15  17
ENDBRANCH   1  15
TORSDOF 5
ENDMDL
MODEL 6
REMARK VINA RESULT:      -7.1      3.590      4.929
REMARK  Name = *****
REMARK                            x       y       z     vdW  Elec       q    Type
REMARK                         _______ _______ _______ _____ _____    ______ ____
ROOT
ATOM      1  C   LIG    1       26.357 -20.907   6.274  0.00  0.00    +0.146 A 
ATOM      2  C   LIG    1       25.457 -21.122   7.329  0.00  0.00    +0.101 A 
ATOM      3  C   LIG    1       24.111 -20.763   7.150  0.00  0.00    +0.019 A 
ATOM      4  C   LIG    1       23.665 -20.208   5.951  0.00  0.00    +0.013 A 
ATOM      5  C   LIG    1       24.554 -20.003   4.886  0.00  0.00    +0.058 A 
ATOM      6  C   LIG    1       25.906 -20.362   5.055  0.00  0.00    +0.059 A 
ENDROOT
BRANCH   5   7
ATOM      7  C   LIG    1       24.038 -19.360   3.619  0.00  0.00    +0.417 C 
ATOM      8  F   LIG    1       24.089 -20.205   2.551  0.00  0.00    -0.166 F 
ATOM      9  F   LIG    1       24.764 -18.266   3.260  0.00  0.00    -0.166 F 
ATOM     10  F   LIG    1       22.745 -18.942   3.703  0.00  0.00    -0.166 F 
ENDBRANCH   5   7
BRANCH   2  11
ATOM     11  C   LIG    1       25.809 -21.570   8.693  0.00  0.00    +0.340 C 
ATOM     12  O   LIG    1       26.075 -22.747   8.927  0.00  0.00    -0.245 OA
BRANCH  11  13
ATOM     13  O   LIG    1       25.930 -20.610   9.621  0.00  0.00    -0.477 OA
ATOM     14  H   LIG    1       26.252 -19.733   9.302  0.00  0.00    +0.295 HD
ENDBRANCH  11  13
ENDBRANCH   2  11
BRANCH   1  15
ATOM     15  O   LIG    1       27.762 -20.965   6.425  0.00  0.00    -0.425 OA
BRANCH  15  17
ATOM     16  C   LIG    1       29.038 -19.017   5.966  0.00  0.00    +0.136 C 
ATOM     17  C   LIG    1       28.422 -19.894   7.018  0.00  0.00    +0.309 C 
ATOM     18  O   LIG    1       28.398 -19.640   8.217  0.00  0.00    -0.251 OA
ENDBRANCH  15  17
ENDBRANCH   1  15
TORSDOF 5
ENDMDL
MODEL 7
REMARK VINA RESULT:      -7.0      3.092      4.512
REMARK  Name = *****
REMARK                            x       y       z     vdW  Elec       q    Type
REMARK                         _______ _______ _______ _____ _____    ______ ____
ROOT
ATOM      1  C   LIG    1       24.846 -21.506   5.723  0.00  0.00    +0.146 A 
ATOM      2  C   LIG    1       23.862 -22.462   6.025  0.00  0.00    +0.101 A 
ATOM      3  C   LIG    1       22.518 -22.145   5.774  0.00  0.00    +0.019 A 
ATOM      4  C   LIG    1       22.155 -20.912   5.232  0.00  0.00    +0.013 A 
ATOM      5  C   LIG    1       23.131 -19.958   4.915  0.00  0.00    +0.058 A 
ATOM      6  C   LIG    1       24.484 -20.267   5.160  0.00  0.00    +0.059 A 
ENDROOT
BRANCH   5   7
ATOM      7  C   LIG    1       22.691 -18.618   4.368  0.00  0.00    +0.417 C 
ATOM      8  F   LIG    1       23.703 -17.959   3.736  0.00  0.00    -0.166 F 
ATOM      9  F   LIG    1       22.254 -17.779   5.346  0.00  0.00    -0.166 F 
ATOM     10  F   LIG    1       21.678 -18.702   3.463  0.00  0.00    -0.166 F 
ENDBRANCH   5   7
BRANCH   2  11
ATOM     11  C   LIG    1       24.084 -23.745   6.724  0.00  0.00    +0.340 C 
ATOM     12  O   LIG    1       23.209 -24.606   6.767  0.00  0.00    -0.245 OA
BRANCH  11  13
ATOM     13  O   LIG    1       25.319 -23.955   7.202  0.00  0.00    -0.477 OA
ATOM     14  H   LIG    1       25.724 -24.831   6.995  0.00  0.00    +0.295 HD
ENDBRANCH  11  13
ENDBRANCH   2  11
BRANCH   1  15
ATOM     15  O   LIG    1       26.182 -21.594   6.181  0.00  0.00    -0.425 OA
BRANCH  15  17
ATOM     16  C   LIG    1       25.957 -20.650   8.346  0.00  0.00    +0.136 C 
ATOM     17  C   LIG    1       26.672 -20.605   7.026  0.00  0.00    +0.309 C 
ATOM     18  O   LIG    1       27.632 -19.885   6.772  0.00  0.00    -0.251 OA
ENDBRANCH  15  17
ENDBRANCH   1  15
TORSDOF 5
ENDMDL
MODEL 8
REMARK VINA RESULT:      -7.0      3.251      4.832
REMARK  Name = *****
REMARK                            x       y       z     vdW  Elec       q    Type
REMARK                         _______ _______ _______ _____ _____    ______ ____
ROOT
ATOM      1  C   LIG    1       25.393 -21.401   6.782  0.00  0.00    +0.146 A 
ATOM      2  C   LIG    1       26.733 -20.985   6.735  0.00  0.00    +0.101 A 
ATOM      3  C   LIG    1       27.132 -20.117   5.706  0.00  0.00    +0.019 A 
ATOM      4  C   LIG    1       26.224 -19.668   4.747  0.00  0.00    +0.013 A 
ATOM      5  C   LIG    1       24.881 -20.067   4.794  0.00  0.00    +0.058 A 
ATOM      6  C   LIG    1       24.470 -20.935   5.825  0.00  0.00    +0.059 A 
ENDROOT
BRANCH   5   7
ATOM      7  C   LIG    1       23.940 -19.590   3.711  0.00  0.00    +0.417 C 
ATOM      8  F   LIG    1       23.984 -20.380   2.602  0.00  0.00    -0.166 F 
ATOM      9  F   LIG    1       24.239 -18.332   3.283  0.00  0.00    -0.166 F 
ATOM     10  F   LIG    1       22.634 -19.556   4.094  0.00  0.00    -0.166 F 
ENDBRANCH   5   7
BRANCH   2  11
ATOM     11  C   LIG    1       27.827 -21.482   7.595  0.00  0.00    +0.340 C 
ATOM     12  O   LIG    1       28.994 -21.467   7.212  0.00  0.00    -0.245 OA
BRANCH  11  13
ATOM     13  O   LIG    1       27.487 -21.841   8.841  0.00  0.00    -0.477 OA
ATOM     14  H   LIG    1       26.521 -21.952   9.014  0.00  0.00    +0.295 HD
ENDBRANCH  11  13
ENDBRANCH   2  11
BRANCH   1  15
ATOM     15  O   LIG    1       24.939 -22.472   7.587  0.00  0.00    -0.425 OA
BRANCH  15  17
ATOM     16  C   LIG    1       25.762 -24.501   6.672  0.00  0.00    +0.136 C 
ATOM     17  C   LIG    1       24.555 -23.661   6.975  0.00  0.00    +0.309 C 
ATOM     18  O   LIG    1       23.393 -24.019   6.821  0.00  0.00    -0.251 OA
ENDBRANCH  15  17
ENDBRANCH   1  15
TORSDOF 5
ENDMDL
MODEL 9
REMARK VINA RESULT:      -6.9      3.515      4.374
REMARK  Name = *****
REMARK                            x       y       z     vdW  Elec       q    Type
REMARK                         _______ _______ _______ _____ _____    ______ ____
ROOT
ATOM      1  C   LIG    1       24.624 -22.426   5.623  0.00  0.00    +0.146 A 
ATOM      2  C   LIG    1       25.157 -22.190   6.900  0.00  0.00    +0.101 A 
ATOM      3  C   LIG    1       25.770 -23.255   7.580  0.00  0.00    +0.019 A 
ATOM      4  C   LIG    1       25.856 -24.524   7.008  0.00  0.00    +0.013 A 
ATOM      5  C   LIG    1       25.339 -24.765   5.727  0.00  0.00    +0.058 A 
ATOM      6  C   LIG    1       24.725 -23.703   5.035  0.00  0.00    +0.059 A 
ENDROOT
BRANCH   5   7
ATOM      7  C   LIG    1       25.417 -26.165   5.162  0.00  0.00    +0.417 C 
ATOM      8  F   LIG    1       26.443 -26.884   5.699  0.00  0.00    -0.166 F 
ATOM      9  F   LIG    1       25.626 -26.168   3.816  0.00  0.00    -0.166 F 
ATOM     10  F   LIG    1       24.293 -26.904   5.370  0.00  0.00    -0.166 F 
ENDBRANCH   5   7
BRANCH   2  11
ATOM     11  C   LIG    1       25.019 -20.943   7.681  0.00  0.00    +0.340 C 
ATOM     12  O   LIG    1       26.004 -20.291   8.018  0.00  0.00    -0.245 OA
BRANCH  11  13
ATOM     13  O   LIG    1       23.767 -20.515   7.899  0.00  0.00    -0.477 OA
ATOM     14  H   LIG    1       23.634 -19.537   7.898  0.00  0.00    +0.295 HD
ENDBRANCH  11  13
ENDBRANCH   2  11
BRANCH   1  15
ATOM     15  O   LIG    1       23.752 -21.527   4.965  0.00  0.00    -0.425 OA
BRANCH  15  17
ATOM     16  C   LIG    1       23.255 -19.337   4.199  0.00  0.00    +0.136 C 
ATOM     17  C   LIG    1       24.287 -20.421   4.314  0.00  0.00    +0.309 C 
ATOM     18  O   LIG    1       25.465 -20.306   3.993  0.00  0.00    -0.251 OA
ENDBRANCH  15  17
ENDBRANCH   1  15
TORSDOF 5
ENDMDL
