MODEL 1
REMARK VINA RESULT:     -10.9      0.000      0.000
REMARK  Name = *****
REMARK                            x       y       z     vdW  Elec       q    Type
REMARK                         _______ _______ _______ _____ _____    ______ ____
ROOT
ATOM      1  C   LIG    1       24.315 -21.476   5.469  0.00  0.00    +0.021 C 
ATOM      2  C   LIG    1       22.941 -20.908   5.952  0.00  0.00    +0.016 C 
ATOM      3  C   LIG    1       22.758 -19.415   5.704  0.00  0.00    +0.001 C 
ATOM      4  C   LIG    1       22.906 -19.054   4.233  0.00  0.00    +0.000 C 
ATOM      5  C   LIG    1       24.211 -19.572   3.663  0.00  0.00    +0.001 C 
ATOM      6  C   LIG    1       24.399 -21.069   3.943  0.00  0.00    +0.016 C 
ENDROOT
BRANCH   1  10
ATOM      7  C   LIG    1       27.767 -19.956   7.772  0.00  0.00    +0.122 A 
ATOM      8  C   LIG    1       27.801 -20.003   6.391  0.00  0.00    +0.046 A 
ATOM      9  C   LIG    1       26.714 -20.550   5.678  0.00  0.00    +0.008 A 
ATOM     10  C   LIG    1       25.518 -20.951   6.306  0.00  0.00    -0.037 A 
ATOM     11  C   LIG    1       25.469 -20.766   7.695  0.00  0.00    +0.008 A 
ATOM     12  C   LIG    1       26.584 -20.323   8.416  0.00  0.00    +0.046 A 
BRANCH   7  13
ATOM     13  O   LIG    1       28.752 -19.569   8.614  0.00  0.00    -0.475 OA
BRANCH  13  14
ATOM     14  C   LIG    1       30.151 -19.666   8.363  0.00  0.00    +0.203 C 
ATOM     15  C   LIG    1       30.283 -18.880   7.036  0.00  0.00    +0.068 C 
BRANCH  14  17
ATOM     16  C   LIG    1       31.059 -21.956   9.259  0.00  0.00    +0.008 C 
ATOM     17  C   LIG    1       30.571 -21.138   8.068  0.00  0.00    +0.056 C 
ENDBRANCH  14  17
BRANCH  14  18
ATOM     18  C   LIG    1       31.215 -19.033   9.305  0.00  0.00    +0.349 C 
ATOM     19  O   LIG    1       32.362 -18.694   8.948  0.00  0.00    -0.246 OA
BRANCH  18  20
ATOM     20  O   LIG    1       30.811 -18.781  10.571  0.00  0.00    -0.478 OA
ATOM     21  H   LIG    1       29.860 -18.516  10.666  0.00  0.00    +0.295 HD
ENDBRANCH  18  20
ENDBRANCH  14  18
ENDBRANCH  13  14
ENDBRANCH   7  13
ENDBRANCH   1  10
BRANCH   1  22
ATOM     22  C   LIG    1       24.266 -23.026   5.597  0.00  0.00    -0.037 A 
ATOM     23  C   LIG    1       23.613 -23.709   6.652  0.00  0.00    +0.008 A 
ATOM     24  C   LIG    1       23.550 -25.112   6.702  0.00  0.00    +0.046 A 
ATOM     25  C   LIG    1       24.146 -25.865   5.698  0.00  0.00    +0.122 A 
ATOM     26  C   LIG    1       24.816 -25.192   4.685  0.00  0.00    +0.046 A 
ATOM     27  C   LIG    1       24.916 -23.811   4.653  0.00  0.00    +0.008 A 
BRANCH  25  28
ATOM     28  O   LIG    1       24.022 -27.227   5.756  0.00  0.00    -0.475 OA
BRANCH  28  29
ATOM     29  C   LIG    1       25.225 -28.016   5.820  0.00  0.00    +0.203 C 
ATOM     30  C   LIG    1       26.285 -27.470   4.838  0.00  0.00    +0.068 C 
BRANCH  29  31
ATOM     31  C   LIG    1       25.059 -29.561   5.583  0.00  0.00    +0.349 C 
ATOM     32  O   LIG    1       25.962 -30.322   5.367  0.00  0.00    -0.246 OA
BRANCH  31  33
ATOM     33  O   LIG    1       23.763 -29.986   5.583  0.00  0.00    -0.478 OA
ATOM     34  H   LIG    1       23.103 -29.303   5.777  0.00  0.00    +0.295 HD
ENDBRANCH  31  33
ENDBRANCH  29  31
BRANCH  29  35
ATOM     35  C   LIG    1       25.755 -27.867   7.274  0.00  0.00    +0.056 C 
ATOM     36  C   LIG    1       25.307 -28.950   8.246  0.00  0.00    +0.008 C 
ENDBRANCH  29  35
ENDBRANCH  28  29
ENDBRANCH  25  28
ENDBRANCH   1  22
TORSDOF 12
ENDMDL
MODEL 2
REMARK VINA RESULT:     -10.7      1.254      1.844
REMARK  Name = *****
REMARK                            x       y       z     vdW  Elec       q    Type
REMARK                         _______ _______ _______ _____ _____    ______ ____
ROOT
ATOM      1  C   LIG    1       24.749 -22.080   5.859  0.00  0.00    +0.021 C 
ATOM      2  C   LIG    1       23.399 -21.917   6.629  0.00  0.00    +0.016 C 
ATOM      3  C   LIG    1       22.834 -20.501   6.611  0.00  0.00    +0.001 C 
ATOM      4  C   LIG    1       22.612 -19.990   5.195  0.00  0.00    +0.000 C 
ATOM      5  C   LIG    1       23.868 -20.115   4.355  0.00  0.00    +0.001 C 
ATOM      6  C   LIG    1       24.445 -21.536   4.405  0.00  0.00    +0.016 C 
ENDROOT
BRANCH   1  10
ATOM      7  C   LIG    1       28.141 -19.961   7.737  0.00  0.00    +0.122 A 
ATOM      8  C   LIG    1       28.018 -20.024   6.362  0.00  0.00    +0.046 A 
ATOM      9  C   LIG    1       26.962 -20.758   5.782  0.00  0.00    +0.008 A 
ATOM     10  C   LIG    1       25.936 -21.346   6.547  0.00  0.00    -0.037 A 
ATOM     11  C   LIG    1       26.023 -21.150   7.933  0.00  0.00    +0.008 A 
ATOM     12  C   LIG    1       27.124 -20.513   8.517  0.00  0.00    +0.046 A 
BRANCH   7  13
ATOM     13  O   LIG    1       29.140 -19.399   8.457  0.00  0.00    -0.475 OA
BRANCH  13  14
ATOM     14  C   LIG    1       30.528 -19.453   8.142  0.00  0.00    +0.203 C 
ATOM     15  C   LIG    1       30.534 -18.948   6.679  0.00  0.00    +0.068 C 
BRANCH  14  17
ATOM     16  C   LIG    1       30.770 -21.758   9.367  0.00  0.00    +0.008 C 
ATOM     17  C   LIG    1       31.046 -20.923   8.121  0.00  0.00    +0.056 C 
ENDBRANCH  14  17
BRANCH  14  18
ATOM     18  C   LIG    1       31.584 -18.573   8.869  0.00  0.00    +0.349 C 
ATOM     19  O   LIG    1       31.843 -18.643  10.087  0.00  0.00    -0.246 OA
BRANCH  18  20
ATOM     20  O   LIG    1       32.302 -17.737   8.083  0.00  0.00    -0.478 OA
ATOM     21  H   LIG    1       32.444 -18.050   7.153  0.00  0.00    +0.295 HD
ENDBRANCH  18  20
ENDBRANCH  14  18
ENDBRANCH  13  14
ENDBRANCH   7  13
ENDBRANCH   1  10
BRANCH   1  22
ATOM     22  C   LIG    1       25.082 -23.599   5.791  0.00  0.00    -0.037 A 
ATOM     23  C   LIG    1       24.896 -24.396   4.636  0.00  0.00    +0.008 A 
ATOM     24  C   LIG    1       25.257 -25.754   4.604  0.00  0.00    +0.046 A 
ATOM     25  C   LIG    1       25.808 -26.348   5.733  0.00  0.00    +0.122 A 
ATOM     26  C   LIG    1       25.955 -25.572   6.875  0.00  0.00    +0.046 A 
ATOM     27  C   LIG    1       25.563 -24.244   6.924  0.00  0.00    +0.008 A 
BRANCH  25  28
ATOM     28  O   LIG    1       26.191 -27.659   5.647  0.00  0.00    -0.475 OA
BRANCH  28  29
ATOM     29  C   LIG    1       25.240 -28.670   6.031  0.00  0.00    +0.203 C 
ATOM     30  C   LIG    1       23.827 -28.309   5.518  0.00  0.00    +0.068 C 
BRANCH  29  31
ATOM     31  C   LIG    1       25.155 -29.001   7.565  0.00  0.00    +0.349 C 
ATOM     32  O   LIG    1       24.163 -29.370   8.133  0.00  0.00    -0.246 OA
BRANCH  31  33
ATOM     33  O   LIG    1       26.316 -28.778   8.246  0.00  0.00    -0.478 OA
ATOM     34  H   LIG    1       26.539 -29.443   8.914  0.00  0.00    +0.295 HD
ENDBRANCH  31  33
ENDBRANCH  29  31
BRANCH  29  35
ATOM     35  C   LIG    1       25.711 -29.981   5.342  0.00  0.00    +0.056 C 
ATOM     36  C   LIG    1       24.899 -31.224   5.678  0.00  0.00    +0.008 C 
ENDBRANCH  29  35
ENDBRANCH  28  29
ENDBRANCH  25  28
ENDBRANCH   1  22
TORSDOF 12
ENDMDL
MODEL 3
REMARK VINA RESULT:     -10.6      1.248      2.138
REMARK  Name = *****
REMARK                            x       y       z     vdW  Elec       q    Type
REMARK                         _______ _______ _______ _____ _____    ______ ____
ROOT
ATOM      1  C   LIG    1       24.308 -21.464   5.520  0.00  0.00    +0.021 C 
ATOM      2  C   LIG    1       22.942 -20.898   6.028  0.00  0.00    +0.016 C 
ATOM      3  C   LIG    1       22.772 -19.396   5.828  0.00  0.00    +0.001 C 
ATOM      4  C   LIG    1       22.916 -18.992   4.367  0.00  0.00    +0.000 C 
ATOM      5  C   LIG    1       24.212 -19.505   3.773  0.00  0.00    +0.001 C 
ATOM      6  C   LIG    1       24.387 -21.012   4.007  0.00  0.00    +0.016 C 
ENDROOT
BRANCH   1  10
ATOM      7  C   LIG    1       27.789 -20.052   7.847  0.00  0.00    +0.122 A 
ATOM      8  C   LIG    1       27.820 -20.074   6.465  0.00  0.00    +0.046 A 
ATOM      9  C   LIG    1       26.723 -20.588   5.743  0.00  0.00    +0.008 A 
ATOM     10  C   LIG    1       25.520 -20.977   6.365  0.00  0.00    -0.037 A 
ATOM     11  C   LIG    1       25.476 -20.817   7.758  0.00  0.00    +0.008 A 
ATOM     12  C   LIG    1       26.600 -20.408   8.486  0.00  0.00    +0.046 A 
BRANCH   7  13
ATOM     13  O   LIG    1       28.781 -19.698   8.695  0.00  0.00    -0.475 OA
BRANCH  13  14
ATOM     14  C   LIG    1       30.000 -19.056   8.332  0.00  0.00    +0.203 C 
ATOM     15  C   LIG    1       31.042 -19.923   9.078  0.00  0.00    +0.068 C 
BRANCH  14  17
ATOM     16  C   LIG    1       30.172 -17.524  10.453  0.00  0.00    +0.008 C 
ATOM     17  C   LIG    1       30.083 -17.620   8.933  0.00  0.00    +0.056 C 
ENDBRANCH  14  17
BRANCH  14  18
ATOM     18  C   LIG    1       30.510 -19.001   6.863  0.00  0.00    +0.349 C 
ATOM     19  O   LIG    1       30.077 -18.217   5.995  0.00  0.00    -0.246 OA
BRANCH  18  20
ATOM     20  O   LIG    1       31.542 -19.823   6.563  0.00  0.00    -0.478 OA
ATOM     21  H   LIG    1       31.311 -20.785   6.505  0.00  0.00    +0.295 HD
ENDBRANCH  18  20
ENDBRANCH  14  18
ENDBRANCH  13  14
ENDBRANCH   7  13
ENDBRANCH   1  10
BRANCH   1  22
ATOM     22  C   LIG    1       24.243 -23.017   5.601  0.00  0.00    -0.037 A 
ATOM     23  C   LIG    1       23.487 -23.725   6.567  0.00  0.00    +0.008 A 
ATOM     24  C   LIG    1       23.417 -25.128   6.573  0.00  0.00    +0.046 A 
ATOM     25  C   LIG    1       24.109 -25.857   5.613  0.00  0.00    +0.122 A 
ATOM     26  C   LIG    1       24.878 -25.161   4.691  0.00  0.00    +0.046 A 
ATOM     27  C   LIG    1       24.983 -23.780   4.706  0.00  0.00    +0.008 A 
BRANCH  25  28
ATOM     28  O   LIG    1       23.978 -27.219   5.623  0.00  0.00    -0.475 OA
BRANCH  28  29
ATOM     29  C   LIG    1       25.044 -28.000   6.196  0.00  0.00    +0.203 C 
ATOM     30  C   LIG    1       24.532 -28.814   7.405  0.00  0.00    +0.068 C 
BRANCH  29  31
ATOM     31  C   LIG    1       26.334 -27.211   6.623  0.00  0.00    +0.349 C 
ATOM     32  O   LIG    1       26.548 -26.794   7.729  0.00  0.00    -0.246 OA
BRANCH  31  33
ATOM     33  O   LIG    1       27.204 -26.973   5.599  0.00  0.00    -0.478 OA
ATOM     34  H   LIG    1       28.142 -27.027   5.831  0.00  0.00    +0.295 HD
ENDBRANCH  31  33
ENDBRANCH  29  31
BRANCH  29  35
ATOM     35  C   LIG    1       25.501 -28.981   5.080  0.00  0.00    +0.056 C 
ATOM     36  C   LIG    1       25.478 -30.456   5.456  0.00  0.00    +0.008 C 
ENDBRANCH  29  35
ENDBRANCH  28  29
ENDBRANCH  25  28
ENDBRANCH   1  22
TORSDOF 12
ENDMDL
MODEL 4
REMARK VINA RESULT:     -10.6      1.273      8.572
REMARK  Name = *****
REMARK                            x       y       z     vdW  Elec       q    Type
REMARK                         _______ _______ _______ _____ _____    ______ ____
ROOT
ATOM      1  C   LIG    1       24.906 -20.848   5.814  0.00  0.00    +0.021 C 
ATOM      2  C   LIG    1       25.139 -20.304   4.367  0.00  0.00    +0.016 C 
ATOM      3  C   LIG    1       23.896 -20.315   3.486  0.00  0.00    +0.001 C 
ATOM      4  C   LIG    1       22.754 -19.512   4.093  0.00  0.00    +0.000 C 
ATOM      5  C   LIG    1       22.454 -19.958   5.510  0.00  0.00    +0.001 C 
ATOM      6  C   LIG    1       23.718 -19.972   6.381  0.00  0.00    +0.016 C 
ENDROOT
BRANCH   1  10
ATOM      7  C   LIG    1       24.129 -25.197   5.863  0.00  0.00    +0.122 A 
ATOM      8  C   LIG    1       25.038 -24.649   4.978  0.00  0.00    +0.046 A 
ATOM      9  C   LIG    1       25.225 -23.251   4.936  0.00  0.00    +0.008 A 
ATOM     10  C   LIG    1       24.608 -22.375   5.850  0.00  0.00    -0.037 A 
ATOM     11  C   LIG    1       23.795 -22.980   6.818  0.00  0.00    +0.008 A 
ATOM     12  C   LIG    1       23.525 -24.353   6.796  0.00  0.00    +0.046 A 
BRANCH   7  13
ATOM     13  O   LIG    1       23.747 -26.491   5.966  0.00  0.00    -0.475 OA
BRANCH  13  14
ATOM     14  C   LIG    1       24.616 -27.619   5.986  0.00  0.00    +0.203 C 
ATOM     15  C   LIG    1       25.561 -27.261   7.159  0.00  0.00    +0.068 C 
BRANCH  14  17
ATOM     16  C   LIG    1       26.988 -27.461   4.879  0.00  0.00    +0.008 C 
ATOM     17  C   LIG    1       25.489 -27.681   4.696  0.00  0.00    +0.056 C 
ENDBRANCH  14  17
BRANCH  14  18
ATOM     18  C   LIG    1       24.114 -29.055   6.306  0.00  0.00    +0.349 C 
ATOM     19  O   LIG    1       24.420 -29.698   7.331  0.00  0.00    -0.246 OA
BRANCH  18  20
ATOM     20  O   LIG    1       23.229 -29.584   5.429  0.00  0.00    -0.478 OA
ATOM     21  H   LIG    1       22.872 -30.475   5.675  0.00  0.00    +0.295 HD
ENDBRANCH  18  20
ENDBRANCH  14  18
ENDBRANCH  13  14
ENDBRANCH   7  13
ENDBRANCH   1  10
BRANCH   1  22
ATOM     22  C   LIG    1       26.197 -20.578   6.642  0.00  0.00    -0.037 A 
ATOM     23  C   LIG    1       26.228 -20.515   8.056  0.00  0.00    +0.008 A 
ATOM     24  C   LIG    1       27.425 -20.319   8.765  0.00  0.00    +0.046 A 
ATOM     25  C   LIG    1       28.621 -20.175   8.072  0.00  0.00    +0.122 A 
ATOM     26  C   LIG    1       28.581 -20.202   6.684  0.00  0.00    +0.046 A 
ATOM     27  C   LIG    1       27.398 -20.354   5.980  0.00  0.00    +0.008 A 
BRANCH  25  28
ATOM     28  O   LIG    1       29.772 -20.034   8.799  0.00  0.00    -0.475 OA
BRANCH  28  29
ATOM     29  C   LIG    1       30.463 -18.772   8.738  0.00  0.00    +0.203 C 
ATOM     30  C   LIG    1       29.492 -17.641   8.330  0.00  0.00    +0.068 C 
BRANCH  29  31
ATOM     31  C   LIG    1       31.730 -18.714   7.811  0.00  0.00    +0.349 C 
ATOM     32  O   LIG    1       31.998 -19.523   6.965  0.00  0.00    -0.246 OA
BRANCH  31  33
ATOM     33  O   LIG    1       32.568 -17.672   8.081  0.00  0.00    -0.478 OA
ATOM     34  H   LIG    1       32.372 -16.849   7.609  0.00  0.00    +0.295 HD
ENDBRANCH  31  33
ENDBRANCH  29  31
BRANCH  29  35
ATOM     35  C   LIG    1       30.982 -18.501  10.178  0.00  0.00    +0.056 C 
ATOM     36  C   LIG    1       30.354 -17.308  10.885  0.00  0.00    +0.008 C 
ENDBRANCH  29  35
ENDBRANCH  28  29
ENDBRANCH  25  28
ENDBRANCH   1  22
TORSDOF 12
ENDMDL
MODEL 5
REMARK VINA RESULT:     -10.2      1.302      7.959
REMARK  Name = *****
REMARK                            x       y       z     vdW  Elec       q    Type
REMARK                         _______ _______ _______ _____ _____    ______ ____
ROOT
ATOM      1  C   LIG    1       24.825 -20.855   5.636  0.00  0.00    +0.021 C 
ATOM      2  C   LIG    1       25.075 -20.400   4.162  0.00  0.00    +0.016 C 
ATOM      3  C   LIG    1       23.854 -20.508   3.256  0.00  0.00    +0.001 C 
ATOM      4  C   LIG    1       22.675 -19.704   3.785  0.00  0.00    +0.000 C 
ATOM      5  C   LIG    1       22.354 -20.065   5.221  0.00  0.00    +0.001 C 
ATOM      6  C   LIG    1       23.597 -19.982   6.118  0.00  0.00    +0.016 C 
ENDROOT
BRANCH   1  10
ATOM      7  C   LIG    1       24.034 -25.182   6.053  0.00  0.00    +0.122 A 
ATOM      8  C   LIG    1       23.327 -24.257   6.797  0.00  0.00    +0.046 A 
ATOM      9  C   LIG    1       23.638 -22.885   6.695  0.00  0.00    +0.008 A 
ATOM     10  C   LIG    1       24.572 -22.385   5.767  0.00  0.00    -0.037 A 
ATOM     11  C   LIG    1       25.175 -23.340   4.936  0.00  0.00    +0.008 A 
ATOM     12  C   LIG    1       24.947 -24.711   5.107  0.00  0.00    +0.046 A 
BRANCH   7  13
ATOM     13  O   LIG    1       23.946 -26.531   6.103  0.00  0.00    -0.475 OA
BRANCH  13  14
ATOM     14  C   LIG    1       25.036 -27.443   6.004  0.00  0.00    +0.203 C 
ATOM     15  C   LIG    1       24.366 -28.652   5.307  0.00  0.00    +0.068 C 
BRANCH  14  17
ATOM     16  C   LIG    1       24.936 -29.257   7.894  0.00  0.00    +0.008 C 
ATOM     17  C   LIG    1       25.500 -27.924   7.412  0.00  0.00    +0.056 C 
ENDBRANCH  14  17
BRANCH  14  18
ATOM     18  C   LIG    1       26.300 -27.144   5.148  0.00  0.00    +0.349 C 
ATOM     19  O   LIG    1       26.327 -27.155   3.901  0.00  0.00    -0.246 OA
BRANCH  18  20
ATOM     20  O   LIG    1       27.408 -26.781   5.835  0.00  0.00    -0.478 OA
ATOM     21  H   LIG    1       27.949 -27.532   6.191  0.00  0.00    +0.295 HD
ENDBRANCH  18  20
ENDBRANCH  14  18
ENDBRANCH  13  14
ENDBRANCH   7  13
ENDBRANCH   1  10
BRANCH   1  22
ATOM     22  C   LIG    1       26.087 -20.492   6.471  0.00  0.00    -0.037 A 
ATOM     23  C   LIG    1       27.299 -20.028   5.906  0.00  0.00    +0.008 A 
ATOM     24  C   LIG    1       28.398 -19.663   6.701  0.00  0.00    +0.046 A 
ATOM     25  C   LIG    1       28.311 -19.762   8.085  0.00  0.00    +0.122 A 
ATOM     26  C   LIG    1       27.134 -20.253   8.633  0.00  0.00    +0.046 A 
ATOM     27  C   LIG    1       26.062 -20.651   7.852  0.00  0.00    +0.008 A 
BRANCH  25  28
ATOM     28  O   LIG    1       29.386 -19.353   8.827  0.00  0.00    -0.475 OA
BRANCH  28  29
ATOM     29  C   LIG    1       30.702 -19.738   8.385  0.00  0.00    +0.203 C 
ATOM     30  C   LIG    1       30.819 -19.608   6.850  0.00  0.00    +0.068 C 
BRANCH  29  31
ATOM     31  C   LIG    1       31.190 -21.169   8.814  0.00  0.00    +0.349 C 
ATOM     32  O   LIG    1       32.169 -21.390   9.473  0.00  0.00    -0.246 OA
BRANCH  31  33
ATOM     33  O   LIG    1       30.428 -22.186   8.320  0.00  0.00    -0.478 OA
ATOM     34  H   LIG    1       30.083 -22.049   7.425  0.00  0.00    +0.295 HD
ENDBRANCH  31  33
ENDBRANCH  29  31
BRANCH  29  35
ATOM     35  C   LIG    1       31.685 -18.738   9.057  0.00  0.00    +0.056 C 
ATOM     36  C   LIG    1       31.098 -17.377   9.403  0.00  0.00    +0.008 C 
ENDBRANCH  29  35
ENDBRANCH  28  29
ENDBRANCH  25  28
ENDBRANCH   1  22
TORSDOF 12
ENDMDL
MODEL 6
REMARK VINA RESULT:      -9.1      1.422      8.199
REMARK  Name = *****
REMARK                            x       y       z     vdW  Elec       q    Type
REMARK                         _______ _______ _______ _____ _____    ______ ____
ROOT
ATOM      1  C   LIG    1       25.028 -21.111   5.709  0.00  0.00    +0.021 C 
ATOM      2  C   LIG    1       24.661 -20.543   4.300  0.00  0.00    +0.016 C 
ATOM      3  C   LIG    1       23.172 -20.579   3.977  0.00  0.00    +0.001 C 
ATOM      4  C   LIG    1       22.344 -19.817   5.002  0.00  0.00    +0.000 C 
ATOM      5  C   LIG    1       22.635 -20.290   6.413  0.00  0.00    +0.001 C 
ATOM      6  C   LIG    1       24.139 -20.278   6.717  0.00  0.00    +0.016 C 
ENDROOT
BRANCH   1  10
ATOM      7  C   LIG    1       24.428 -25.482   5.959  0.00  0.00    +0.122 A 
ATOM      8  C   LIG    1       24.917 -24.898   4.805  0.00  0.00    +0.046 A 
ATOM      9  C   LIG    1       25.041 -23.495   4.724  0.00  0.00    +0.008 A 
ATOM     10  C   LIG    1       24.801 -22.647   5.823  0.00  0.00    -0.037 A 
ATOM     11  C   LIG    1       24.435 -23.286   7.016  0.00  0.00    +0.008 A 
ATOM     12  C   LIG    1       24.208 -24.666   7.070  0.00  0.00    +0.046 A 
BRANCH   7  13
ATOM     13  O   LIG    1       24.144 -26.787   6.173  0.00  0.00    -0.475 OA
BRANCH  13  14
ATOM     14  C   LIG    1       25.094 -27.815   6.438  0.00  0.00    +0.203 C 
ATOM     15  C   LIG    1       26.328 -26.991   6.877  0.00  0.00    +0.068 C 
BRANCH  14  17
ATOM     16  C   LIG    1       25.426 -30.094   5.184  0.00  0.00    +0.008 C 
ATOM     17  C   LIG    1       25.487 -28.571   5.132  0.00  0.00    +0.056 C 
ENDBRANCH  14  17
BRANCH  14  18
ATOM     18  C   LIG    1       24.896 -28.865   7.569  0.00  0.00    +0.349 C 
ATOM     19  O   LIG    1       25.738 -29.115   8.455  0.00  0.00    -0.246 OA
BRANCH  18  20
ATOM     20  O   LIG    1       23.689 -29.476   7.606  0.00  0.00    -0.478 OA
ATOM     21  H   LIG    1       23.029 -29.068   8.223  0.00  0.00    +0.295 HD
ENDBRANCH  18  20
ENDBRANCH  14  18
ENDBRANCH  13  14
ENDBRANCH   7  13
ENDBRANCH   1  10
BRANCH   1  22
ATOM     22  C   LIG    1       26.534 -20.815   5.969  0.00  0.00    -0.037 A 
ATOM     23  C   LIG    1       27.266 -19.807   5.296  0.00  0.00    +0.008 A 
ATOM     24  C   LIG    1       28.612 -19.541   5.598  0.00  0.00    +0.046 A 
ATOM     25  C   LIG    1       29.260 -20.284   6.578  0.00  0.00    +0.122 A 
ATOM     26  C   LIG    1       28.549 -21.295   7.209  0.00  0.00    +0.046 A 
ATOM     27  C   LIG    1       27.234 -21.589   6.887  0.00  0.00    +0.008 A 
BRANCH  25  28
ATOM     28  O   LIG    1       30.556 -19.962   6.876  0.00  0.00    -0.475 OA
BRANCH  28  29
ATOM     29  C   LIG    1       30.873 -19.619   8.239  0.00  0.00    +0.203 C 
ATOM     30  C   LIG    1       32.037 -18.604   8.287  0.00  0.00    +0.068 C 
BRANCH  29  31
ATOM     31  C   LIG    1       31.203 -20.818   9.201  0.00  0.00    +0.349 C 
ATOM     32  O   LIG    1       30.399 -21.391   9.883  0.00  0.00    -0.246 OA
BRANCH  31  33
ATOM     33  O   LIG    1       32.528 -21.139   9.252  0.00  0.00    -0.478 OA
ATOM     34  H   LIG    1       32.761 -21.839   9.880  0.00  0.00    +0.295 HD
ENDBRANCH  31  33
ENDBRANCH  29  31
BRANCH  29  35
ATOM     35  C   LIG    1       29.593 -18.954   8.819  0.00  0.00    +0.056 C 
ATOM     36  C   LIG    1       29.828 -17.699   9.649  0.00  0.00    +0.008 C 
ENDBRANCH  29  35
ENDBRANCH  28  29
ENDBRANCH  25  28
ENDBRANCH   1  22
TORSDOF 12
ENDMDL
MODEL 7
REMARK VINA RESULT:      -9.0      1.569      2.449
REMARK  Name = *****
REMARK                            x       y       z     vdW  Elec       q    Type
REMARK                         _______ _______ _______ _____ _____    ______ ____
ROOT
ATOM      1  C   LIG    1       24.481 -22.953   6.123  0.00  0.00    +0.021 C 
ATOM      2  C   LIG    1       23.051 -22.664   6.687  0.00  0.00    +0.016 C 
ATOM      3  C   LIG    1       22.552 -21.247   6.434  0.00  0.00    +0.001 C 
ATOM      4  C   LIG    1       22.533 -20.900   4.952  0.00  0.00    +0.000 C 
ATOM      5  C   LIG    1       23.879 -21.156   4.304  0.00  0.00    +0.001 C 
ATOM      6  C   LIG    1       24.386 -22.576   4.590  0.00  0.00    +0.016 C 
ENDROOT
BRANCH   1  10
ATOM      7  C   LIG    1       27.596 -20.702   8.304  0.00  0.00    +0.122 A 
ATOM      8  C   LIG    1       26.258 -20.393   8.458  0.00  0.00    +0.046 A 
ATOM      9  C   LIG    1       25.284 -21.081   7.705  0.00  0.00    +0.008 A 
ATOM     10  C   LIG    1       25.599 -22.174   6.874  0.00  0.00    -0.037 A 
ATOM     11  C   LIG    1       26.951 -22.544   6.844  0.00  0.00    +0.008 A 
ATOM     12  C   LIG    1       27.932 -21.797   7.506  0.00  0.00    +0.046 A 
BRANCH   7  13
ATOM     13  O   LIG    1       28.662 -20.080   8.857  0.00  0.00    -0.475 OA
BRANCH  13  14
ATOM     14  C   LIG    1       29.840 -19.672   8.168  0.00  0.00    +0.203 C 
ATOM     15  C   LIG    1       29.898 -18.165   8.518  0.00  0.00    +0.068 C 
BRANCH  14  17
ATOM     16  C   LIG    1       29.591 -18.462   5.856  0.00  0.00    +0.008 C 
ATOM     17  C   LIG    1       29.657 -19.778   6.624  0.00  0.00    +0.056 C 
ENDBRANCH  14  17
BRANCH  14  18
ATOM     18  C   LIG    1       31.251 -20.217   8.531  0.00  0.00    +0.349 C 
ATOM     19  O   LIG    1       32.128 -19.561   9.130  0.00  0.00    -0.246 OA
BRANCH  18  20
ATOM     20  O   LIG    1       31.482 -21.515   8.226  0.00  0.00    -0.478 OA
ATOM     21  H   LIG    1       31.390 -22.149   8.982  0.00  0.00    +0.295 HD
ENDBRANCH  18  20
ENDBRANCH  14  18
ENDBRANCH  13  14
ENDBRANCH   7  13
ENDBRANCH   1  10
BRANCH   1  22
ATOM     22  C   LIG    1       24.757 -24.477   6.273  0.00  0.00    -0.037 A 
ATOM     23  C   LIG    1       23.891 -25.486   5.786  0.00  0.00    +0.008 A 
ATOM     24  C   LIG    1       24.204 -26.851   5.898  0.00  0.00    +0.046 A 
ATOM     25  C   LIG    1       25.391 -27.238   6.509  0.00  0.00    +0.122 A 
ATOM     26  C   LIG    1       26.219 -26.247   7.018  0.00  0.00    +0.046 A 
ATOM     27  C   LIG    1       25.896 -24.902   6.946  0.00  0.00    +0.008 A 
BRANCH  25  28
ATOM     28  O   LIG    1       25.683 -28.575   6.557  0.00  0.00    -0.475 OA
BRANCH  28  29
ATOM     29  C   LIG    1       25.559 -29.251   7.823  0.00  0.00    +0.203 C 
ATOM     30  C   LIG    1       26.159 -28.393   8.959  0.00  0.00    +0.068 C 
BRANCH  29  31
ATOM     31  C   LIG    1       26.168 -30.698   7.902  0.00  0.00    +0.349 C 
ATOM     32  O   LIG    1       25.830 -31.622   7.215  0.00  0.00    -0.246 OA
BRANCH  31  33
ATOM     33  O   LIG    1       27.104 -30.853   8.883  0.00  0.00    -0.478 OA
ATOM     34  H   LIG    1       27.389 -31.765   9.044  0.00  0.00    +0.295 HD
ENDBRANCH  31  33
ENDBRANCH  29  31
BRANCH  29  35
ATOM     35  C   LIG    1       24.033 -29.422   8.066  0.00  0.00    +0.056 C 
ATOM     36  C   LIG    1       23.653 -30.133   9.358  0.00  0.00    +0.008 C 
ENDBRANCH  29  35
ENDBRANCH  28  29
ENDBRANCH  25  28
ENDBRANCH   1  22
TORSDOF 12
ENDMDL
MODEL 8
REMARK VINA RESULT:      -8.4      3.867      9.238
REMARK  Name = *****
REMARK                            x       y       z     vdW  Elec       q    Type
REMARK                         _______ _______ _______ _____ _____    ______ ____
ROOT
ATOM      1  C   LIG    1       25.008 -29.792   6.708  0.00  0.00    +0.021 C 
ATOM      2  C   LIG    1       26.138 -30.555   5.943  0.00  0.00    +0.016 C 
ATOM      3  C   LIG    1       26.055 -32.073   6.053  0.00  0.00    +0.001 C 
ATOM      4  C   LIG    1       24.723 -32.613   5.552  0.00  0.00    +0.000 C 
ATOM      5  C   LIG    1       23.554 -31.926   6.229  0.00  0.00    +0.001 C 
ATOM      6  C   LIG    1       23.664 -30.398   6.138  0.00  0.00    +0.016 C 
ENDROOT
BRANCH   1  10
ATOM      7  C   LIG    1       25.258 -30.170  11.104  0.00  0.00    +0.122 A 
ATOM      8  C   LIG    1       24.035 -30.057  10.470  0.00  0.00    +0.046 A 
ATOM      9  C   LIG    1       23.980 -29.874   9.072  0.00  0.00    +0.008 A 
ATOM     10  C   LIG    1       25.127 -29.921   8.255  0.00  0.00    -0.037 A 
ATOM     11  C   LIG    1       26.337 -30.169   8.918  0.00  0.00    +0.008 A 
ATOM     12  C   LIG    1       26.407 -30.245  10.314  0.00  0.00    +0.046 A 
BRANCH   7  13
ATOM     13  O   LIG    1       25.501 -30.242  12.433  0.00  0.00    -0.475 OA
BRANCH  13  14
ATOM     14  C   LIG    1       26.090 -29.219  13.230  0.00  0.00    +0.203 C 
ATOM     15  C   LIG    1       25.502 -29.537  14.626  0.00  0.00    +0.068 C 
BRANCH  14  17
ATOM     16  C   LIG    1       24.165 -27.440  13.307  0.00  0.00    +0.008 C 
ATOM     17  C   LIG    1       25.562 -27.810  12.820  0.00  0.00    +0.056 C 
ENDBRANCH  14  17
BRANCH  14  18
ATOM     18  C   LIG    1       27.625 -29.118  13.460  0.00  0.00    +0.349 C 
ATOM     19  O   LIG    1       28.420 -30.073  13.346  0.00  0.00    -0.246 OA
BRANCH  18  20
ATOM     20  O   LIG    1       28.104 -27.881  13.730  0.00  0.00    -0.478 OA
ATOM     21  H   LIG    1       27.981 -27.576  14.665  0.00  0.00    +0.295 HD
ENDBRANCH  18  20
ENDBRANCH  14  18
ENDBRANCH  13  14
ENDBRANCH   7  13
ENDBRANCH   1  10
BRANCH   1  22
ATOM     22  C   LIG    1       25.107 -28.285   6.331  0.00  0.00    -0.037 A 
ATOM     23  C   LIG    1       24.440 -27.705   5.225  0.00  0.00    +0.008 A 
ATOM     24  C   LIG    1       24.516 -26.329   4.949  0.00  0.00    +0.046 A 
ATOM     25  C   LIG    1       25.270 -25.502   5.774  0.00  0.00    +0.122 A 
ATOM     26  C   LIG    1       25.951 -26.081   6.835  0.00  0.00    +0.046 A 
ATOM     27  C   LIG    1       25.912 -27.442   7.088  0.00  0.00    +0.008 A 
BRANCH  25  28
ATOM     28  O   LIG    1       25.281 -24.161   5.501  0.00  0.00    -0.475 OA
BRANCH  28  29
ATOM     29  C   LIG    1       24.432 -23.302   6.287  0.00  0.00    +0.203 C 
ATOM     30  C   LIG    1       23.160 -24.056   6.734  0.00  0.00    +0.068 C 
BRANCH  29  31
ATOM     31  C   LIG    1       24.009 -21.941   5.621  0.00  0.00    +0.349 C 
ATOM     32  O   LIG    1       23.514 -21.018   6.206  0.00  0.00    -0.246 OA
BRANCH  31  33
ATOM     33  O   LIG    1       24.200 -21.902   4.271  0.00  0.00    -0.478 OA
ATOM     34  H   LIG    1       25.120 -21.797   3.985  0.00  0.00    +0.295 HD
ENDBRANCH  31  33
ENDBRANCH  29  31
BRANCH  29  35
ATOM     35  C   LIG    1       25.263 -22.916   7.543  0.00  0.00    +0.056 C 
ATOM     36  C   LIG    1       26.649 -22.354   7.262  0.00  0.00    +0.008 C 
ENDBRANCH  29  35
ENDBRANCH  28  29
ENDBRANCH  25  28
ENDBRANCH   1  22
TORSDOF 12
ENDMDL
MODEL 9
REMARK VINA RESULT:      -8.3      4.248      8.866
REMARK  Name = *****
REMARK                            x       y       z     vdW  Elec       q    Type
REMARK                         _______ _______ _______ _____ _____    ______ ____
ROOT
ATOM      1  C   LIG    1       24.748 -30.329   8.244  0.00  0.00    +0.021 C 
ATOM      2  C   LIG    1       23.642 -31.184   7.542  0.00  0.00    +0.016 C 
ATOM      3  C   LIG    1       24.016 -31.668   6.146  0.00  0.00    +0.001 C 
ATOM      4  C   LIG    1       25.294 -32.495   6.149  0.00  0.00    +0.000 C 
ATOM      5  C   LIG    1       26.433 -31.755   6.821  0.00  0.00    +0.001 C 
ATOM      6  C   LIG    1       26.036 -31.246   8.213  0.00  0.00    +0.016 C 
ENDROOT
BRANCH   1  10
ATOM      7  C   LIG    1       25.454 -26.395   6.361  0.00  0.00    +0.122 A 
ATOM      8  C   LIG    1       26.298 -26.872   7.347  0.00  0.00    +0.046 A 
ATOM      9  C   LIG    1       26.019 -28.101   7.979  0.00  0.00    +0.008 A 
ATOM     10  C   LIG    1       24.969 -28.945   7.568  0.00  0.00    -0.037 A 
ATOM     11  C   LIG    1       24.214 -28.490   6.477  0.00  0.00    +0.008 A 
ATOM     12  C   LIG    1       24.422 -27.224   5.918  0.00  0.00    +0.046 A 
BRANCH   7  13
ATOM     13  O   LIG    1       25.506 -25.200   5.730  0.00  0.00    -0.475 OA
BRANCH  13  14
ATOM     14  C   LIG    1       24.910 -23.989   6.185  0.00  0.00    +0.203 C 
ATOM     15  C   LIG    1       25.756 -23.682   7.444  0.00  0.00    +0.068 C 
BRANCH  14  17
ATOM     16  C   LIG    1       22.628 -22.979   6.990  0.00  0.00    +0.008 C 
ATOM     17  C   LIG    1       23.445 -24.225   6.662  0.00  0.00    +0.056 C 
ENDBRANCH  14  17
BRANCH  14  18
ATOM     18  C   LIG    1       24.948 -22.675   5.353  0.00  0.00    +0.349 C 
ATOM     19  O   LIG    1       25.468 -21.609   5.740  0.00  0.00    -0.246 OA
BRANCH  18  20
ATOM     20  O   LIG    1       24.436 -22.750   4.102  0.00  0.00    -0.478 OA
ATOM     21  H   LIG    1       23.658 -23.356   4.001  0.00  0.00    +0.295 HD
ENDBRANCH  18  20
ENDBRANCH  14  18
ENDBRANCH  13  14
ENDBRANCH   7  13
ENDBRANCH   1  10
BRANCH   1  22
ATOM     22  C   LIG    1       24.307 -30.093   9.718  0.00  0.00    -0.037 A 
ATOM     23  C   LIG    1       25.188 -29.679  10.746  0.00  0.00    +0.008 A 
ATOM     24  C   LIG    1       24.738 -29.428  12.054  0.00  0.00    +0.046 A 
ATOM     25  C   LIG    1       23.393 -29.593  12.364  0.00  0.00    +0.122 A 
ATOM     26  C   LIG    1       22.540 -30.035  11.361  0.00  0.00    +0.046 A 
ATOM     27  C   LIG    1       22.986 -30.322  10.081  0.00  0.00    +0.008 A 
BRANCH  25  28
ATOM     28  O   LIG    1       22.985 -29.293  13.635  0.00  0.00    -0.475 OA
BRANCH  28  29
ATOM     29  C   LIG    1       22.155 -28.131  13.825  0.00  0.00    +0.203 C 
ATOM     30  C   LIG    1       22.097 -27.744  15.319  0.00  0.00    +0.068 C 
BRANCH  29  31
ATOM     31  C   LIG    1       20.689 -28.222  13.265  0.00  0.00    +0.349 C 
ATOM     32  O   LIG    1       19.958 -29.163  13.410  0.00  0.00    -0.246 OA
BRANCH  31  33
ATOM     33  O   LIG    1       20.310 -27.141  12.525  0.00  0.00    -0.478 OA
ATOM     34  H   LIG    1       19.438 -26.777  12.739  0.00  0.00    +0.295 HD
ENDBRANCH  31  33
ENDBRANCH  29  31
BRANCH  29  35
ATOM     35  C   LIG    1       22.840 -26.985  13.028  0.00  0.00    +0.056 C 
ATOM     36  C   LIG    1       23.701 -26.040  13.854  0.00  0.00    +0.008 C 
ENDBRANCH  29  35
ENDBRANCH  28  29
ENDBRANCH  25  28
ENDBRANCH   1  22
TORSDOF 12
ENDMDL
