MODEL 1
REMARK VINA RESULT:      -7.6      0.000      0.000
REMARK  Name = *****
REMARK                            x       y       z     vdW  Elec       q    Type
REMARK                         _______ _______ _______ _____ _____    ______ ____
ROOT
ATOM      1  C   LIG    1       24.820 -20.928   6.388  0.00  0.00    +0.034 A 
ATOM      2  C   LIG    1       24.854 -20.954   7.783  0.00  0.00    +0.027 A 
ATOM      3  C   LIG    1       26.033 -20.652   8.474  0.00  0.00    +0.047 A 
ATOM      4  C   LIG    1       27.199 -20.326   7.785  0.00  0.00    +0.121 A 
ATOM      5  C   LIG    1       27.147 -20.237   6.390  0.00  0.00    +0.047 A 
ATOM      6  C   LIG    1       25.967 -20.540   5.695  0.00  0.00    +0.027 A 
ENDROOT
BRANCH   1   9
ATOM      7  C   LIG    1       21.451 -21.204   4.711  0.00  0.00    +0.109 C 
ATOM      8  C   LIG    1       22.590 -20.473   5.364  0.00  0.00    +0.214 C 
ATOM      9  N   LIG    1       23.608 -21.313   5.788  0.00  0.00    -0.286 N 
ATOM     10  H   LIG    1       23.513 -22.268   5.523  0.00  0.00    +0.155 HD
ATOM     11  O   LIG    1       22.591 -19.256   5.416  0.00  0.00    -0.276 OA
ENDBRANCH   1   9
BRANCH   4  12
ATOM     12  O   LIG    1       28.430 -20.115   8.353  0.00  0.00    -0.489 OA
BRANCH  12  13
ATOM     13  C   LIG    1       29.476 -21.041   8.010  0.00  0.00    +0.261 C 
BRANCH  13  14
ATOM     14  C   LIG    1       30.854 -20.473   8.393  0.00  0.00    +0.166 C 
BRANCH  14  15
ATOM     15  O   LIG    1       31.832 -21.526   8.336  0.00  0.00    -0.387 OA
ATOM     16  H   LIG    1       32.086 -21.718   9.260  0.00  0.00    +0.210 HD
ENDBRANCH  14  15
BRANCH  14  17
ATOM     17  C   LIG    1       31.268 -19.327   7.462  0.00  0.00    +0.115 C 
BRANCH  17  18
ATOM     18  N   LIG    1       30.882 -18.011   7.992  0.00  0.00    -0.311 NA
ATOM     19  H   LIG    1       29.867 -17.906   7.916  0.00  0.00    +0.122 HD
BRANCH  18  20
ATOM     20  C   LIG    1       31.344 -17.804   9.369  0.00  0.00    +0.048 C 
ATOM     21  C   LIG    1       30.220 -17.431  10.343  0.00  0.00    +0.024 C 
ATOM     22  C   LIG    1       32.414 -16.710   9.388  0.00  0.00    +0.024 C 
ENDBRANCH  18  20
ENDBRANCH  17  18
ENDBRANCH  14  17
ENDBRANCH  13  14
ENDBRANCH  12  13
ENDBRANCH   4  12
TORSDOF 8
ENDMDL
MODEL 2
REMARK VINA RESULT:      -7.4      2.275      7.737
REMARK  Name = *****
REMARK                            x       y       z     vdW  Elec       q    Type
REMARK                         _______ _______ _______ _____ _____    ______ ____
ROOT
ATOM      1  C   LIG    1       30.656 -18.887   7.802  0.00  0.00    +0.034 A 
ATOM      2  C   LIG    1       30.412 -20.132   8.382  0.00  0.00    +0.027 A 
ATOM      3  C   LIG    1       29.393 -20.960   7.895  0.00  0.00    +0.047 A 
ATOM      4  C   LIG    1       28.598 -20.555   6.826  0.00  0.00    +0.121 A 
ATOM      5  C   LIG    1       28.885 -19.336   6.204  0.00  0.00    +0.047 A 
ATOM      6  C   LIG    1       29.905 -18.505   6.690  0.00  0.00    +0.027 A 
ENDROOT
BRANCH   1   9
ATOM      7  C   LIG    1       32.746 -16.468   9.806  0.00  0.00    +0.109 C 
ATOM      8  C   LIG    1       31.461 -17.062   9.301  0.00  0.00    +0.214 C 
ATOM      9  N   LIG    1       31.655 -18.104   8.407  0.00  0.00    -0.286 N 
ATOM     10  H   LIG    1       32.599 -18.397   8.289  0.00  0.00    +0.155 HD
ATOM     11  O   LIG    1       30.392 -16.670   9.731  0.00  0.00    -0.276 OA
ENDBRANCH   1   9
BRANCH   4  12
ATOM     12  O   LIG    1       27.511 -21.235   6.337  0.00  0.00    -0.489 OA
BRANCH  12  13
ATOM     13  C   LIG    1       26.211 -20.707   6.653  0.00  0.00    +0.261 C 
BRANCH  13  14
ATOM     14  C   LIG    1       25.335 -20.621   5.391  0.00  0.00    +0.166 C 
BRANCH  14  15
ATOM     15  O   LIG    1       26.177 -20.410   4.245  0.00  0.00    -0.387 OA
ATOM     16  H   LIG    1       27.050 -20.788   4.469  0.00  0.00    +0.210 HD
ENDBRANCH  14  15
BRANCH  14  17
ATOM     17  C   LIG    1       24.503 -21.895   5.198  0.00  0.00    +0.115 C 
BRANCH  17  18
ATOM     18  N   LIG    1       25.187 -23.091   5.710  0.00  0.00    -0.311 NA
ATOM     19  H   LIG    1       26.067 -22.809   6.148  0.00  0.00    +0.122 HD
BRANCH  18  20
ATOM     20  C   LIG    1       24.349 -23.865   6.632  0.00  0.00    +0.048 C 
ATOM     21  C   LIG    1       24.130 -25.317   6.191  0.00  0.00    +0.024 C 
ATOM     22  C   LIG    1       22.992 -23.174   6.790  0.00  0.00    +0.024 C 
ENDBRANCH  18  20
ENDBRANCH  17  18
ENDBRANCH  14  17
ENDBRANCH  13  14
ENDBRANCH  12  13
ENDBRANCH   4  12
TORSDOF 8
ENDMDL
MODEL 3
REMARK VINA RESULT:      -7.3      3.146      7.780
REMARK  Name = *****
REMARK                            x       y       z     vdW  Elec       q    Type
REMARK                         _______ _______ _______ _____ _____    ______ ____
ROOT
ATOM      1  C   LIG    1       27.958 -20.270   7.272  0.00  0.00    +0.034 A 
ATOM      2  C   LIG    1       27.130 -20.469   8.378  0.00  0.00    +0.027 A 
ATOM      3  C   LIG    1       25.752 -20.652   8.214  0.00  0.00    +0.047 A 
ATOM      4  C   LIG    1       25.177 -20.631   6.946  0.00  0.00    +0.121 A 
ATOM      5  C   LIG    1       26.016 -20.497   5.835  0.00  0.00    +0.047 A 
ATOM      6  C   LIG    1       27.396 -20.313   5.995  0.00  0.00    +0.027 A 
ENDROOT
BRANCH   1   9
ATOM      7  C   LIG    1       31.498 -18.998   7.572  0.00  0.00    +0.109 C 
ATOM      8  C   LIG    1       30.097 -19.007   7.028  0.00  0.00    +0.214 C 
ATOM      9  N   LIG    1       29.315 -20.029   7.547  0.00  0.00    -0.286 N 
ATOM     10  H   LIG    1       29.734 -20.558   8.278  0.00  0.00    +0.155 HD
ATOM     11  O   LIG    1       29.726 -18.131   6.268  0.00  0.00    -0.276 OA
ENDBRANCH   1   9
BRANCH   4  12
ATOM     12  O   LIG    1       23.833 -20.695   6.678  0.00  0.00    -0.489 OA
BRANCH  12  13
ATOM     13  C   LIG    1       23.370 -21.823   5.913  0.00  0.00    +0.261 C 
BRANCH  13  14
ATOM     14  C   LIG    1       23.171 -23.050   6.819  0.00  0.00    +0.166 C 
BRANCH  14  15
ATOM     15  O   LIG    1       21.862 -23.599   6.592  0.00  0.00    -0.387 OA
ATOM     16  H   LIG    1       21.766 -23.694   5.624  0.00  0.00    +0.210 HD
ENDBRANCH  14  15
BRANCH  14  17
ATOM     17  C   LIG    1       24.237 -24.122   6.554  0.00  0.00    +0.115 C 
BRANCH  17  18
ATOM     18  N   LIG    1       23.645 -25.429   6.233  0.00  0.00    -0.311 NA
ATOM     19  H   LIG    1       22.765 -25.281   5.733  0.00  0.00    +0.122 HD
BRANCH  18  20
ATOM     20  C   LIG    1       24.560 -26.287   5.473  0.00  0.00    +0.048 C 
ATOM     21  C   LIG    1       24.378 -27.782   5.759  0.00  0.00    +0.024 C 
ATOM     22  C   LIG    1       26.005 -25.885   5.777  0.00  0.00    +0.024 C 
ENDBRANCH  18  20
ENDBRANCH  17  18
ENDBRANCH  14  17
ENDBRANCH  13  14
ENDBRANCH  12  13
ENDBRANCH   4  12
TORSDOF 8
ENDMDL
MODEL 4
REMARK VINA RESULT:      -7.3      0.953      1.645
REMARK  Name = *****
REMARK                            x       y       z     vdW  Elec       q    Type
REMARK                         _______ _______ _______ _____ _____    ______ ____
ROOT
ATOM      1  C   LIG    1       24.679 -21.104   6.461  0.00  0.00    +0.034 A 
ATOM      2  C   LIG    1       25.761 -20.739   5.659  0.00  0.00    +0.027 A 
ATOM      3  C   LIG    1       26.983 -20.369   6.233  0.00  0.00    +0.047 A 
ATOM      4  C   LIG    1       27.143 -20.351   7.616  0.00  0.00    +0.121 A 
ATOM      5  C   LIG    1       26.079 -20.779   8.417  0.00  0.00    +0.047 A 
ATOM      6  C   LIG    1       24.853 -21.149   7.845  0.00  0.00    +0.027 A 
ENDROOT
BRANCH   1   9
ATOM      7  C   LIG    1       21.384 -21.111   4.623  0.00  0.00    +0.109 C 
ATOM      8  C   LIG    1       22.530 -20.476   5.359  0.00  0.00    +0.214 C 
ATOM      9  N   LIG    1       23.478 -21.392   5.791  0.00  0.00    -0.286 N 
ATOM     10  H   LIG    1       23.342 -22.327   5.478  0.00  0.00    +0.155 HD
ATOM     11  O   LIG    1       22.597 -19.265   5.466  0.00  0.00    -0.276 OA
ENDBRANCH   1   9
BRANCH   4  12
ATOM     12  O   LIG    1       28.256 -19.908   8.286  0.00  0.00    -0.489 OA
BRANCH  12  13
ATOM     13  C   LIG    1       29.356 -19.437   7.489  0.00  0.00    +0.261 C 
BRANCH  13  14
ATOM     14  C   LIG    1       30.694 -19.956   8.044  0.00  0.00    +0.166 C 
BRANCH  14  15
ATOM     15  O   LIG    1       31.719 -19.779   7.051  0.00  0.00    -0.387 OA
ATOM     16  H   LIG    1       32.523 -20.206   7.405  0.00  0.00    +0.210 HD
ENDBRANCH  14  15
BRANCH  14  17
ATOM     17  C   LIG    1       31.087 -19.226   9.334  0.00  0.00    +0.115 C 
BRANCH  17  18
ATOM     18  N   LIG    1       30.129 -18.170   9.692  0.00  0.00    -0.311 NA
ATOM     19  H   LIG    1       29.622 -18.453  10.535  0.00  0.00    +0.122 HD
BRANCH  18  20
ATOM     20  C   LIG    1       30.772 -16.863   9.863  0.00  0.00    +0.048 C 
ATOM     21  C   LIG    1       32.133 -16.754   9.168  0.00  0.00    +0.024 C 
ATOM     22  C   LIG    1       30.939 -16.569  11.356  0.00  0.00    +0.024 C 
ENDBRANCH  18  20
ENDBRANCH  17  18
ENDBRANCH  14  17
ENDBRANCH  13  14
ENDBRANCH  12  13
ENDBRANCH   4  12
TORSDOF 8
ENDMDL
MODEL 5
REMARK VINA RESULT:      -7.3      2.286      7.762
REMARK  Name = *****
REMARK                            x       y       z     vdW  Elec       q    Type
REMARK                         _______ _______ _______ _____ _____    ______ ____
ROOT
ATOM      1  C   LIG    1       31.155 -18.630   9.074  0.00  0.00    +0.034 A 
ATOM      2  C   LIG    1       31.219 -20.022   9.154  0.00  0.00    +0.027 A 
ATOM      3  C   LIG    1       30.486 -20.823   8.271  0.00  0.00    +0.047 A 
ATOM      4  C   LIG    1       29.672 -20.249   7.298  0.00  0.00    +0.121 A 
ATOM      5  C   LIG    1       29.658 -18.855   7.176  0.00  0.00    +0.047 A 
ATOM      6  C   LIG    1       30.391 -18.050   8.060  0.00  0.00    +0.027 A 
ENDROOT
BRANCH   1   9
ATOM      7  C   LIG    1       32.386 -16.518  11.947  0.00  0.00    +0.109 C 
ATOM      8  C   LIG    1       31.345 -17.084  11.023  0.00  0.00    +0.214 C 
ATOM      9  N   LIG    1       31.874 -17.917  10.049  0.00  0.00    -0.286 N 
ATOM     10  H   LIG    1       32.844 -18.119  10.139  0.00  0.00    +0.155 HD
ATOM     11  O   LIG    1       30.165 -16.854  11.213  0.00  0.00    -0.276 OA
ENDBRANCH   1   9
BRANCH   4  12
ATOM     12  O   LIG    1       28.834 -20.932   6.453  0.00  0.00    -0.489 OA
BRANCH  12  13
ATOM     13  C   LIG    1       27.530 -21.271   6.956  0.00  0.00    +0.261 C 
BRANCH  13  14
ATOM     14  C   LIG    1       26.433 -20.534   6.169  0.00  0.00    +0.166 C 
BRANCH  14  15
ATOM     15  O   LIG    1       26.888 -20.305   4.824  0.00  0.00    -0.387 OA
ATOM     16  H   LIG    1       27.855 -20.177   4.878  0.00  0.00    +0.210 HD
ENDBRANCH  14  15
BRANCH  14  17
ATOM     17  C   LIG    1       25.124 -21.333   6.147  0.00  0.00    +0.115 C 
BRANCH  17  18
ATOM     18  N   LIG    1       25.223 -22.541   5.314  0.00  0.00    -0.311 NA
ATOM     19  H   LIG    1       26.205 -22.701   5.076  0.00  0.00    +0.122 HD
BRANCH  18  20
ATOM     20  C   LIG    1       24.626 -23.717   5.958  0.00  0.00    +0.048 C 
ATOM     21  C   LIG    1       23.348 -23.403   6.742  0.00  0.00    +0.024 C 
ATOM     22  C   LIG    1       25.651 -24.359   6.895  0.00  0.00    +0.024 C 
ENDBRANCH  18  20
ENDBRANCH  17  18
ENDBRANCH  14  17
ENDBRANCH  13  14
ENDBRANCH  12  13
ENDBRANCH   4  12
TORSDOF 8
ENDMDL
MODEL 6
REMARK VINA RESULT:      -7.3      2.005      7.343
REMARK  Name = *****
REMARK                            x       y       z     vdW  Elec       q    Type
REMARK                         _______ _______ _______ _____ _____    ______ ____
ROOT
ATOM      1  C   LIG    1       30.735 -18.908   7.949  0.00  0.00    +0.034 A 
ATOM      2  C   LIG    1       30.622 -20.176   8.520  0.00  0.00    +0.027 A 
ATOM      3  C   LIG    1       29.622 -21.062   8.103  0.00  0.00    +0.047 A 
ATOM      4  C   LIG    1       28.713 -20.694   7.115  0.00  0.00    +0.121 A 
ATOM      5  C   LIG    1       28.865 -19.448   6.497  0.00  0.00    +0.047 A 
ATOM      6  C   LIG    1       29.867 -18.558   6.913  0.00  0.00    +0.027 A 
ENDROOT
BRANCH   1   9
ATOM      7  C   LIG    1       32.816 -16.341   9.770  0.00  0.00    +0.109 C 
ATOM      8  C   LIG    1       31.533 -16.993   9.336  0.00  0.00    +0.214 C 
ATOM      9  N   LIG    1       31.728 -18.070   8.484  0.00  0.00    -0.286 N 
ATOM     10  H   LIG    1       32.676 -18.341   8.347  0.00  0.00    +0.155 HD
ATOM     11  O   LIG    1       30.467 -16.613   9.784  0.00  0.00    -0.276 OA
ENDBRANCH   1   9
BRANCH   4  12
ATOM     12  O   LIG    1       27.635 -21.437   6.705  0.00  0.00    -0.489 OA
BRANCH  12  13
ATOM     13  C   LIG    1       26.961 -22.221   7.705  0.00  0.00    +0.261 C 
BRANCH  13  14
ATOM     14  C   LIG    1       25.663 -21.530   8.158  0.00  0.00    +0.166 C 
BRANCH  14  15
ATOM     15  O   LIG    1       25.948 -20.677   9.280  0.00  0.00    -0.387 OA
ATOM     16  H   LIG    1       26.589 -21.160   9.838  0.00  0.00    +0.210 HD
ENDBRANCH  14  15
BRANCH  14  17
ATOM     17  C   LIG    1       25.040 -20.707   7.023  0.00  0.00    +0.115 C 
BRANCH  17  18
ATOM     18  N   LIG    1       24.844 -21.500   5.801  0.00  0.00    -0.311 NA
ATOM     19  H   LIG    1       24.482 -22.422   6.058  0.00  0.00    +0.122 HD
BRANCH  18  20
ATOM     20  C   LIG    1       23.973 -20.829   4.830  0.00  0.00    +0.048 C 
ATOM     21  C   LIG    1       24.721 -19.879   3.890  0.00  0.00    +0.024 C 
ATOM     22  C   LIG    1       22.884 -20.053   5.575  0.00  0.00    +0.024 C 
ENDBRANCH  18  20
ENDBRANCH  17  18
ENDBRANCH  14  17
ENDBRANCH  13  14
ENDBRANCH  12  13
ENDBRANCH   4  12
TORSDOF 8
ENDMDL
MODEL 7
REMARK VINA RESULT:      -7.2      1.885      2.347
REMARK  Name = *****
REMARK                            x       y       z     vdW  Elec       q    Type
REMARK                         _______ _______ _______ _____ _____    ______ ____
ROOT
ATOM      1  C   LIG    1       25.944 -21.891   6.562  0.00  0.00    +0.034 A 
ATOM      2  C   LIG    1       26.015 -20.805   5.688  0.00  0.00    +0.027 A 
ATOM      3  C   LIG    1       27.102 -19.924   5.729  0.00  0.00    +0.047 A 
ATOM      4  C   LIG    1       28.132 -20.108   6.647  0.00  0.00    +0.121 A 
ATOM      5  C   LIG    1       28.093 -21.232   7.480  0.00  0.00    +0.047 A 
ATOM      6  C   LIG    1       27.005 -22.116   7.441  0.00  0.00    +0.027 A 
ENDROOT
BRANCH   1   9
ATOM      7  C   LIG    1       22.503 -23.424   6.765  0.00  0.00    +0.109 C 
ATOM      8  C   LIG    1       23.562 -22.411   7.095  0.00  0.00    +0.214 C 
ATOM      9  N   LIG    1       24.780 -22.675   6.486  0.00  0.00    -0.286 N 
ATOM     10  H   LIG    1       24.779 -23.429   5.836  0.00  0.00    +0.155 HD
ATOM     11  O   LIG    1       23.292 -21.437   7.774  0.00  0.00    -0.276 OA
ENDBRANCH   1   9
BRANCH   4  12
ATOM     12  O   LIG    1       29.187 -19.253   6.846  0.00  0.00    -0.489 OA
BRANCH  12  13
ATOM     13  C   LIG    1       29.680 -19.122   8.191  0.00  0.00    +0.261 C 
BRANCH  13  14
ATOM     14  C   LIG    1       31.201 -19.341   8.239  0.00  0.00    +0.166 C 
BRANCH  14  15
ATOM     15  O   LIG    1       31.654 -19.797   6.952  0.00  0.00    -0.387 OA
ATOM     16  H   LIG    1       32.411 -19.228   6.709  0.00  0.00    +0.210 HD
ENDBRANCH  14  15
BRANCH  14  17
ATOM     17  C   LIG    1       31.942 -18.055   8.626  0.00  0.00    +0.115 C 
BRANCH  17  18
ATOM     18  N   LIG    1       32.340 -18.045  10.042  0.00  0.00    -0.311 NA
ATOM     19  H   LIG    1       33.334 -18.280  10.109  0.00  0.00    +0.122 HD
BRANCH  18  20
ATOM     20  C   LIG    1       32.040 -16.769  10.700  0.00  0.00    +0.048 C 
ATOM     21  C   LIG    1       32.815 -16.555  12.004  0.00  0.00    +0.024 C 
ATOM     22  C   LIG    1       30.538 -16.682  10.982  0.00  0.00    +0.024 C 
ENDBRANCH  18  20
ENDBRANCH  17  18
ENDBRANCH  14  17
ENDBRANCH  13  14
ENDBRANCH  12  13
ENDBRANCH   4  12
TORSDOF 8
ENDMDL
MODEL 8
REMARK VINA RESULT:      -7.1      5.518      7.592
REMARK  Name = *****
REMARK                            x       y       z     vdW  Elec       q    Type
REMARK                         _______ _______ _______ _____ _____    ______ ____
ROOT
ATOM      1  C   LIG    1       25.646 -27.479   5.654  0.00  0.00    +0.034 A 
ATOM      2  C   LIG    1       25.920 -26.956   6.918  0.00  0.00    +0.027 A 
ATOM      3  C   LIG    1       25.858 -25.577   7.150  0.00  0.00    +0.047 A 
ATOM      4  C   LIG    1       25.530 -24.697   6.122  0.00  0.00    +0.121 A 
ATOM      5  C   LIG    1       25.192 -25.226   4.871  0.00  0.00    +0.047 A 
ATOM      6  C   LIG    1       25.254 -26.607   4.636  0.00  0.00    +0.027 A 
ENDROOT
BRANCH   1   9
ATOM      7  C   LIG    1       25.314 -31.231   5.433  0.00  0.00    +0.109 C 
ATOM      8  C   LIG    1       24.838 -29.839   5.738  0.00  0.00    +0.214 C 
ATOM      9  N   LIG    1       25.802 -28.868   5.508  0.00  0.00    -0.286 N 
ATOM     10  H   LIG    1       26.640 -29.191   5.080  0.00  0.00    +0.155 HD
ATOM     11  O   LIG    1       23.685 -29.643   6.077  0.00  0.00    -0.276 OA
ENDBRANCH   1   9
BRANCH   4  12
ATOM     12  O   LIG    1       25.541 -23.327   6.208  0.00  0.00    -0.489 OA
BRANCH  12  13
ATOM     13  C   LIG    1       26.165 -22.749   7.368  0.00  0.00    +0.261 C 
BRANCH  13  14
ATOM     14  C   LIG    1       25.192 -21.808   8.099  0.00  0.00    +0.166 C 
BRANCH  14  15
ATOM     15  O   LIG    1       25.872 -21.190   9.205  0.00  0.00    -0.387 OA
ATOM     16  H   LIG    1       25.716 -20.229   9.123  0.00  0.00    +0.210 HD
ENDBRANCH  14  15
BRANCH  14  17
ATOM     17  C   LIG    1       24.641 -20.729   7.158  0.00  0.00    +0.115 C 
BRANCH  17  18
ATOM     18  N   LIG    1       23.383 -21.139   6.517  0.00  0.00    -0.311 NA
ATOM     19  H   LIG    1       22.598 -20.802   7.080  0.00  0.00    +0.122 HD
BRANCH  18  20
ATOM     20  C   LIG    1       23.286 -20.678   5.127  0.00  0.00    +0.048 C 
ATOM     21  C   LIG    1       24.647 -20.439   4.464  0.00  0.00    +0.024 C 
ATOM     22  C   LIG    1       22.463 -19.388   5.075  0.00  0.00    +0.024 C 
ENDBRANCH  18  20
ENDBRANCH  17  18
ENDBRANCH  14  17
ENDBRANCH  13  14
ENDBRANCH  12  13
ENDBRANCH   4  12
TORSDOF 8
ENDMDL
MODEL 9
REMARK VINA RESULT:      -7.1      4.098      4.984
REMARK  Name = *****
REMARK                            x       y       z     vdW  Elec       q    Type
REMARK                         _______ _______ _______ _____ _____    ______ ____
ROOT
ATOM      1  C   LIG    1       24.266 -25.356   6.282  0.00  0.00    +0.034 A 
ATOM      2  C   LIG    1       25.578 -24.957   6.539  0.00  0.00    +0.027 A 
ATOM      3  C   LIG    1       25.858 -23.651   6.957  0.00  0.00    +0.047 A 
ATOM      4  C   LIG    1       24.834 -22.720   7.117  0.00  0.00    +0.121 A 
ATOM      5  C   LIG    1       23.514 -23.139   6.921  0.00  0.00    +0.047 A 
ATOM      6  C   LIG    1       23.231 -24.447   6.502  0.00  0.00    +0.027 A 
ENDROOT
BRANCH   1   9
ATOM      7  C   LIG    1       24.240 -29.069   5.606  0.00  0.00    +0.109 C 
ATOM      8  C   LIG    1       24.671 -27.819   6.321  0.00  0.00    +0.214 C 
ATOM      9  N   LIG    1       24.098 -26.667   5.802  0.00  0.00    -0.286 N 
ATOM     10  H   LIG    1       23.407 -26.812   5.101  0.00  0.00    +0.155 HD
ATOM     11  O   LIG    1       25.394 -27.887   7.298  0.00  0.00    -0.276 OA
ENDBRANCH   1   9
BRANCH   4  12
ATOM     12  O   LIG    1       25.002 -21.392   7.419  0.00  0.00    -0.489 OA
BRANCH  12  13
ATOM     13  C   LIG    1       26.099 -20.710   6.786  0.00  0.00    +0.261 C 
BRANCH  13  14
ATOM     14  C   LIG    1       27.151 -20.287   7.826  0.00  0.00    +0.166 C 
BRANCH  14  15
ATOM     15  O   LIG    1       26.570 -20.350   9.140  0.00  0.00    -0.387 OA
ATOM     16  H   LIG    1       27.092 -19.744   9.702  0.00  0.00    +0.210 HD
ENDBRANCH  14  15
BRANCH  14  17
ATOM     17  C   LIG    1       28.394 -21.183   7.763  0.00  0.00    +0.115 C 
BRANCH  17  18
ATOM     18  N   LIG    1       29.551 -20.580   8.440  0.00  0.00    -0.311 NA
ATOM     19  H   LIG    1       30.342 -21.227   8.387  0.00  0.00    +0.122 HD
BRANCH  18  20
ATOM     20  C   LIG    1       29.895 -19.261   7.896  0.00  0.00    +0.048 C 
ATOM     21  C   LIG    1       31.178 -19.259   7.059  0.00  0.00    +0.024 C 
ATOM     22  C   LIG    1       30.037 -18.258   9.044  0.00  0.00    +0.024 C 
ENDBRANCH  18  20
ENDBRANCH  17  18
ENDBRANCH  14  17
ENDBRANCH  13  14
ENDBRANCH  12  13
ENDBRANCH   4  12
TORSDOF 8
ENDMDL
