MODEL 1
REMARK VINA RESULT:      -7.7      0.000      0.000
REMARK  Name = *****
REMARK                            x       y       z     vdW  Elec       q    Type
REMARK                         _______ _______ _______ _____ _____    ______ ____
ROOT
ATOM      1  C   LIG    1       24.989 -29.024   6.468  0.00  0.00    +0.046 A 
ATOM      2  C   LIG    1       24.785 -29.909   7.588  0.00  0.00    +0.105 A 
ATOM      3  N   LIG    1       24.575 -31.163   7.146  0.00  0.00    -0.170 NA
ATOM      4  N   LIG    1       24.650 -31.100   5.807  0.00  0.00    -0.268 N 
ATOM      5  C   LIG    1       24.902 -29.840   5.358  0.00  0.00    +0.119 A 
ENDROOT
BRANCH   2   6
ATOM      6  C   LIG    1       24.730 -29.637   9.037  0.00  0.00    +0.041 A 
ATOM      7  C   LIG    1       25.821 -29.087   9.733  0.00  0.00    +0.155 A 
ATOM      8  F   LIG    1       26.979 -28.800   9.114  0.00  0.00    -0.203 F 
ATOM      9  C   LIG    1       25.764 -28.858  11.116  0.00  0.00    +0.085 A 
ATOM     10  C   LIG    1       24.606 -29.150  11.831  0.00  0.00    +0.047 A 
ATOM     11  C   LIG    1       23.551 -29.763  11.170  0.00  0.00    +0.044 A 
ATOM     12 CL   LIG    1       22.199 -30.335  12.075  0.00  0.00    -0.084 Cl
ATOM     13  C   LIG    1       23.605 -30.002   9.791  0.00  0.00    +0.033 A 
BRANCH   9  14
ATOM     14  N   LIG    1       26.919 -28.385  11.824  0.00  0.00    -0.218 N 
ATOM     15  H   LIG    1       26.724 -27.596  12.442  0.00  0.00    +0.173 HD
BRANCH  14  16
ATOM     16  S   LIG    1       27.941 -29.515  12.551  0.00  0.00    +0.040 S 
ATOM     17  O   LIG    1       29.125 -29.586  11.717  0.00  0.00    -0.155 OA
ATOM     18  O   LIG    1       27.193 -30.700  12.901  0.00  0.00    -0.155 OA
ATOM     19  C   LIG    1       28.421 -28.674  14.047  0.00  0.00    +0.218 C 
ENDBRANCH  14  16
ENDBRANCH   9  14
ENDBRANCH   2   6
BRANCH   1  22
ATOM     20  C   LIG    1       24.464 -25.448   6.418  0.00  0.00    +0.216 A 
ATOM     21  N   LIG    1       24.241 -26.766   6.528  0.00  0.00    -0.214 NA
ATOM     22  C   LIG    1       25.280 -27.599   6.352  0.00  0.00    +0.080 A 
ATOM     23  C   LIG    1       26.554 -27.141   6.086  0.00  0.00    +0.048 A 
ATOM     24  C   LIG    1       26.692 -25.778   6.016  0.00  0.00    +0.116 A 
ATOM     25  N   LIG    1       25.665 -24.920   6.157  0.00  0.00    -0.223 NA
BRANCH  20  26
ATOM     26  N   LIG    1       23.404 -24.559   6.543  0.00  0.00    -0.312 N 
ATOM     27  H   LIG    1       23.029 -24.649   7.481  0.00  0.00    +0.149 HD
BRANCH  26  28
ATOM     28  C   LIG    1       23.713 -23.200   6.106  0.00  0.00    +0.126 C 
BRANCH  28  29
ATOM     29  C   LIG    1       24.039 -22.269   7.293  0.00  0.00    +0.090 C 
ATOM     30  C   LIG    1       23.305 -20.931   7.158  0.00  0.00    +0.029 C 
BRANCH  29  32
ATOM     31  C   LIG    1       26.126 -21.648   8.510  0.00  0.00    +0.400 C 
ATOM     32  N   LIG    1       25.482 -22.073   7.385  0.00  0.00    -0.277 N 
ATOM     33  H   LIG    1       26.068 -22.221   6.578  0.00  0.00    +0.152 HD
ATOM     34  O   LIG    1       25.611 -21.297   9.544  0.00  0.00    -0.227 OA
BRANCH  31  36
ATOM     35  C   LIG    1       27.857 -21.140   7.014  0.00  0.00    +0.282 C 
ATOM     36  O   LIG    1       27.463 -21.718   8.258  0.00  0.00    -0.454 OA
ENDBRANCH  31  36
ENDBRANCH  29  32
ENDBRANCH  28  29
ENDBRANCH  26  28
ENDBRANCH  20  26
ENDBRANCH   1  22
BRANCH   4  37
ATOM     37  C   LIG    1       24.531 -32.320   5.005  0.00  0.00    +0.101 C 
ATOM     38  C   LIG    1       23.891 -33.482   5.777  0.00  0.00    +0.032 C 
ATOM     39  C   LIG    1       25.879 -32.777   4.436  0.00  0.00    +0.032 C 
ENDBRANCH   4  37
TORSDOF 10
ENDMDL
MODEL 2
REMARK VINA RESULT:      -7.5      2.496      2.891
REMARK  Name = *****
REMARK                            x       y       z     vdW  Elec       q    Type
REMARK                         _______ _______ _______ _____ _____    ______ ____
ROOT
ATOM      1  C   LIG    1       24.519 -29.197   6.734  0.00  0.00    +0.046 A 
ATOM      2  C   LIG    1       24.373 -30.005   7.919  0.00  0.00    +0.105 A 
ATOM      3  N   LIG    1       23.933 -31.232   7.583  0.00  0.00    -0.170 NA
ATOM      4  N   LIG    1       23.811 -31.228   6.247  0.00  0.00    -0.268 N 
ATOM      5  C   LIG    1       24.156 -30.032   5.696  0.00  0.00    +0.119 A 
ENDROOT
BRANCH   2   6
ATOM      6  C   LIG    1       24.575 -29.678   9.343  0.00  0.00    +0.041 A 
ATOM      7  C   LIG    1       23.553 -29.838  10.296  0.00  0.00    +0.155 A 
ATOM      8  F   LIG    1       22.331 -30.278   9.951  0.00  0.00    -0.203 F 
ATOM      9  C   LIG    1       23.752 -29.498  11.644  0.00  0.00    +0.085 A 
ATOM     10  C   LIG    1       24.985 -29.015  12.073  0.00  0.00    +0.047 A 
ATOM     11  C   LIG    1       25.975 -28.782  11.130  0.00  0.00    +0.044 A 
ATOM     12 CL   LIG    1       27.426 -27.978  11.603  0.00  0.00    -0.084 Cl
ATOM     13  C   LIG    1       25.780 -29.110   9.783  0.00  0.00    +0.033 A 
BRANCH   9  14
ATOM     14  N   LIG    1       22.669 -29.578  12.582  0.00  0.00    -0.218 N 
ATOM     15  H   LIG    1       22.837 -30.238  13.344  0.00  0.00    +0.173 HD
BRANCH  14  16
ATOM     16  S   LIG    1       21.969 -28.145  13.134  0.00  0.00    +0.040 S 
ATOM     17  O   LIG    1       20.657 -28.073  12.522  0.00  0.00    -0.155 OA
ATOM     18  O   LIG    1       22.916 -27.060  13.019  0.00  0.00    -0.155 OA
ATOM     19  C   LIG    1       21.708 -28.500  14.861  0.00  0.00    +0.218 C 
ENDBRANCH  14  16
ENDBRANCH   9  14
ENDBRANCH   2   6
BRANCH   1  22
ATOM     20  C   LIG    1       24.418 -25.602   6.377  0.00  0.00    +0.216 A 
ATOM     21  N   LIG    1       24.042 -26.870   6.599  0.00  0.00    -0.214 NA
ATOM     22  C   LIG    1       24.975 -27.831   6.498  0.00  0.00    +0.080 A 
ATOM     23  C   LIG    1       26.291 -27.551   6.198  0.00  0.00    +0.048 A 
ATOM     24  C   LIG    1       26.588 -26.225   6.012  0.00  0.00    +0.116 A 
ATOM     25  N   LIG    1       25.671 -25.243   6.076  0.00  0.00    -0.223 NA
BRANCH  20  26
ATOM     26  N   LIG    1       23.471 -24.586   6.423  0.00  0.00    -0.312 N 
ATOM     27  H   LIG    1       23.006 -24.631   7.324  0.00  0.00    +0.149 HD
BRANCH  26  28
ATOM     28  C   LIG    1       23.984 -23.276   6.033  0.00  0.00    +0.126 C 
BRANCH  28  29
ATOM     29  C   LIG    1       24.236 -22.365   7.253  0.00  0.00    +0.090 C 
ATOM     30  C   LIG    1       23.445 -21.058   7.134  0.00  0.00    +0.029 C 
BRANCH  29  32
ATOM     31  C   LIG    1       26.237 -21.532   8.486  0.00  0.00    +0.400 C 
ATOM     32  N   LIG    1       25.665 -22.107   7.389  0.00  0.00    -0.277 N 
ATOM     33  H   LIG    1       26.296 -22.323   6.633  0.00  0.00    +0.152 HD
ATOM     34  O   LIG    1       25.660 -21.085   9.447  0.00  0.00    -0.227 OA
BRANCH  31  36
ATOM     35  C   LIG    1       28.124 -20.471   7.588  0.00  0.00    +0.282 C 
ATOM     36  O   LIG    1       27.587 -21.581   8.306  0.00  0.00    -0.454 OA
ENDBRANCH  31  36
ENDBRANCH  29  32
ENDBRANCH  28  29
ENDBRANCH  26  28
ENDBRANCH  20  26
ENDBRANCH   1  22
BRANCH   4  37
ATOM     37  C   LIG    1       23.412 -32.447   5.539  0.00  0.00    +0.101 C 
ATOM     38  C   LIG    1       22.799 -33.503   6.469  0.00  0.00    +0.032 C 
ATOM     39  C   LIG    1       24.572 -33.076   4.761  0.00  0.00    +0.032 C 
ENDBRANCH   4  37
TORSDOF 10
ENDMDL
MODEL 3
REMARK VINA RESULT:      -7.4      5.849     11.321
REMARK  Name = *****
REMARK                            x       y       z     vdW  Elec       q    Type
REMARK                         _______ _______ _______ _____ _____    ______ ____
ROOT
ATOM      1  C   LIG    1       27.240 -21.227   6.928  0.00  0.00    +0.046 A 
ATOM      2  C   LIG    1       27.749 -20.132   6.139  0.00  0.00    +0.105 A 
ATOM      3  N   LIG    1       29.021 -19.869   6.490  0.00  0.00    -0.170 NA
ATOM      4  N   LIG    1       29.330 -20.755   7.450  0.00  0.00    -0.268 N 
ATOM      5  C   LIG    1       28.296 -21.591   7.740  0.00  0.00    +0.119 A 
ENDROOT
BRANCH   2   6
ATOM      6  C   LIG    1       27.096 -19.293   5.116  0.00  0.00    +0.041 A 
ATOM      7  C   LIG    1       27.647 -18.069   4.695  0.00  0.00    +0.155 A 
ATOM      8  F   LIG    1       28.787 -17.592   5.222  0.00  0.00    -0.203 F 
ATOM      9  C   LIG    1       27.002 -17.269   3.738  0.00  0.00    +0.085 A 
ATOM     10  C   LIG    1       25.806 -17.687   3.162  0.00  0.00    +0.047 A 
ATOM     11  C   LIG    1       25.215 -18.855   3.624  0.00  0.00    +0.044 A 
ATOM     12 CL   LIG    1       23.631 -19.274   3.088  0.00  0.00    -0.084 Cl
ATOM     13  C   LIG    1       25.849 -19.652   4.584  0.00  0.00    +0.033 A 
BRANCH   9  14
ATOM     14  N   LIG    1       27.530 -15.980   3.393  0.00  0.00    -0.218 N 
ATOM     15  H   LIG    1       28.155 -15.999   2.586  0.00  0.00    +0.173 HD
BRANCH  14  16
ATOM     16  S   LIG    1       26.478 -14.662   3.343  0.00  0.00    +0.040 S 
ATOM     17  O   LIG    1       25.215 -15.130   3.880  0.00  0.00    -0.155 OA
ATOM     18  O   LIG    1       26.556 -14.020   2.051  0.00  0.00    -0.155 OA
ATOM     19  C   LIG    1       27.182 -13.577   4.569  0.00  0.00    +0.218 C 
ENDBRANCH  14  16
ENDBRANCH   9  14
ENDBRANCH   2   6
BRANCH   1  22
ATOM     20  C   LIG    1       24.733 -23.722   6.189  0.00  0.00    +0.216 A 
ATOM     21  N   LIG    1       25.890 -23.045   6.199  0.00  0.00    -0.214 NA
ATOM     22  C   LIG    1       25.967 -21.939   6.957  0.00  0.00    +0.080 A 
ATOM     23  C   LIG    1       24.912 -21.500   7.730  0.00  0.00    +0.048 A 
ATOM     24  C   LIG    1       23.778 -22.269   7.676  0.00  0.00    +0.116 A 
ATOM     25  N   LIG    1       23.659 -23.365   6.903  0.00  0.00    -0.223 NA
BRANCH  20  26
ATOM     26  N   LIG    1       24.598 -24.842   5.378  0.00  0.00    -0.312 N 
ATOM     27  H   LIG    1       25.487 -25.002   4.915  0.00  0.00    +0.149 HD
BRANCH  26  28
ATOM     28  C   LIG    1       24.012 -25.997   6.051  0.00  0.00    +0.126 C 
BRANCH  28  29
ATOM     29  C   LIG    1       25.012 -27.167   6.173  0.00  0.00    +0.090 C 
ATOM     30  C   LIG    1       26.058 -27.113   5.055  0.00  0.00    +0.029 C 
BRANCH  29  32
ATOM     31  C   LIG    1       24.489 -29.436   7.065  0.00  0.00    +0.400 C 
ATOM     32  N   LIG    1       24.291 -28.435   6.160  0.00  0.00    -0.277 N 
ATOM     33  H   LIG    1       23.620 -28.633   5.434  0.00  0.00    +0.152 HD
ATOM     34  O   LIG    1       25.323 -29.463   7.937  0.00  0.00    -0.227 OA
BRANCH  31  36
ATOM     35  C   LIG    1       24.056 -31.561   6.177  0.00  0.00    +0.282 C 
ATOM     36  O   LIG    1       23.549 -30.392   6.819  0.00  0.00    -0.454 OA
ENDBRANCH  31  36
ENDBRANCH  29  32
ENDBRANCH  28  29
ENDBRANCH  26  28
ENDBRANCH  20  26
ENDBRANCH   1  22
BRANCH   4  37
ATOM     37  C   LIG    1       30.682 -20.789   8.014  0.00  0.00    +0.101 C 
ATOM     38  C   LIG    1       30.845 -21.853   9.109  0.00  0.00    +0.032 C 
ATOM     39  C   LIG    1       31.116 -19.428   8.568  0.00  0.00    +0.032 C 
ENDBRANCH   4  37
TORSDOF 10
ENDMDL
MODEL 4
REMARK VINA RESULT:      -7.2      3.742      7.193
REMARK  Name = *****
REMARK                            x       y       z     vdW  Elec       q    Type
REMARK                         _______ _______ _______ _____ _____    ______ ____
ROOT
ATOM      1  C   LIG    1       26.227 -27.165  13.023  0.00  0.00    +0.046 A 
ATOM      2  C   LIG    1       24.918 -26.886  13.558  0.00  0.00    +0.105 A 
ATOM      3  N   LIG    1       25.006 -25.943  14.514  0.00  0.00    -0.170 NA
ATOM      4  N   LIG    1       26.305 -25.615  14.590  0.00  0.00    -0.268 N 
ATOM      5  C   LIG    1       27.073 -26.317  13.713  0.00  0.00    +0.119 A 
ENDROOT
BRANCH   2   6
ATOM      6  C   LIG    1       23.604 -27.485  13.257  0.00  0.00    +0.041 A 
ATOM      7  C   LIG    1       23.458 -28.854  12.967  0.00  0.00    +0.155 A 
ATOM      8  F   LIG    1       24.516 -29.682  12.930  0.00  0.00    -0.203 F 
ATOM      9  C   LIG    1       22.205 -29.406  12.658  0.00  0.00    +0.085 A 
ATOM     10  C   LIG    1       21.066 -28.607  12.655  0.00  0.00    +0.047 A 
ATOM     11  C   LIG    1       21.207 -27.242  12.865  0.00  0.00    +0.044 A 
ATOM     12 CL   LIG    1       19.847 -26.204  12.647  0.00  0.00    -0.084 Cl
ATOM     13  C   LIG    1       22.455 -26.685  13.166  0.00  0.00    +0.033 A 
BRANCH   9  14
ATOM     14  N   LIG    1       22.092 -30.783  12.272  0.00  0.00    -0.218 N 
ATOM     15  H   LIG    1       21.728 -31.386  13.012  0.00  0.00    +0.173 HD
BRANCH  14  16
ATOM     16  S   LIG    1       21.411 -31.150  10.772  0.00  0.00    +0.040 S 
ATOM     17  O   LIG    1       22.204 -30.447   9.783  0.00  0.00    -0.155 OA
ATOM     18  O   LIG    1       19.975 -30.998  10.834  0.00  0.00    -0.155 OA
ATOM     19  C   LIG    1       21.799 -32.881  10.600  0.00  0.00    +0.218 C 
ENDBRANCH  14  16
ENDBRANCH   9  14
ENDBRANCH   2   6
BRANCH   1  22
ATOM     20  C   LIG    1       26.812 -28.515   9.723  0.00  0.00    +0.216 A 
ATOM     21  N   LIG    1       26.390 -27.718  10.715  0.00  0.00    -0.214 NA
ATOM     22  C   LIG    1       26.718 -28.052  11.975  0.00  0.00    +0.080 A 
ATOM     23  C   LIG    1       27.482 -29.163  12.267  0.00  0.00    +0.048 A 
ATOM     24  C   LIG    1       27.889 -29.904  11.187  0.00  0.00    +0.116 A 
ATOM     25  N   LIG    1       27.551 -29.613   9.917  0.00  0.00    -0.223 NA
BRANCH  20  26
ATOM     26  N   LIG    1       26.450 -28.230   8.412  0.00  0.00    -0.312 N 
ATOM     27  H   LIG    1       27.277 -28.321   7.832  0.00  0.00    +0.149 HD
BRANCH  26  28
ATOM     28  C   LIG    1       25.265 -28.949   7.952  0.00  0.00    +0.126 C 
BRANCH  28  29
ATOM     29  C   LIG    1       24.689 -28.348   6.653  0.00  0.00    +0.090 C 
ATOM     30  C   LIG    1       24.753 -29.359   5.504  0.00  0.00    +0.029 C 
BRANCH  29  32
ATOM     31  C   LIG    1       24.805 -25.906   6.160  0.00  0.00    +0.400 C 
ATOM     32  N   LIG    1       25.404 -27.121   6.317  0.00  0.00    -0.277 N 
ATOM     33  H   LIG    1       26.398 -27.140   6.153  0.00  0.00    +0.152 HD
ATOM     34  O   LIG    1       23.620 -25.678   6.189  0.00  0.00    -0.227 OA
BRANCH  31  36
ATOM     35  C   LIG    1       25.815 -23.953   6.972  0.00  0.00    +0.282 C 
ATOM     36  O   LIG    1       25.798 -24.988   5.991  0.00  0.00    -0.454 OA
ENDBRANCH  31  36
ENDBRANCH  29  32
ENDBRANCH  28  29
ENDBRANCH  26  28
ENDBRANCH  20  26
ENDBRANCH   1  22
BRANCH   4  37
ATOM     37  C   LIG    1       26.745 -24.554  15.500  0.00  0.00    +0.101 C 
ATOM     38  C   LIG    1       25.863 -23.300  15.425  0.00  0.00    +0.032 C 
ATOM     39  C   LIG    1       28.206 -24.155  15.266  0.00  0.00    +0.032 C 
ENDBRANCH   4  37
TORSDOF 10
ENDMDL
MODEL 5
REMARK VINA RESULT:      -7.0      1.509      2.035
REMARK  Name = *****
REMARK                            x       y       z     vdW  Elec       q    Type
REMARK                         _______ _______ _______ _____ _____    ______ ____
ROOT
ATOM      1  C   LIG    1       24.921 -29.552   6.506  0.00  0.00    +0.046 A 
ATOM      2  C   LIG    1       24.654 -30.321   7.696  0.00  0.00    +0.105 A 
ATOM      3  N   LIG    1       24.414 -31.604   7.366  0.00  0.00    -0.170 NA
ATOM      4  N   LIG    1       24.531 -31.670   6.031  0.00  0.00    -0.268 N 
ATOM      5  C   LIG    1       24.839 -30.467   5.474  0.00  0.00    +0.119 A 
ENDROOT
BRANCH   2   6
ATOM      6  C   LIG    1       24.565 -29.913   9.110  0.00  0.00    +0.041 A 
ATOM      7  C   LIG    1       25.653 -29.334   9.788  0.00  0.00    +0.155 A 
ATOM      8  F   LIG    1       26.838 -29.141   9.183  0.00  0.00    -0.203 F 
ATOM      9  C   LIG    1       25.562 -28.973  11.141  0.00  0.00    +0.085 A 
ATOM     10  C   LIG    1       24.374 -29.161  11.841  0.00  0.00    +0.047 A 
ATOM     11  C   LIG    1       23.319 -29.801  11.206  0.00  0.00    +0.044 A 
ATOM     12 CL   LIG    1       21.922 -30.243  12.116  0.00  0.00    -0.084 Cl
ATOM     13  C   LIG    1       23.407 -30.170   9.859  0.00  0.00    +0.033 A 
BRANCH   9  14
ATOM     14  N   LIG    1       26.711 -28.471  11.839  0.00  0.00    -0.218 N 
ATOM     15  H   LIG    1       26.498 -27.703  12.478  0.00  0.00    +0.173 HD
BRANCH  14  16
ATOM     16  S   LIG    1       27.788 -29.576  12.524  0.00  0.00    +0.040 S 
ATOM     17  O   LIG    1       28.923 -29.647  11.625  0.00  0.00    -0.155 OA
ATOM     18  O   LIG    1       27.077 -30.764  12.936  0.00  0.00    -0.155 OA
ATOM     19  C   LIG    1       28.342 -28.704  13.977  0.00  0.00    +0.218 C 
ENDBRANCH  14  16
ENDBRANCH   9  14
ENDBRANCH   2   6
BRANCH   1  22
ATOM     20  C   LIG    1       24.519 -25.984   6.099  0.00  0.00    +0.216 A 
ATOM     21  N   LIG    1       24.248 -27.278   6.324  0.00  0.00    -0.214 NA
ATOM     22  C   LIG    1       25.264 -28.155   6.267  0.00  0.00    +0.080 A 
ATOM     23  C   LIG    1       26.561 -27.763   6.007  0.00  0.00    +0.048 A 
ATOM     24  C   LIG    1       26.747 -26.418   5.814  0.00  0.00    +0.116 A 
ATOM     25  N   LIG    1       25.746 -25.519   5.835  0.00  0.00    -0.223 NA
BRANCH  20  26
ATOM     26  N   LIG    1       23.486 -25.055   6.100  0.00  0.00    -0.312 N 
ATOM     27  H   LIG    1       22.651 -25.515   6.447  0.00  0.00    +0.149 HD
BRANCH  26  28
ATOM     28  C   LIG    1       23.828 -23.786   6.737  0.00  0.00    +0.126 C 
BRANCH  28  29
ATOM     29  C   LIG    1       24.495 -22.803   5.752  0.00  0.00    +0.090 C 
ATOM     30  C   LIG    1       25.616 -22.015   6.438  0.00  0.00    +0.029 C 
BRANCH  29  32
ATOM     31  C   LIG    1       22.931 -20.864   5.865  0.00  0.00    +0.400 C 
ATOM     32  N   LIG    1       23.489 -21.909   5.189  0.00  0.00    -0.277 N 
ATOM     33  H   LIG    1       23.136 -22.062   4.257  0.00  0.00    +0.152 HD
ATOM     34  O   LIG    1       23.114 -20.577   7.023  0.00  0.00    -0.227 OA
BRANCH  31  36
ATOM     35  C   LIG    1       22.751 -19.011   4.441  0.00  0.00    +0.282 C 
ATOM     36  O   LIG    1       22.147 -20.186   4.980  0.00  0.00    -0.454 OA
ENDBRANCH  31  36
ENDBRANCH  29  32
ENDBRANCH  28  29
ENDBRANCH  26  28
ENDBRANCH  20  26
ENDBRANCH   1  22
BRANCH   4  37
ATOM     37  C   LIG    1       24.395 -32.956   5.342  0.00  0.00    +0.101 C 
ATOM     38  C   LIG    1       25.136 -32.995   3.998  0.00  0.00    +0.032 C 
ATOM     39  C   LIG    1       22.929 -33.344   5.118  0.00  0.00    +0.032 C 
ENDBRANCH   4  37
TORSDOF 10
ENDMDL
MODEL 6
REMARK VINA RESULT:      -6.8      4.020      7.611
REMARK  Name = *****
REMARK                            x       y       z     vdW  Elec       q    Type
REMARK                         _______ _______ _______ _____ _____    ______ ____
ROOT
ATOM      1  C   LIG    1       26.325 -27.113  13.116  0.00  0.00    +0.046 A 
ATOM      2  C   LIG    1       24.992 -26.855  13.600  0.00  0.00    +0.105 A 
ATOM      3  N   LIG    1       25.022 -25.873  14.519  0.00  0.00    -0.170 NA
ATOM      4  N   LIG    1       26.307 -25.501  14.621  0.00  0.00    -0.268 N 
ATOM      5  C   LIG    1       27.123 -26.213  13.796  0.00  0.00    +0.119 A 
ENDROOT
BRANCH   2   6
ATOM      6  C   LIG    1       23.706 -27.507  13.284  0.00  0.00    +0.041 A 
ATOM      7  C   LIG    1       23.620 -28.878  12.987  0.00  0.00    +0.155 A 
ATOM      8  F   LIG    1       24.712 -29.662  12.956  0.00  0.00    -0.203 F 
ATOM      9  C   LIG    1       22.394 -29.480  12.663  0.00  0.00    +0.085 A 
ATOM     10  C   LIG    1       21.223 -28.729  12.653  0.00  0.00    +0.047 A 
ATOM     11  C   LIG    1       21.306 -27.361  12.870  0.00  0.00    +0.044 A 
ATOM     12 CL   LIG    1       19.906 -26.379  12.643  0.00  0.00    -0.084 Cl
ATOM     13  C   LIG    1       22.527 -26.754  13.185  0.00  0.00    +0.033 A 
BRANCH   9  14
ATOM     14  N   LIG    1       22.341 -30.859  12.270  0.00  0.00    -0.218 N 
ATOM     15  H   LIG    1       21.733 -31.429  12.861  0.00  0.00    +0.173 HD
BRANCH  14  16
ATOM     16  S   LIG    1       22.153 -31.228  10.634  0.00  0.00    +0.040 S 
ATOM     17  O   LIG    1       20.845 -30.733  10.254  0.00  0.00    -0.155 OA
ATOM     18  O   LIG    1       22.541 -32.599  10.392  0.00  0.00    -0.155 OA
ATOM     19  C   LIG    1       23.348 -30.149   9.870  0.00  0.00    +0.218 C 
ENDBRANCH  14  16
ENDBRANCH   9  14
ENDBRANCH   2   6
BRANCH   1  22
ATOM     20  C   LIG    1       26.833 -28.757   9.938  0.00  0.00    +0.216 A 
ATOM     21  N   LIG    1       26.363 -27.928  10.881  0.00  0.00    -0.214 NA
ATOM     22  C   LIG    1       26.875 -28.025  12.119  0.00  0.00    +0.080 A 
ATOM     23  C   LIG    1       27.870 -28.927  12.435  0.00  0.00    +0.048 A 
ATOM     24  C   LIG    1       28.306 -29.716  11.402  0.00  0.00    +0.116 A 
ATOM     25  N   LIG    1       27.792 -29.663  10.159  0.00  0.00    -0.223 NA
BRANCH  20  26
ATOM     26  N   LIG    1       26.292 -28.720   8.659  0.00  0.00    -0.312 N 
ATOM     27  H   LIG    1       25.420 -29.239   8.672  0.00  0.00    +0.149 HD
BRANCH  26  28
ATOM     28  C   LIG    1       26.229 -27.381   8.078  0.00  0.00    +0.126 C 
BRANCH  28  29
ATOM     29  C   LIG    1       25.527 -27.377   6.704  0.00  0.00    +0.090 C 
ATOM     30  C   LIG    1       24.930 -26.000   6.397  0.00  0.00    +0.029 C 
BRANCH  29  32
ATOM     31  C   LIG    1       24.545 -29.504   5.847  0.00  0.00    +0.400 C 
ATOM     32  N   LIG    1       24.503 -28.416   6.670  0.00  0.00    -0.277 N 
ATOM     33  H   LIG    1       23.684 -28.344   7.253  0.00  0.00    +0.152 HD
ATOM     34  O   LIG    1       25.363 -29.725   4.987  0.00  0.00    -0.227 OA
BRANCH  31  36
ATOM     35  C   LIG    1       23.869 -31.663   6.457  0.00  0.00    +0.282 C 
ATOM     36  O   LIG    1       23.502 -30.309   6.195  0.00  0.00    -0.454 OA
ENDBRANCH  31  36
ENDBRANCH  29  32
ENDBRANCH  28  29
ENDBRANCH  26  28
ENDBRANCH  20  26
ENDBRANCH   1  22
BRANCH   4  37
ATOM     37  C   LIG    1       26.686 -24.392  15.500  0.00  0.00    +0.101 C 
ATOM     38  C   LIG    1       25.858 -23.124  15.252  0.00  0.00    +0.032 C 
ATOM     39  C   LIG    1       28.176 -24.047  15.393  0.00  0.00    +0.032 C 
ENDBRANCH   4  37
TORSDOF 10
ENDMDL
MODEL 7
REMARK VINA RESULT:      -6.6      2.810      4.863
REMARK  Name = *****
REMARK                            x       y       z     vdW  Elec       q    Type
REMARK                         _______ _______ _______ _____ _____    ______ ____
ROOT
ATOM      1  C   LIG    1       22.946 -31.013  10.177  0.00  0.00    +0.046 A 
ATOM      2  C   LIG    1       22.991 -30.390  11.477  0.00  0.00    +0.105 A 
ATOM      3  N   LIG    1       21.928 -30.778  12.206  0.00  0.00    -0.170 NA
ATOM      4  N   LIG    1       21.232 -31.619  11.426  0.00  0.00    -0.268 N 
ATOM      5  C   LIG    1       21.807 -31.794  10.204  0.00  0.00    +0.119 A 
ENDROOT
BRANCH   2   6
ATOM      6  C   LIG    1       23.944 -29.423  12.052  0.00  0.00    +0.041 A 
ATOM      7  C   LIG    1       25.324 -29.686  12.119  0.00  0.00    +0.155 A 
ATOM      8  F   LIG    1       25.841 -30.847  11.679  0.00  0.00    -0.203 F 
ATOM      9  C   LIG    1       26.217 -28.767  12.692  0.00  0.00    +0.085 A 
ATOM     10  C   LIG    1       25.753 -27.552  13.188  0.00  0.00    +0.047 A 
ATOM     11  C   LIG    1       24.386 -27.313  13.197  0.00  0.00    +0.044 A 
ATOM     12 CL   LIG    1       23.773 -25.918  14.006  0.00  0.00    -0.084 Cl
ATOM     13  C   LIG    1       23.490 -28.230  12.634  0.00  0.00    +0.033 A 
BRANCH   9  14
ATOM     14  N   LIG    1       27.606 -29.095  12.837  0.00  0.00    -0.218 N 
ATOM     15  H   LIG    1       28.235 -28.351  12.530  0.00  0.00    +0.173 HD
BRANCH  14  16
ATOM     16  S   LIG    1       28.124 -29.799  14.280  0.00  0.00    +0.040 S 
ATOM     17  O   LIG    1       27.775 -31.204  14.195  0.00  0.00    -0.155 OA
ATOM     18  O   LIG    1       27.711 -28.986  15.401  0.00  0.00    -0.155 OA
ATOM     19  C   LIG    1       29.897 -29.705  14.125  0.00  0.00    +0.218 C 
ENDBRANCH  14  16
ENDBRANCH   9  14
ENDBRANCH   2   6
BRANCH   1  22
ATOM     20  C   LIG    1       24.471 -29.867   7.108  0.00  0.00    +0.216 A 
ATOM     21  N   LIG    1       23.687 -29.928   8.194  0.00  0.00    -0.214 NA
ATOM     22  C   LIG    1       23.828 -30.982   9.015  0.00  0.00    +0.080 A 
ATOM     23  C   LIG    1       24.755 -31.976   8.785  0.00  0.00    +0.048 A 
ATOM     24  C   LIG    1       25.529 -31.817   7.664  0.00  0.00    +0.116 A 
ATOM     25  N   LIG    1       25.392 -30.789   6.807  0.00  0.00    -0.223 NA
BRANCH  20  26
ATOM     26  N   LIG    1       24.320 -28.818   6.209  0.00  0.00    -0.312 N 
ATOM     27  H   LIG    1       23.375 -28.854   5.843  0.00  0.00    +0.149 HD
BRANCH  26  28
ATOM     28  C   LIG    1       24.757 -27.524   6.726  0.00  0.00    +0.126 C 
BRANCH  28  29
ATOM     29  C   LIG    1       24.744 -26.430   5.637  0.00  0.00    +0.090 C 
ATOM     30  C   LIG    1       25.763 -26.740   4.536  0.00  0.00    +0.029 C 
BRANCH  29  32
ATOM     31  C   LIG    1       24.026 -24.297   6.712  0.00  0.00    +0.400 C 
ATOM     32  N   LIG    1       25.001 -25.128   6.243  0.00  0.00    -0.277 N 
ATOM     33  H   LIG    1       25.942 -24.773   6.308  0.00  0.00    +0.152 HD
ATOM     34  O   LIG    1       22.833 -24.466   6.624  0.00  0.00    -0.227 OA
BRANCH  31  36
ATOM     35  C   LIG    1       25.963 -22.986   6.836  0.00  0.00    +0.282 C 
ATOM     36  O   LIG    1       24.649 -23.252   7.323  0.00  0.00    -0.454 OA
ENDBRANCH  31  36
ENDBRANCH  29  32
ENDBRANCH  28  29
ENDBRANCH  26  28
ENDBRANCH  20  26
ENDBRANCH   1  22
BRANCH   4  37
ATOM     37  C   LIG    1       20.034 -32.284  11.944  0.00  0.00    +0.101 C 
ATOM     38  C   LIG    1       18.748 -31.833  11.238  0.00  0.00    +0.032 C 
ATOM     39  C   LIG    1       19.870 -32.094  13.456  0.00  0.00    +0.032 C 
ENDBRANCH   4  37
TORSDOF 10
ENDMDL
MODEL 8
REMARK VINA RESULT:      -6.6      5.206     10.352
REMARK  Name = *****
REMARK                            x       y       z     vdW  Elec       q    Type
REMARK                         _______ _______ _______ _____ _____    ______ ____
ROOT
ATOM      1  C   LIG    1       27.052 -20.297   6.027  0.00  0.00    +0.046 A 
ATOM      2  C   LIG    1       28.265 -19.565   6.292  0.00  0.00    +0.105 A 
ATOM      3  N   LIG    1       28.383 -18.547   5.419  0.00  0.00    -0.170 NA
ATOM      4  N   LIG    1       27.297 -18.606   4.634  0.00  0.00    -0.268 N 
ATOM      5  C   LIG    1       26.469 -19.635   4.964  0.00  0.00    +0.119 A 
ENDROOT
BRANCH   2   6
ATOM      6  C   LIG    1       29.335 -19.793   7.281  0.00  0.00    +0.041 A 
ATOM      7  C   LIG    1       29.978 -18.731   7.941  0.00  0.00    +0.155 A 
ATOM      8  F   LIG    1       29.662 -17.449   7.686  0.00  0.00    -0.203 F 
ATOM      9  C   LIG    1       31.012 -18.961   8.862  0.00  0.00    +0.085 A 
ATOM     10  C   LIG    1       31.410 -20.261   9.162  0.00  0.00    +0.047 A 
ATOM     11  C   LIG    1       30.836 -21.313   8.462  0.00  0.00    +0.044 A 
ATOM     12 CL   LIG    1       31.467 -22.906   8.656  0.00  0.00    -0.084 Cl
ATOM     13  C   LIG    1       29.810 -21.088   7.537  0.00  0.00    +0.033 A 
BRANCH   9  14
ATOM     14  N   LIG    1       31.720 -17.862   9.452  0.00  0.00    -0.218 N 
ATOM     15  H   LIG    1       31.940 -17.116   8.791  0.00  0.00    +0.173 HD
BRANCH  14  16
ATOM     16  S   LIG    1       31.180 -17.252  10.930  0.00  0.00    +0.040 S 
ATOM     17  O   LIG    1       30.865 -18.403  11.754  0.00  0.00    -0.155 OA
ATOM     18  O   LIG    1       30.216 -16.200  10.704  0.00  0.00    -0.155 OA
ATOM     19  C   LIG    1       32.667 -16.535  11.603  0.00  0.00    +0.218 C 
ENDBRANCH  14  16
ENDBRANCH   9  14
ENDBRANCH   2   6
BRANCH   1  22
ATOM     20  C   LIG    1       25.268 -23.422   6.366  0.00  0.00    +0.216 A 
ATOM     21  N   LIG    1       25.876 -22.356   5.826  0.00  0.00    -0.214 NA
ATOM     22  C   LIG    1       26.413 -21.447   6.657  0.00  0.00    +0.080 A 
ATOM     23  C   LIG    1       26.374 -21.591   8.029  0.00  0.00    +0.048 A 
ATOM     24  C   LIG    1       25.754 -22.724   8.489  0.00  0.00    +0.116 A 
ATOM     25  N   LIG    1       25.181 -23.637   7.683  0.00  0.00    -0.223 NA
BRANCH  20  26
ATOM     26  N   LIG    1       24.658 -24.357   5.539  0.00  0.00    -0.312 N 
ATOM     27  H   LIG    1       25.264 -24.513   4.741  0.00  0.00    +0.149 HD
BRANCH  26  28
ATOM     28  C   LIG    1       24.197 -25.556   6.234  0.00  0.00    +0.126 C 
BRANCH  28  29
ATOM     29  C   LIG    1       25.152 -26.750   6.028  0.00  0.00    +0.090 C 
ATOM     30  C   LIG    1       25.851 -26.665   4.667  0.00  0.00    +0.029 C 
BRANCH  29  32
ATOM     31  C   LIG    1       24.661 -28.930   7.135  0.00  0.00    +0.400 C 
ATOM     32  N   LIG    1       24.415 -28.001   6.167  0.00  0.00    -0.277 N 
ATOM     33  H   LIG    1       23.694 -28.243   5.505  0.00  0.00    +0.152 HD
ATOM     34  O   LIG    1       25.553 -28.903   7.948  0.00  0.00    -0.227 OA
BRANCH  31  36
ATOM     35  C   LIG    1       24.075 -31.024   6.261  0.00  0.00    +0.282 C 
ATOM     36  O   LIG    1       23.694 -29.884   7.030  0.00  0.00    -0.454 OA
ENDBRANCH  31  36
ENDBRANCH  29  32
ENDBRANCH  28  29
ENDBRANCH  26  28
ENDBRANCH  20  26
ENDBRANCH   1  22
BRANCH   4  37
ATOM     37  C   LIG    1       27.077 -17.588   3.604  0.00  0.00    +0.101 C 
ATOM     38  C   LIG    1       27.551 -16.192   4.033  0.00  0.00    +0.032 C 
ATOM     39  C   LIG    1       25.609 -17.507   3.169  0.00  0.00    +0.032 C 
ENDBRANCH   4  37
TORSDOF 10
ENDMDL
MODEL 9
REMARK VINA RESULT:      -6.6      6.522      9.731
REMARK  Name = *****
REMARK                            x       y       z     vdW  Elec       q    Type
REMARK                         _______ _______ _______ _____ _____    ______ ____
ROOT
ATOM      1  C   LIG    1       25.376 -21.362   5.731  0.00  0.00    +0.046 A 
ATOM      2  C   LIG    1       26.649 -21.591   6.367  0.00  0.00    +0.105 A 
ATOM      3  N   LIG    1       26.690 -22.839   6.872  0.00  0.00    -0.170 NA
ATOM      4  N   LIG    1       25.508 -23.398   6.569  0.00  0.00    -0.268 N 
ATOM      5  C   LIG    1       24.692 -22.552   5.882  0.00  0.00    +0.119 A 
ENDROOT
BRANCH   2   6
ATOM      6  C   LIG    1       27.804 -20.696   6.568  0.00  0.00    +0.041 A 
ATOM      7  C   LIG    1       28.536 -20.682   7.769  0.00  0.00    +0.155 A 
ATOM      8  F   LIG    1       28.205 -21.473   8.804  0.00  0.00    -0.203 F 
ATOM      9  C   LIG    1       29.617 -19.807   7.956  0.00  0.00    +0.085 A 
ATOM     10  C   LIG    1       30.007 -18.943   6.937  0.00  0.00    +0.047 A 
ATOM     11  C   LIG    1       29.247 -18.893   5.777  0.00  0.00    +0.044 A 
ATOM     12 CL   LIG    1       29.576 -17.678   4.598  0.00  0.00    -0.084 Cl
ATOM     13  C   LIG    1       28.162 -19.757   5.589  0.00  0.00    +0.033 A 
BRANCH   9  14
ATOM     14  N   LIG    1       30.290 -19.741   9.222  0.00  0.00    -0.218 N 
ATOM     15  H   LIG    1       31.102 -20.358   9.285  0.00  0.00    +0.173 HD
BRANCH  14  16
ATOM     16  S   LIG    1       30.599 -18.226   9.897  0.00  0.00    +0.040 S 
ATOM     17  O   LIG    1       30.788 -18.445  11.317  0.00  0.00    -0.155 OA
ATOM     18  O   LIG    1       29.641 -17.264   9.402  0.00  0.00    -0.155 OA
ATOM     19  C   LIG    1       32.203 -17.838   9.223  0.00  0.00    +0.218 C 
ENDBRANCH  14  16
ENDBRANCH   9  14
ENDBRANCH   2   6
BRANCH   1  22
ATOM     20  C   LIG    1       25.174 -18.424   3.637  0.00  0.00    +0.216 A 
ATOM     21  N   LIG    1       25.662 -19.479   4.305  0.00  0.00    -0.214 NA
ATOM     22  C   LIG    1       24.801 -20.232   5.010  0.00  0.00    +0.080 A 
ATOM     23  C   LIG    1       23.448 -19.964   5.048  0.00  0.00    +0.048 A 
ATOM     24  C   LIG    1       23.038 -18.879   4.315  0.00  0.00    +0.116 A 
ATOM     25  N   LIG    1       23.879 -18.089   3.624  0.00  0.00    -0.223 NA
BRANCH  20  26
ATOM     26  N   LIG    1       26.041 -17.593   2.938  0.00  0.00    -0.312 N 
ATOM     27  H   LIG    1       25.508 -17.119   2.217  0.00  0.00    +0.149 HD
BRANCH  26  28
ATOM     28  C   LIG    1       26.863 -16.738   3.790  0.00  0.00    +0.126 C 
BRANCH  28  29
ATOM     29  C   LIG    1       26.853 -15.268   3.321  0.00  0.00    +0.090 C 
ATOM     30  C   LIG    1       28.000 -14.480   3.961  0.00  0.00    +0.029 C 
BRANCH  29  32
ATOM     31  C   LIG    1       24.840 -13.914   2.741  0.00  0.00    +0.400 C 
ATOM     32  N   LIG    1       25.561 -14.662   3.625  0.00  0.00    -0.277 N 
ATOM     33  H   LIG    1       25.160 -14.753   4.546  0.00  0.00    +0.152 HD
ATOM     34  O   LIG    1       25.186 -13.577   1.635  0.00  0.00    -0.227 OA
BRANCH  31  36
ATOM     35  C   LIG    1       23.371 -14.416   4.497  0.00  0.00    +0.282 C 
ATOM     36  O   LIG    1       23.643 -13.640   3.331  0.00  0.00    -0.454 OA
ENDBRANCH  31  36
ENDBRANCH  29  32
ENDBRANCH  28  29
ENDBRANCH  26  28
ENDBRANCH  20  26
ENDBRANCH   1  22
BRANCH   4  37
ATOM     37  C   LIG    1       25.243 -24.795   6.920  0.00  0.00    +0.101 C 
ATOM     38  C   LIG    1       26.282 -25.764   6.339  0.00  0.00    +0.032 C 
ATOM     39  C   LIG    1       23.842 -25.247   6.493  0.00  0.00    +0.032 C 
ENDBRANCH   4  37
TORSDOF 10
ENDMDL
