MODEL 1
REMARK VINA RESULT:      -7.4      0.000      0.000
REMARK  Name = *****
REMARK                            x       y       z     vdW  Elec       q    Type
REMARK                         _______ _______ _______ _____ _____    ______ ____
ROOT
ATOM      1  C   LIG    1       27.946 -21.367   7.898  0.00  0.00    +0.121 A 
ATOM      2  C   LIG    1       27.502 -22.665   7.621  0.00  0.00    +0.056 A 
ATOM      3  C   LIG    1       26.185 -22.883   7.149  0.00  0.00    +0.008 A 
ATOM      4  C   LIG    1       25.411 -24.056   6.902  0.00  0.00    -0.008 C 
ATOM      5  C   LIG    1       24.148 -23.632   6.496  0.00  0.00    +0.028 C 
ATOM      6  N   LIG    1       24.173 -22.239   6.333  0.00  0.00    -0.280 N 
ATOM      7  C   LIG    1       23.166 -21.437   5.717  0.00  0.00    +0.263 C 
ATOM      8  O   LIG    1       22.019 -21.885   5.709  0.00  0.00    -0.267 OA
ATOM      9  C   LIG    1       22.957 -24.480   6.164  0.00  0.00    +0.064 C 
ATOM     10  C   LIG    1       25.356 -21.782   6.920  0.00  0.00    +0.057 A 
ATOM     11  C   LIG    1       25.754 -20.493   7.308  0.00  0.00    +0.030 A 
ATOM     12  C   LIG    1       27.065 -20.301   7.761  0.00  0.00    +0.048 A 
ENDROOT
BRANCH   7  13
ATOM     13  C   LIG    1       23.351 -20.120   5.028  0.00  0.00    +0.040 A 
ATOM     14  C   LIG    1       22.448 -19.059   5.174  0.00  0.00    +0.015 A 
ATOM     15  C   LIG    1       22.737 -17.802   4.613  0.00  0.00    +0.021 A 
ATOM     16  C   LIG    1       23.938 -17.593   3.934  0.00  0.00    +0.041 A 
ATOM     17 CL   LIG    1       24.296 -16.045   3.272  0.00  0.00    -0.084 Cl
ATOM     18  C   LIG    1       24.855 -18.631   3.801  0.00  0.00    +0.021 A 
ATOM     19  C   LIG    1       24.560 -19.888   4.345  0.00  0.00    +0.015 A 
ENDBRANCH   7  13
BRANCH   1  21
ATOM     20  C   LIG    1       30.057 -20.302   7.678  0.00  0.00    +0.277 C 
ATOM     21  O   LIG    1       29.244 -21.273   8.330  0.00  0.00    -0.495 OA
ENDBRANCH   1  21
BRANCH   4  22
ATOM     22  C   LIG    1       25.870 -25.463   7.161  0.00  0.00    +0.158 C 
BRANCH  22  23
ATOM     23  C   LIG    1       26.236 -26.242   5.915  0.00  0.00    +0.312 C 
ATOM     24  O   LIG    1       27.364 -26.476   5.509  0.00  0.00    -0.251 OA
BRANCH  23  25
ATOM     25  O   LIG    1       25.107 -26.715   5.312  0.00  0.00    -0.453 OA
BRANCH  25  26
ATOM     26  C   LIG    1       24.389 -27.657   6.102  0.00  0.00    +0.352 C 
BRANCH  26  27
ATOM     27  C   LIG    1       24.417 -29.090   5.610  0.00  0.00    +0.343 C 
ATOM     28  O   LIG    1       25.460 -29.679   5.281  0.00  0.00    -0.247 OA
BRANCH  27  29
ATOM     29  O   LIG    1       23.211 -29.697   5.553  0.00  0.00    -0.478 OA
ATOM     30  H   LIG    1       23.299 -30.666   5.372  0.00  0.00    +0.295 HD
ENDBRANCH  27  29
ENDBRANCH  26  27
ENDBRANCH  25  26
ENDBRANCH  23  25
ENDBRANCH  22  23
ENDBRANCH   4  22
TORSDOF 8
ENDMDL
MODEL 2
REMARK VINA RESULT:      -7.3      3.127      6.088
REMARK  Name = *****
REMARK                            x       y       z     vdW  Elec       q    Type
REMARK                         _______ _______ _______ _____ _____    ______ ____
ROOT
ATOM      1  C   LIG    1       26.563 -17.781   3.794  0.00  0.00    +0.121 A 
ATOM      2  C   LIG    1       25.748 -18.810   4.279  0.00  0.00    +0.056 A 
ATOM      3  C   LIG    1       26.265 -19.762   5.190  0.00  0.00    +0.008 A 
ATOM      4  C   LIG    1       25.747 -20.966   5.754  0.00  0.00    -0.008 C 
ATOM      5  C   LIG    1       26.752 -21.510   6.549  0.00  0.00    +0.028 C 
ATOM      6  N   LIG    1       27.814 -20.594   6.617  0.00  0.00    -0.280 N 
ATOM      7  C   LIG    1       28.934 -20.656   7.499  0.00  0.00    +0.263 C 
ATOM      8  O   LIG    1       29.249 -21.766   7.930  0.00  0.00    -0.267 OA
ATOM      9  C   LIG    1       26.722 -22.795   7.319  0.00  0.00    +0.064 C 
ATOM     10  C   LIG    1       27.584 -19.630   5.632  0.00  0.00    +0.057 A 
ATOM     11  C   LIG    1       28.438 -18.675   5.060  0.00  0.00    +0.030 A 
ATOM     12  C   LIG    1       27.900 -17.737   4.171  0.00  0.00    +0.048 A 
ENDROOT
BRANCH   7  13
ATOM     13  C   LIG    1       29.751 -19.508   8.009  0.00  0.00    +0.040 A 
ATOM     14  C   LIG    1       29.309 -18.665   9.037  0.00  0.00    +0.015 A 
ATOM     15  C   LIG    1       30.169 -17.688   9.567  0.00  0.00    +0.021 A 
ATOM     16  C   LIG    1       31.477 -17.569   9.097  0.00  0.00    +0.041 A 
ATOM     17 CL   LIG    1       32.532 -16.386   9.769  0.00  0.00    -0.084 Cl
ATOM     18  C   LIG    1       31.937 -18.414   8.093  0.00  0.00    +0.021 A 
ATOM     19  C   LIG    1       31.076 -19.378   7.551  0.00  0.00    +0.015 A 
ENDBRANCH   7  13
BRANCH   1  21
ATOM     20  C   LIG    1       26.056 -15.523   3.261  0.00  0.00    +0.277 C 
ATOM     21  O   LIG    1       25.952 -16.906   2.935  0.00  0.00    -0.495 OA
ENDBRANCH   1  21
BRANCH   4  22
ATOM     22  C   LIG    1       24.407 -21.565   5.428  0.00  0.00    +0.158 C 
BRANCH  22  23
ATOM     23  C   LIG    1       23.588 -21.962   6.638  0.00  0.00    +0.312 C 
ATOM     24  O   LIG    1       23.411 -21.295   7.647  0.00  0.00    -0.251 OA
BRANCH  23  25
ATOM     25  O   LIG    1       23.005 -23.178   6.428  0.00  0.00    -0.453 OA
BRANCH  25  26
ATOM     26  C   LIG    1       23.802 -24.276   6.859  0.00  0.00    +0.352 C 
BRANCH  26  27
ATOM     27  C   LIG    1       24.135 -25.306   5.799  0.00  0.00    +0.343 C 
ATOM     28  O   LIG    1       23.896 -26.519   5.927  0.00  0.00    -0.247 OA
BRANCH  27  29
ATOM     29  O   LIG    1       24.719 -24.811   4.686  0.00  0.00    -0.478 OA
ATOM     30  H   LIG    1       24.124 -24.885   3.898  0.00  0.00    +0.295 HD
ENDBRANCH  27  29
ENDBRANCH  26  27
ENDBRANCH  25  26
ENDBRANCH  23  25
ENDBRANCH  22  23
ENDBRANCH   4  22
TORSDOF 8
ENDMDL
MODEL 3
REMARK VINA RESULT:      -7.2      5.651      8.987
REMARK  Name = *****
REMARK                            x       y       z     vdW  Elec       q    Type
REMARK                         _______ _______ _______ _____ _____    ______ ____
ROOT
ATOM      1  C   LIG    1       25.165 -27.478   6.077  0.00  0.00    +0.121 A 
ATOM      2  C   LIG    1       24.791 -28.825   6.007  0.00  0.00    +0.056 A 
ATOM      3  C   LIG    1       25.073 -29.702   7.082  0.00  0.00    +0.008 A 
ATOM      4  C   LIG    1       24.941 -31.111   7.263  0.00  0.00    -0.008 C 
ATOM      5  C   LIG    1       25.444 -31.409   8.526  0.00  0.00    +0.028 C 
ATOM      6  N   LIG    1       25.733 -30.206   9.189  0.00  0.00    -0.280 N 
ATOM      7  C   LIG    1       26.049 -30.053  10.572  0.00  0.00    +0.263 C 
ATOM      8  O   LIG    1       26.530 -31.029  11.149  0.00  0.00    -0.267 OA
ATOM      9  C   LIG    1       25.573 -32.756   9.169  0.00  0.00    +0.064 C 
ATOM     10  C   LIG    1       25.687 -29.192   8.229  0.00  0.00    +0.057 A 
ATOM     11  C   LIG    1       26.170 -27.874   8.257  0.00  0.00    +0.030 A 
ATOM     12  C   LIG    1       25.867 -27.023   7.188  0.00  0.00    +0.048 A 
ENDROOT
BRANCH   7  13
ATOM     13  C   LIG    1       25.818 -28.845  11.427  0.00  0.00    +0.040 A 
ATOM     14  C   LIG    1       24.659 -28.677  12.197  0.00  0.00    +0.015 A 
ATOM     15  C   LIG    1       24.551 -27.591  13.082  0.00  0.00    +0.021 A 
ATOM     16  C   LIG    1       25.606 -26.689  13.225  0.00  0.00    +0.041 A 
ATOM     17 CL   LIG    1       25.476 -25.376  14.330  0.00  0.00    -0.084 Cl
ATOM     18  C   LIG    1       26.772 -26.856  12.484  0.00  0.00    +0.021 A 
ATOM     19  C   LIG    1       26.874 -27.929  11.589  0.00  0.00    +0.015 A 
ENDBRANCH   7  13
BRANCH   1  21
ATOM     20  C   LIG    1       25.162 -25.336   5.053  0.00  0.00    +0.277 C 
ATOM     21  O   LIG    1       24.824 -26.718   4.989  0.00  0.00    -0.495 OA
ENDBRANCH   1  21
BRANCH   4  22
ATOM     22  C   LIG    1       24.459 -32.074   6.214  0.00  0.00    +0.158 C 
BRANCH  22  23
ATOM     23  C   LIG    1       25.560 -32.704   5.388  0.00  0.00    +0.312 C 
ATOM     24  O   LIG    1       26.287 -33.626   5.729  0.00  0.00    -0.251 OA
BRANCH  23  25
ATOM     25  O   LIG    1       25.602 -32.131   4.151  0.00  0.00    -0.453 OA
BRANCH  25  26
ATOM     26  C   LIG    1       25.431 -33.060   3.085  0.00  0.00    +0.352 C 
BRANCH  26  27
ATOM     27  C   LIG    1       26.597 -33.185   2.125  0.00  0.00    +0.343 C 
ATOM     28  O   LIG    1       27.742 -33.512   2.481  0.00  0.00    -0.247 OA
BRANCH  27  29
ATOM     29  O   LIG    1       26.304 -32.915   0.835  0.00  0.00    -0.478 OA
ATOM     30  H   LIG    1       25.347 -33.073   0.637  0.00  0.00    +0.295 HD
ENDBRANCH  27  29
ENDBRANCH  26  27
ENDBRANCH  25  26
ENDBRANCH  23  25
ENDBRANCH  22  23
ENDBRANCH   4  22
TORSDOF 8
ENDMDL
MODEL 4
REMARK VINA RESULT:      -7.1      4.187      7.265
REMARK  Name = *****
REMARK                            x       y       z     vdW  Elec       q    Type
REMARK                         _______ _______ _______ _____ _____    ______ ____
ROOT
ATOM      1  C   LIG    1       26.886 -17.857   3.917  0.00  0.00    +0.121 A 
ATOM      2  C   LIG    1       26.074 -18.858   4.463  0.00  0.00    +0.056 A 
ATOM      3  C   LIG    1       26.585 -19.732   5.452  0.00  0.00    +0.008 A 
ATOM      4  C   LIG    1       26.071 -20.897   6.096  0.00  0.00    -0.008 C 
ATOM      5  C   LIG    1       27.067 -21.366   6.948  0.00  0.00    +0.028 C 
ATOM      6  N   LIG    1       28.116 -20.434   6.966  0.00  0.00    -0.280 N 
ATOM      7  C   LIG    1       29.220 -20.414   7.870  0.00  0.00    +0.263 C 
ATOM      8  O   LIG    1       29.540 -21.485   8.389  0.00  0.00    -0.267 OA
ATOM      9  C   LIG    1       27.037 -22.590   7.812  0.00  0.00    +0.064 C 
ATOM     10  C   LIG    1       27.893 -19.550   5.907  0.00  0.00    +0.057 A 
ATOM     11  C   LIG    1       28.747 -18.628   5.281  0.00  0.00    +0.030 A 
ATOM     12  C   LIG    1       28.216 -17.767   4.314  0.00  0.00    +0.048 A 
ENDROOT
BRANCH   7  13
ATOM     13  C   LIG    1       30.014 -19.221   8.307  0.00  0.00    +0.040 A 
ATOM     14  C   LIG    1       29.534 -18.299   9.246  0.00  0.00    +0.015 A 
ATOM     15  C   LIG    1       30.371 -17.273   9.719  0.00  0.00    +0.021 A 
ATOM     16  C   LIG    1       31.693 -17.182   9.282  0.00  0.00    +0.041 A 
ATOM     17 CL   LIG    1       32.718 -15.939   9.884  0.00  0.00    -0.084 Cl
ATOM     18  C   LIG    1       32.189 -18.106   8.367  0.00  0.00    +0.021 A 
ATOM     19  C   LIG    1       31.352 -19.119   7.882  0.00  0.00    +0.015 A 
ENDBRANCH   7  13
BRANCH   1  21
ATOM     20  C   LIG    1       26.220 -15.667   3.287  0.00  0.00    +0.277 C 
ATOM     21  O   LIG    1       26.281 -17.057   2.983  0.00  0.00    -0.495 OA
ENDBRANCH   1  21
BRANCH   4  22
ATOM     22  C   LIG    1       24.744 -21.536   5.792  0.00  0.00    +0.158 C 
BRANCH  22  23
ATOM     23  C   LIG    1       23.667 -21.260   6.819  0.00  0.00    +0.312 C 
ATOM     24  O   LIG    1       23.462 -21.892   7.846  0.00  0.00    -0.251 OA
BRANCH  23  25
ATOM     25  O   LIG    1       22.965 -20.143   6.472  0.00  0.00    -0.453 OA
BRANCH  25  26
ATOM     26  C   LIG    1       22.439 -20.186   5.150  0.00  0.00    +0.352 C 
BRANCH  26  27
ATOM     27  C   LIG    1       22.535 -18.898   4.358  0.00  0.00    +0.343 C 
ATOM     28  O   LIG    1       22.030 -17.827   4.732  0.00  0.00    -0.247 OA
BRANCH  27  29
ATOM     29  O   LIG    1       23.220 -18.993   3.197  0.00  0.00    -0.478 OA
ATOM     30  H   LIG    1       22.664 -18.724   2.423  0.00  0.00    +0.295 HD
ENDBRANCH  27  29
ENDBRANCH  26  27
ENDBRANCH  25  26
ENDBRANCH  23  25
ENDBRANCH  22  23
ENDBRANCH   4  22
TORSDOF 8
ENDMDL
MODEL 5
REMARK VINA RESULT:      -7.0      6.053     10.198
REMARK  Name = *****
REMARK                            x       y       z     vdW  Elec       q    Type
REMARK                         _______ _______ _______ _____ _____    ______ ____
ROOT
ATOM      1  C   LIG    1       25.694 -27.359   6.253  0.00  0.00    +0.121 A 
ATOM      2  C   LIG    1       25.927 -27.668   7.598  0.00  0.00    +0.056 A 
ATOM      3  C   LIG    1       25.647 -28.964   8.092  0.00  0.00    +0.008 A 
ATOM      4  C   LIG    1       25.655 -29.542   9.396  0.00  0.00    -0.008 C 
ATOM      5  C   LIG    1       25.228 -30.860   9.261  0.00  0.00    +0.028 C 
ATOM      6  N   LIG    1       25.112 -31.156   7.894  0.00  0.00    -0.280 N 
ATOM      7  C   LIG    1       24.923 -32.447   7.316  0.00  0.00    +0.263 C 
ATOM      8  O   LIG    1       24.396 -33.307   8.024  0.00  0.00    -0.267 OA
ATOM      9  C   LIG    1       25.019 -31.875  10.344  0.00  0.00    +0.064 C 
ATOM     10  C   LIG    1       25.180 -29.940   7.208  0.00  0.00    +0.057 A 
ATOM     11  C   LIG    1       24.832 -29.605   5.890  0.00  0.00    +0.030 A 
ATOM     12  C   LIG    1       25.131 -28.320   5.421  0.00  0.00    +0.048 A 
ENDROOT
BRANCH   7  13
ATOM     13  C   LIG    1       25.339 -32.899   5.950  0.00  0.00    +0.040 A 
ATOM     14  C   LIG    1       24.419 -33.128   4.918  0.00  0.00    +0.015 A 
ATOM     15  C   LIG    1       24.872 -33.421   3.620  0.00  0.00    +0.021 A 
ATOM     16  C   LIG    1       26.239 -33.458   3.341  0.00  0.00    +0.041 A 
ATOM     17 CL   LIG    1       26.785 -33.793   1.744  0.00  0.00    -0.084 Cl
ATOM     18  C   LIG    1       27.163 -33.210   4.351  0.00  0.00    +0.021 A 
ATOM     19  C   LIG    1       26.713 -32.933   5.649  0.00  0.00    +0.015 A 
ENDBRANCH   7  13
BRANCH   1  21
ATOM     20  C   LIG    1       25.137 -25.445   4.963  0.00  0.00    +0.277 C 
ATOM     21  O   LIG    1       26.021 -26.081   5.880  0.00  0.00    -0.495 OA
ENDBRANCH   1  21
BRANCH   4  22
ATOM     22  C   LIG    1       25.956 -28.799  10.668  0.00  0.00    +0.158 C 
BRANCH  22  23
ATOM     23  C   LIG    1       27.329 -29.072  11.242  0.00  0.00    +0.312 C 
ATOM     24  O   LIG    1       28.170 -29.833  10.786  0.00  0.00    -0.251 OA
BRANCH  23  25
ATOM     25  O   LIG    1       27.540 -28.291  12.341  0.00  0.00    -0.453 OA
BRANCH  25  26
ATOM     26  C   LIG    1       26.482 -27.375  12.603  0.00  0.00    +0.352 C 
BRANCH  26  27
ATOM     27  C   LIG    1       26.900 -26.007  13.103  0.00  0.00    +0.343 C 
ATOM     28  O   LIG    1       26.268 -24.967  12.855  0.00  0.00    -0.247 OA
BRANCH  27  29
ATOM     29  O   LIG    1       28.025 -25.993  13.851  0.00  0.00    -0.478 OA
ATOM     30  H   LIG    1       28.834 -25.897  13.290  0.00  0.00    +0.295 HD
ENDBRANCH  27  29
ENDBRANCH  26  27
ENDBRANCH  25  26
ENDBRANCH  23  25
ENDBRANCH  22  23
ENDBRANCH   4  22
TORSDOF 8
ENDMDL
MODEL 6
REMARK VINA RESULT:      -6.7      7.647      9.252
REMARK  Name = *****
REMARK                            x       y       z     vdW  Elec       q    Type
REMARK                         _______ _______ _______ _____ _____    ______ ____
ROOT
ATOM      1  C   LIG    1       26.323 -25.985  13.211  0.00  0.00    +0.121 A 
ATOM      2  C   LIG    1       26.580 -26.950  12.231  0.00  0.00    +0.056 A 
ATOM      3  C   LIG    1       25.728 -28.072  12.094  0.00  0.00    +0.008 A 
ATOM      4  C   LIG    1       25.785 -29.260  11.304  0.00  0.00    -0.008 C 
ATOM      5  C   LIG    1       24.676 -30.030  11.646  0.00  0.00    +0.028 C 
ATOM      6  N   LIG    1       23.856 -29.280  12.503  0.00  0.00    -0.280 N 
ATOM      7  C   LIG    1       22.525 -29.603  12.904  0.00  0.00    +0.263 C 
ATOM      8  O   LIG    1       22.203 -30.792  12.874  0.00  0.00    -0.267 OA
ATOM      9  C   LIG    1       24.308 -31.388  11.131  0.00  0.00    +0.064 C 
ATOM     10  C   LIG    1       24.604 -28.175  12.918  0.00  0.00    +0.057 A 
ATOM     11  C   LIG    1       24.409 -27.275  13.977  0.00  0.00    +0.030 A 
ATOM     12  C   LIG    1       25.257 -26.167  14.085  0.00  0.00    +0.048 A 
ENDROOT
BRANCH   7  13
ATOM     13  C   LIG    1       21.445 -28.650  13.314  0.00  0.00    +0.040 A 
ATOM     14  C   LIG    1       21.313 -27.373  12.753  0.00  0.00    +0.015 A 
ATOM     15  C   LIG    1       20.205 -26.571  13.077  0.00  0.00    +0.021 A 
ATOM     16  C   LIG    1       19.213 -27.050  13.934  0.00  0.00    +0.041 A 
ATOM     17 CL   LIG    1       17.847 -26.071  14.306  0.00  0.00    -0.084 Cl
ATOM     18  C   LIG    1       19.320 -28.325  14.481  0.00  0.00    +0.021 A 
ATOM     19  C   LIG    1       20.432 -29.119  14.172  0.00  0.00    +0.015 A 
ENDBRANCH   7  13
BRANCH   1  21
ATOM     20  C   LIG    1       27.712 -24.571  14.519  0.00  0.00    +0.277 C 
ATOM     21  O   LIG    1       27.201 -24.932  13.240  0.00  0.00    -0.495 OA
ENDBRANCH   1  21
BRANCH   4  22
ATOM     22  C   LIG    1       26.912 -29.628  10.380  0.00  0.00    +0.158 C 
BRANCH  22  23
ATOM     23  C   LIG    1       26.469 -30.130   9.022  0.00  0.00    +0.312 C 
ATOM     24  O   LIG    1       26.719 -31.222   8.534  0.00  0.00    -0.251 OA
BRANCH  23  25
ATOM     25  O   LIG    1       25.677 -29.199   8.415  0.00  0.00    -0.453 OA
BRANCH  25  26
ATOM     26  C   LIG    1       24.584 -29.759   7.696  0.00  0.00    +0.352 C 
BRANCH  26  27
ATOM     27  C   LIG    1       24.321 -29.167   6.326  0.00  0.00    +0.343 C 
ATOM     28  O   LIG    1       25.026 -28.278   5.820  0.00  0.00    -0.247 OA
BRANCH  27  29
ATOM     29  O   LIG    1       23.251 -29.679   5.680  0.00  0.00    -0.478 OA
ATOM     30  H   LIG    1       22.778 -30.350   6.233  0.00  0.00    +0.295 HD
ENDBRANCH  27  29
ENDBRANCH  26  27
ENDBRANCH  25  26
ENDBRANCH  23  25
ENDBRANCH  22  23
ENDBRANCH   4  22
TORSDOF 8
ENDMDL
MODEL 7
REMARK VINA RESULT:      -6.5      8.721     11.412
REMARK  Name = *****
REMARK                            x       y       z     vdW  Elec       q    Type
REMARK                         _______ _______ _______ _____ _____    ______ ____
ROOT
ATOM      1  C   LIG    1       20.161 -31.468  10.808  0.00  0.00    +0.121 A 
ATOM      2  C   LIG    1       20.551 -30.415  11.643  0.00  0.00    +0.056 A 
ATOM      3  C   LIG    1       21.908 -30.015  11.702  0.00  0.00    +0.008 A 
ATOM      4  C   LIG    1       22.627 -29.093  12.519  0.00  0.00    -0.008 C 
ATOM      5  C   LIG    1       23.966 -29.174  12.145  0.00  0.00    +0.028 C 
ATOM      6  N   LIG    1       24.066 -30.000  11.015  0.00  0.00    -0.280 N 
ATOM      7  C   LIG    1       25.214 -30.167  10.183  0.00  0.00    +0.263 C 
ATOM      8  O   LIG    1       26.313 -29.937  10.690  0.00  0.00    -0.267 OA
ATOM      9  C   LIG    1       25.131 -28.440  12.736  0.00  0.00    +0.064 C 
ATOM     10  C   LIG    1       22.839 -30.655  10.880  0.00  0.00    +0.057 A 
ATOM     11  C   LIG    1       22.476 -31.786  10.132  0.00  0.00    +0.030 A 
ATOM     12  C   LIG    1       21.127 -32.154  10.080  0.00  0.00    +0.048 A 
ENDROOT
BRANCH   7  13
ATOM     13  C   LIG    1       25.237 -30.545   8.734  0.00  0.00    +0.040 A 
ATOM     14  C   LIG    1       24.656 -29.749   7.738  0.00  0.00    +0.015 A 
ATOM     15  C   LIG    1       24.821 -30.082   6.382  0.00  0.00    +0.021 A 
ATOM     16  C   LIG    1       25.589 -31.189   6.016  0.00  0.00    +0.041 A 
ATOM     17 CL   LIG    1       25.808 -31.576   4.354  0.00  0.00    -0.084 Cl
ATOM     18  C   LIG    1       26.190 -31.975   6.994  0.00  0.00    +0.021 A 
ATOM     19  C   LIG    1       26.012 -31.653   8.346  0.00  0.00    +0.015 A 
ENDBRANCH   7  13
BRANCH   1  21
ATOM     20  C   LIG    1       18.056 -31.230   9.735  0.00  0.00    +0.277 C 
ATOM     21  O   LIG    1       18.821 -31.756  10.815  0.00  0.00    -0.495 OA
ENDBRANCH   1  21
BRANCH   4  22
ATOM     22  C   LIG    1       22.033 -28.293  13.645  0.00  0.00    +0.158 C 
BRANCH  22  23
ATOM     23  C   LIG    1       21.748 -26.847  13.303  0.00  0.00    +0.312 C 
ATOM     24  O   LIG    1       22.574 -25.958  13.155  0.00  0.00    -0.251 OA
BRANCH  23  25
ATOM     25  O   LIG    1       20.409 -26.666  13.115  0.00  0.00    -0.453 OA
BRANCH  25  26
ATOM     26  C   LIG    1       19.599 -27.436  13.997  0.00  0.00    +0.352 C 
BRANCH  26  27
ATOM     27  C   LIG    1       18.365 -26.742  14.537  0.00  0.00    +0.343 C 
ATOM     28  O   LIG    1       17.678 -27.197  15.467  0.00  0.00    -0.247 OA
BRANCH  27  29
ATOM     29  O   LIG    1       18.056 -25.575  13.930  0.00  0.00    -0.478 OA
ATOM     30  H   LIG    1       17.325 -25.102  14.401  0.00  0.00    +0.295 HD
ENDBRANCH  27  29
ENDBRANCH  26  27
ENDBRANCH  25  26
ENDBRANCH  23  25
ENDBRANCH  22  23
ENDBRANCH   4  22
TORSDOF 8
ENDMDL
MODEL 8
REMARK VINA RESULT:      -6.4      7.618     10.502
REMARK  Name = *****
REMARK                            x       y       z     vdW  Elec       q    Type
REMARK                         _______ _______ _______ _____ _____    ______ ____
ROOT
ATOM      1  C   LIG    1       22.848 -27.978  13.365  0.00  0.00    +0.121 A 
ATOM      2  C   LIG    1       24.067 -27.668  13.979  0.00  0.00    +0.056 A 
ATOM      3  C   LIG    1       25.279 -28.184  13.460  0.00  0.00    +0.008 A 
ATOM      4  C   LIG    1       26.632 -28.159  13.913  0.00  0.00    -0.008 C 
ATOM      5  C   LIG    1       27.381 -28.895  13.000  0.00  0.00    +0.028 C 
ATOM      6  N   LIG    1       26.558 -29.235  11.915  0.00  0.00    -0.280 N 
ATOM      7  C   LIG    1       26.980 -29.786  10.668  0.00  0.00    +0.263 C 
ATOM      8  O   LIG    1       28.040 -30.413  10.661  0.00  0.00    -0.267 OA
ATOM      9  C   LIG    1       28.846 -29.207  13.052  0.00  0.00    +0.064 C 
ATOM     10  C   LIG    1       25.243 -28.965  12.303  0.00  0.00    +0.057 A 
ATOM     11  C   LIG    1       24.018 -29.376  11.755  0.00  0.00    +0.030 A 
ATOM     12  C   LIG    1       22.834 -28.844  12.277  0.00  0.00    +0.048 A 
ENDROOT
BRANCH   7  13
ATOM     13  C   LIG    1       26.300 -29.649   9.340  0.00  0.00    +0.040 A 
ATOM     14  C   LIG    1       25.587 -30.698   8.746  0.00  0.00    +0.015 A 
ATOM     15  C   LIG    1       24.858 -30.477   7.565  0.00  0.00    +0.021 A 
ATOM     16  C   LIG    1       24.813 -29.206   6.991  0.00  0.00    +0.041 A 
ATOM     17 CL   LIG    1       23.898 -28.937   5.558  0.00  0.00    -0.084 Cl
ATOM     18  C   LIG    1       25.498 -28.149   7.583  0.00  0.00    +0.021 A 
ATOM     19  C   LIG    1       26.239 -28.372   8.751  0.00  0.00    +0.015 A 
ENDBRANCH   7  13
BRANCH   1  21
ATOM     20  C   LIG    1       20.828 -26.771  13.053  0.00  0.00    +0.277 C 
ATOM     21  O   LIG    1       21.742 -27.408  13.939  0.00  0.00    -0.495 OA
ENDBRANCH   1  21
BRANCH   4  22
ATOM     22  C   LIG    1       27.098 -27.547  15.205  0.00  0.00    +0.158 C 
BRANCH  22  23
ATOM     23  C   LIG    1       28.047 -26.380  15.037  0.00  0.00    +0.312 C 
ATOM     24  O   LIG    1       29.179 -26.291  15.491  0.00  0.00    -0.251 OA
BRANCH  23  25
ATOM     25  O   LIG    1       27.482 -25.430  14.237  0.00  0.00    -0.453 OA
BRANCH  25  26
ATOM     26  C   LIG    1       27.240 -24.194  14.901  0.00  0.00    +0.352 C 
BRANCH  26  27
ATOM     27  C   LIG    1       25.790 -23.765  14.991  0.00  0.00    +0.343 C 
ATOM     28  O   LIG    1       24.878 -24.518  15.373  0.00  0.00    -0.247 OA
BRANCH  27  29
ATOM     29  O   LIG    1       25.549 -22.488  14.623  0.00  0.00    -0.478 OA
ATOM     30  H   LIG    1       25.205 -22.434  13.697  0.00  0.00    +0.295 HD
ENDBRANCH  27  29
ENDBRANCH  26  27
ENDBRANCH  25  26
ENDBRANCH  23  25
ENDBRANCH  22  23
ENDBRANCH   4  22
TORSDOF 8
ENDMDL
MODEL 9
REMARK VINA RESULT:      -6.2      3.864      8.050
REMARK  Name = *****
REMARK                            x       y       z     vdW  Elec       q    Type
REMARK                         _______ _______ _______ _____ _____    ______ ____
ROOT
ATOM      1  C   LIG    1       25.971 -18.977   3.889  0.00  0.00    +0.121 A 
ATOM      2  C   LIG    1       27.164 -18.781   4.595  0.00  0.00    +0.056 A 
ATOM      3  C   LIG    1       27.459 -19.573   5.732  0.00  0.00    +0.008 A 
ATOM      4  C   LIG    1       28.496 -19.538   6.711  0.00  0.00    -0.008 C 
ATOM      5  C   LIG    1       28.221 -20.546   7.631  0.00  0.00    +0.028 C 
ATOM      6  N   LIG    1       27.136 -21.301   7.158  0.00  0.00    -0.280 N 
ATOM      7  C   LIG    1       26.681 -22.551   7.676  0.00  0.00    +0.263 C 
ATOM      8  O   LIG    1       26.942 -22.800   8.853  0.00  0.00    -0.267 OA
ATOM      9  C   LIG    1       28.985 -20.890   8.874  0.00  0.00    +0.064 C 
ATOM     10  C   LIG    1       26.565 -20.579   6.107  0.00  0.00    +0.057 A 
ATOM     11  C   LIG    1       25.317 -20.699   5.477  0.00  0.00    +0.030 A 
ATOM     12  C   LIG    1       25.053 -19.915   4.349  0.00  0.00    +0.048 A 
ENDROOT
BRANCH   7  13
ATOM     13  C   LIG    1       25.956 -23.630   6.932  0.00  0.00    +0.040 A 
ATOM     14  C   LIG    1       26.620 -24.706   6.327  0.00  0.00    +0.015 A 
ATOM     15  C   LIG    1       25.884 -25.760   5.757  0.00  0.00    +0.021 A 
ATOM     16  C   LIG    1       24.490 -25.759   5.816  0.00  0.00    +0.041 A 
ATOM     17 CL   LIG    1       23.597 -27.065   5.138  0.00  0.00    -0.084 Cl
ATOM     18  C   LIG    1       23.818 -24.709   6.434  0.00  0.00    +0.021 A 
ATOM     19  C   LIG    1       24.550 -23.650   6.987  0.00  0.00    +0.015 A 
ENDBRANCH   7  13
BRANCH   1  21
ATOM     20  C   LIG    1       25.888 -16.767   3.024  0.00  0.00    +0.277 C 
ATOM     21  O   LIG    1       25.799 -18.170   2.795  0.00  0.00    -0.495 OA
ENDBRANCH   1  21
BRANCH   4  22
ATOM     22  C   LIG    1       29.592 -18.512   6.772  0.00  0.00    +0.158 C 
BRANCH  22  23
ATOM     23  C   LIG    1       30.910 -19.034   7.303  0.00  0.00    +0.312 C 
ATOM     24  O   LIG    1       31.552 -19.974   6.858  0.00  0.00    -0.251 OA
BRANCH  23  25
ATOM     25  O   LIG    1       31.334 -18.258   8.342  0.00  0.00    -0.453 OA
BRANCH  25  26
ATOM     26  C   LIG    1       30.278 -17.603   9.036  0.00  0.00    +0.352 C 
BRANCH  26  27
ATOM     27  C   LIG    1       30.405 -17.559  10.545  0.00  0.00    +0.343 C 
ATOM     28  O   LIG    1       30.651 -18.560  11.238  0.00  0.00    -0.247 OA
BRANCH  27  29
ATOM     29  O   LIG    1       30.231 -16.338  11.096  0.00  0.00    -0.478 OA
ATOM     30  H   LIG    1       30.988 -15.735  10.893  0.00  0.00    +0.295 HD
ENDBRANCH  27  29
ENDBRANCH  26  27
ENDBRANCH  25  26
ENDBRANCH  23  25
ENDBRANCH  22  23
ENDBRANCH   4  22
TORSDOF 8
ENDMDL
