MODEL 1
REMARK VINA RESULT:      -8.1      0.000      0.000
REMARK  Name = *****
REMARK                            x       y       z     vdW  Elec       q    Type
REMARK                         _______ _______ _______ _____ _____    ______ ____
ROOT
ATOM      1  C   LIG    1       24.451 -29.740   9.532  0.00  0.00    +0.002 C 
ATOM      2  C   LIG    1       24.699 -30.624  10.801  0.00  0.00    -0.022 C 
ATOM      3  C   LIG    1       25.716 -31.757  10.519  0.00  0.00    +0.012 C 
ATOM      4  C   LIG    1       23.286 -31.249  11.065  0.00  0.00    +0.021 C 
ATOM      5  C   LIG    1       22.325 -30.460  11.965  0.00  0.00    -0.062 C 
ATOM      6  C   LIG    1       22.910 -29.544  13.036  0.00  0.00    +0.025 C 
ATOM      7  C   LIG    1       24.196 -28.847  12.570  0.00  0.00    +0.009 C 
ATOM      8  C   LIG    1       21.881 -28.549  13.728  0.00  0.00    -0.004 C 
ATOM      9  C   LIG    1       22.439 -28.298  15.156  0.00  0.00    +0.016 C 
ATOM     10  C   LIG    1       20.478 -29.139  13.788  0.00  0.00    -0.061 C 
ATOM     11  C   LIG    1       19.463 -28.371  14.605  0.00  0.00    +0.062 C 
ATOM     12  C   LIG    1       19.513 -26.861  14.287  0.00  0.00    +0.119 C 
ATOM     13  C   LIG    1       20.323 -26.547  13.025  0.00  0.00    +0.032 C 
ATOM     14  C   LIG    1       20.113 -30.161  12.987  0.00  0.00    -0.000 C 
ATOM     15  C   LIG    1       21.727 -27.194  12.972  0.00  0.00    +0.014 C 
ATOM     16  C   LIG    1       21.008 -30.741  12.019  0.00  0.00    -0.000 C 
ATOM     17  C   LIG    1       22.756 -31.534   9.645  0.00  0.00    +0.009 C 
ATOM     18  C   LIG    1       25.195 -29.869  12.048  0.00  0.00    +0.008 C 
ATOM     19  C   LIG    1       23.492 -30.602   8.686  0.00  0.00    +0.005 C 
ENDROOT
BRANCH   1  20
ATOM     20  C   LIG    1       25.664 -29.256   8.674  0.00  0.00    +0.012 C 
ATOM     21  C   LIG    1       26.600 -28.294   9.408  0.00  0.00    +0.012 C 
BRANCH  20  23
ATOM     22  C   LIG    1       25.473 -27.275   7.110  0.00  0.00    -0.027 C 
ATOM     23  C   LIG    1       25.199 -28.560   7.399  0.00  0.00    -0.027 C 
BRANCH  22  24
ATOM     24  C   LIG    1       25.018 -26.553   5.857  0.00  0.00    +0.011 C 
ATOM     25  C   LIG    1       25.966 -26.911   4.704  0.00  0.00    +0.012 C 
BRANCH  24  27
ATOM     26  C   LIG    1       23.504 -24.592   6.532  0.00  0.00    +0.008 C 
ATOM     27  C   LIG    1       24.892 -25.009   6.030  0.00  0.00    -0.011 C 
ATOM     28  C   LIG    1       25.965 -24.393   6.935  0.00  0.00    +0.008 C 
ENDBRANCH  24  27
ENDBRANCH  22  24
ENDBRANCH  20  23
ENDBRANCH   1  20
BRANCH  12  29
ATOM     29  O   LIG    1       20.053 -26.140  15.394  0.00  0.00    -0.392 OA
ATOM     30  H   LIG    1       19.841 -25.199  15.266  0.00  0.00    +0.210 HD
ENDBRANCH  12  29
TORSDOF 5
ENDMDL
MODEL 2
REMARK VINA RESULT:      -7.7      5.673     10.780
REMARK  Name = *****
REMARK                            x       y       z     vdW  Elec       q    Type
REMARK                         _______ _______ _______ _____ _____    ______ ____
ROOT
ATOM      1  C   LIG    1       24.587 -22.360   5.852  0.00  0.00    +0.002 C 
ATOM      2  C   LIG    1       24.366 -20.888   6.342  0.00  0.00    -0.022 C 
ATOM      3  C   LIG    1       22.920 -20.407   6.072  0.00  0.00    +0.012 C 
ATOM      4  C   LIG    1       25.360 -20.075   5.443  0.00  0.00    +0.021 C 
ATOM      5  C   LIG    1       26.792 -19.893   5.964  0.00  0.00    -0.062 C 
ATOM      6  C   LIG    1       27.028 -19.888   7.471  0.00  0.00    +0.025 C 
ATOM      7  C   LIG    1       26.113 -20.875   8.210  0.00  0.00    +0.009 C 
ATOM      8  C   LIG    1       28.547 -19.988   7.932  0.00  0.00    -0.004 C 
ATOM      9  C   LIG    1       28.617 -19.257   9.302  0.00  0.00    +0.016 C 
ATOM     10  C   LIG    1       29.486 -19.340   6.922  0.00  0.00    -0.061 C 
ATOM     11  C   LIG    1       30.930 -19.193   7.349  0.00  0.00    +0.062 C 
ATOM     12  C   LIG    1       31.464 -20.497   7.981  0.00  0.00    +0.119 C 
ATOM     13  C   LIG    1       30.541 -21.695   7.739  0.00  0.00    +0.032 C 
ATOM     14  C   LIG    1       29.099 -19.113   5.651  0.00  0.00    -0.000 C 
ATOM     15  C   LIG    1       29.052 -21.454   8.084  0.00  0.00    +0.014 C 
ATOM     16  C   LIG    1       27.795 -19.482   5.162  0.00  0.00    -0.000 C 
ATOM     17  C   LIG    1       25.254 -20.778   4.075  0.00  0.00    +0.009 C 
ATOM     18  C   LIG    1       24.659 -20.635   7.833  0.00  0.00    +0.008 C 
ATOM     19  C   LIG    1       24.758 -22.200   4.328  0.00  0.00    +0.005 C 
ENDROOT
BRANCH   1  20
ATOM     20  C   LIG    1       23.522 -23.454   6.178  0.00  0.00    +0.012 C 
ATOM     21  C   LIG    1       22.578 -23.082   7.323  0.00  0.00    +0.012 C 
BRANCH  20  23
ATOM     22  C   LIG    1       25.217 -25.308   5.863  0.00  0.00    -0.027 C 
ATOM     23  C   LIG    1       24.182 -24.780   6.542  0.00  0.00    -0.027 C 
BRANCH  22  24
ATOM     24  C   LIG    1       25.888 -26.627   6.193  0.00  0.00    +0.011 C 
ATOM     25  C   LIG    1       26.609 -27.146   4.942  0.00  0.00    +0.012 C 
BRANCH  24  27
ATOM     26  C   LIG    1       24.290 -28.571   5.682  0.00  0.00    +0.008 C 
ATOM     27  C   LIG    1       24.918 -27.699   6.777  0.00  0.00    -0.011 C 
ATOM     28  C   LIG    1       25.552 -28.600   7.842  0.00  0.00    +0.008 C 
ENDBRANCH  24  27
ENDBRANCH  22  24
ENDBRANCH  20  23
ENDBRANCH   1  20
BRANCH  12  29
ATOM     29  O   LIG    1       31.661 -20.322   9.384  0.00  0.00    -0.392 OA
ATOM     30  H   LIG    1       32.572 -20.008   9.517  0.00  0.00    +0.210 HD
ENDBRANCH  12  29
TORSDOF 5
ENDMDL
MODEL 3
REMARK VINA RESULT:      -7.4      8.117     11.529
REMARK  Name = *****
REMARK                            x       y       z     vdW  Elec       q    Type
REMARK                         _______ _______ _______ _____ _____    ______ ____
ROOT
ATOM      1  C   LIG    1       25.145 -21.182   7.755  0.00  0.00    +0.002 C 
ATOM      2  C   LIG    1       26.004 -21.667   6.538  0.00  0.00    -0.022 C 
ATOM      3  C   LIG    1       25.225 -22.667   5.650  0.00  0.00    +0.012 C 
ATOM      4  C   LIG    1       27.195 -22.412   7.236  0.00  0.00    +0.021 C 
ATOM      5  C   LIG    1       28.428 -21.576   7.603  0.00  0.00    -0.062 C 
ATOM      6  C   LIG    1       28.752 -20.341   6.768  0.00  0.00    +0.025 C 
ATOM      7  C   LIG    1       27.489 -19.598   6.310  0.00  0.00    +0.009 C 
ATOM      8  C   LIG    1       29.856 -19.370   7.373  0.00  0.00    -0.004 C 
ATOM      9  C   LIG    1       30.525 -18.684   6.149  0.00  0.00    +0.016 C 
ATOM     10  C   LIG    1       30.886 -20.132   8.199  0.00  0.00    -0.061 C 
ATOM     11  C   LIG    1       32.096 -19.345   8.652  0.00  0.00    +0.062 C 
ATOM     12  C   LIG    1       31.688 -17.975   9.236  0.00  0.00    +0.119 C 
ATOM     13  C   LIG    1       30.184 -17.872   9.512  0.00  0.00    +0.032 C 
ATOM     14  C   LIG    1       30.627 -21.366   8.675  0.00  0.00    -0.000 C 
ATOM     15  C   LIG    1       29.273 -18.291   8.335  0.00  0.00    +0.014 C 
ATOM     16  C   LIG    1       29.368 -22.030   8.457  0.00  0.00    -0.000 C 
ATOM     17  C   LIG    1       26.518 -23.124   8.424  0.00  0.00    +0.009 C 
ATOM     18  C   LIG    1       26.533 -20.555   5.614  0.00  0.00    +0.008 C 
ATOM     19  C   LIG    1       25.231 -22.365   8.740  0.00  0.00    +0.005 C 
ENDROOT
BRANCH   1  20
ATOM     20  C   LIG    1       23.659 -20.753   7.533  0.00  0.00    +0.012 C 
ATOM     21  C   LIG    1       22.724 -21.910   7.175  0.00  0.00    +0.012 C 
BRANCH  20  23
ATOM     22  C   LIG    1       22.646 -19.783   5.426  0.00  0.00    -0.027 C 
ATOM     23  C   LIG    1       23.543 -19.710   6.426  0.00  0.00    -0.027 C 
BRANCH  22  24
ATOM     24  C   LIG    1       22.512 -18.768   4.307  0.00  0.00    +0.011 C 
ATOM     25  C   LIG    1       21.114 -18.895   3.685  0.00  0.00    +0.012 C 
BRANCH  24  27
ATOM     26  C   LIG    1       24.842 -17.996   3.553  0.00  0.00    +0.008 C 
ATOM     27  C   LIG    1       23.627 -18.873   3.224  0.00  0.00    -0.011 C 
ATOM     28  C   LIG    1       24.096 -20.306   2.948  0.00  0.00    +0.008 C 
ENDBRANCH  24  27
ENDBRANCH  22  24
ENDBRANCH  20  23
ENDBRANCH   1  20
BRANCH  12  29
ATOM     29  O   LIG    1       32.085 -16.923   8.356  0.00  0.00    -0.392 OA
ATOM     30  H   LIG    1       31.863 -16.079   8.786  0.00  0.00    +0.210 HD
ENDBRANCH  12  29
TORSDOF 5
ENDMDL
MODEL 4
REMARK VINA RESULT:      -7.0      3.061      4.163
REMARK  Name = *****
REMARK                            x       y       z     vdW  Elec       q    Type
REMARK                         _______ _______ _______ _____ _____    ______ ____
ROOT
ATOM      1  C   LIG    1       24.655 -30.278   8.421  0.00  0.00    +0.002 C 
ATOM      2  C   LIG    1       25.350 -31.407   9.256  0.00  0.00    -0.022 C 
ATOM      3  C   LIG    1       25.133 -32.803   8.623  0.00  0.00    +0.012 C 
ATOM      4  C   LIG    1       24.591 -31.335  10.626  0.00  0.00    +0.021 C 
ATOM      5  C   LIG    1       25.153 -30.385  11.692  0.00  0.00    -0.062 C 
ATOM      6  C   LIG    1       26.648 -30.082  11.689  0.00  0.00    +0.025 C 
ATOM      7  C   LIG    1       27.223 -29.992  10.269  0.00  0.00    +0.009 C 
ATOM      8  C   LIG    1       27.109 -28.880  12.622  0.00  0.00    -0.004 C 
ATOM      9  C   LIG    1       28.571 -29.209  13.034  0.00  0.00    +0.016 C 
ATOM     10  C   LIG    1       26.217 -28.743  13.849  0.00  0.00    -0.061 C 
ATOM     11  C   LIG    1       26.680 -27.768  14.909  0.00  0.00    +0.062 C 
ATOM     12  C   LIG    1       27.124 -26.429  14.283  0.00  0.00    +0.119 C 
ATOM     13  C   LIG    1       26.699 -26.287  12.818  0.00  0.00    +0.032 C 
ATOM     14  C   LIG    1       24.986 -29.294  13.885  0.00  0.00    -0.000 C 
ATOM     15  C   LIG    1       27.055 -27.492  11.916  0.00  0.00    +0.014 C 
ATOM     16  C   LIG    1       24.432 -30.020  12.772  0.00  0.00    -0.000 C 
ATOM     17  C   LIG    1       23.134 -31.052  10.208  0.00  0.00    +0.009 C 
ATOM     18  C   LIG    1       26.865 -31.237   9.471  0.00  0.00    +0.008 C 
ATOM     19  C   LIG    1       23.173 -30.404   8.825  0.00  0.00    +0.005 C 
ENDROOT
BRANCH   1  20
ATOM     20  C   LIG    1       24.806 -30.260   6.866  0.00  0.00    +0.012 C 
ATOM     21  C   LIG    1       25.889 -31.200   6.334  0.00  0.00    +0.012 C 
BRANCH  20  23
ATOM     22  C   LIG    1       24.186 -27.954   6.022  0.00  0.00    -0.027 C 
ATOM     23  C   LIG    1       25.125 -28.858   6.356  0.00  0.00    -0.027 C 
BRANCH  22  24
ATOM     24  C   LIG    1       24.472 -26.558   5.505  0.00  0.00    +0.011 C 
ATOM     25  C   LIG    1       25.757 -26.591   4.666  0.00  0.00    +0.012 C 
BRANCH  24  27
ATOM     26  C   LIG    1       25.917 -24.779   6.662  0.00  0.00    +0.008 C 
ATOM     27  C   LIG    1       24.552 -25.476   6.624  0.00  0.00    -0.011 C 
ATOM     28  C   LIG    1       23.445 -24.418   6.549  0.00  0.00    +0.008 C 
ENDBRANCH  24  27
ENDBRANCH  22  24
ENDBRANCH  20  23
ENDBRANCH   1  20
BRANCH  12  29
ATOM     29  O   LIG    1       28.541 -26.280  14.386  0.00  0.00    -0.392 OA
ATOM     30  H   LIG    1       28.758 -25.359  14.163  0.00  0.00    +0.210 HD
ENDBRANCH  12  29
TORSDOF 5
ENDMDL
MODEL 5
REMARK VINA RESULT:      -6.8      3.046      7.400
REMARK  Name = *****
REMARK                            x       y       z     vdW  Elec       q    Type
REMARK                         _______ _______ _______ _____ _____    ______ ____
ROOT
ATOM      1  C   LIG    1       24.771 -27.346  12.856  0.00  0.00    +0.002 C 
ATOM      2  C   LIG    1       24.785 -28.852  13.288  0.00  0.00    -0.022 C 
ATOM      3  C   LIG    1       24.922 -29.006  14.823  0.00  0.00    +0.012 C 
ATOM      4  C   LIG    1       26.082 -29.395  12.594  0.00  0.00    +0.021 C 
ATOM      5  C   LIG    1       25.939 -29.943  11.168  0.00  0.00    -0.062 C 
ATOM      6  C   LIG    1       24.601 -30.539  10.742  0.00  0.00    +0.025 C 
ATOM      7  C   LIG    1       23.407 -29.786  11.347  0.00  0.00    +0.009 C 
ATOM      8  C   LIG    1       24.434 -30.816   9.185  0.00  0.00    -0.004 C 
ATOM      9  C   LIG    1       23.440 -32.006   9.077  0.00  0.00    +0.016 C 
ATOM     10  C   LIG    1       25.764 -31.159   8.527  0.00  0.00    -0.061 C 
ATOM     11  C   LIG    1       25.699 -31.641   7.095  0.00  0.00    +0.062 C 
ATOM     12  C   LIG    1       24.771 -30.747   6.244  0.00  0.00    +0.119 C 
ATOM     13  C   LIG    1       24.404 -29.435   6.945  0.00  0.00    +0.032 C 
ATOM     14  C   LIG    1       26.937 -30.845   9.114  0.00  0.00    -0.000 C 
ATOM     15  C   LIG    1       23.886 -29.591   8.394  0.00  0.00    +0.014 C 
ATOM     16  C   LIG    1       27.009 -30.154  10.376  0.00  0.00    -0.000 C 
ATOM     17  C   LIG    1       27.077 -28.227  12.743  0.00  0.00    +0.009 C 
ATOM     18  C   LIG    1       23.558 -29.677  12.857  0.00  0.00    +0.008 C 
ATOM     19  C   LIG    1       26.260 -26.949  12.920  0.00  0.00    +0.005 C 
ENDROOT
BRANCH   1  20
ATOM     20  C   LIG    1       23.890 -26.322  13.641  0.00  0.00    +0.012 C 
ATOM     21  C   LIG    1       24.515 -25.841  14.952  0.00  0.00    +0.012 C 
BRANCH  20  23
ATOM     22  C   LIG    1       21.437 -26.756  13.191  0.00  0.00    -0.027 C 
ATOM     23  C   LIG    1       22.522 -26.908  13.973  0.00  0.00    -0.027 C 
BRANCH  22  24
ATOM     24  C   LIG    1       20.062 -27.318  13.498  0.00  0.00    +0.011 C 
ATOM     25  C   LIG    1       19.269 -26.279  14.302  0.00  0.00    +0.012 C 
BRANCH  24  27
ATOM     26  C   LIG    1       19.083 -28.769  15.376  0.00  0.00    +0.008 C 
ATOM     27  C   LIG    1       20.093 -28.696  14.224  0.00  0.00    -0.011 C 
ATOM     28  C   LIG    1       19.887 -29.897  13.293  0.00  0.00    +0.008 C 
ENDBRANCH  24  27
ENDBRANCH  22  24
ENDBRANCH  20  23
ENDBRANCH   1  20
BRANCH  12  29
ATOM     29  O   LIG    1       23.579 -31.455   5.902  0.00  0.00    -0.392 OA
ATOM     30  H   LIG    1       22.958 -31.364   6.645  0.00  0.00    +0.210 HD
ENDBRANCH  12  29
TORSDOF 5
ENDMDL
MODEL 6
REMARK VINA RESULT:      -6.7      2.482      3.374
REMARK  Name = *****
REMARK                            x       y       z     vdW  Elec       q    Type
REMARK                         _______ _______ _______ _____ _____    ______ ____
ROOT
ATOM      1  C   LIG    1       24.409 -30.226  10.272  0.00  0.00    +0.002 C 
ATOM      2  C   LIG    1       24.465 -30.902  11.684  0.00  0.00    -0.022 C 
ATOM      3  C   LIG    1       24.175 -32.421  11.603  0.00  0.00    +0.012 C 
ATOM      4  C   LIG    1       23.297 -30.191  12.451  0.00  0.00    +0.021 C 
ATOM      5  C   LIG    1       23.636 -28.897  13.204  0.00  0.00    -0.062 C 
ATOM      6  C   LIG    1       25.055 -28.705  13.731  0.00  0.00    +0.025 C 
ATOM      7  C   LIG    1       26.113 -29.284  12.782  0.00  0.00    +0.009 C 
ATOM      8  C   LIG    1       25.410 -27.240  14.236  0.00  0.00    -0.004 C 
ATOM      9  C   LIG    1       26.500 -27.428  15.328  0.00  0.00    +0.016 C 
ATOM     10  C   LIG    1       24.189 -26.527  14.804  0.00  0.00    -0.061 C 
ATOM     11  C   LIG    1       24.447 -25.209  15.500  0.00  0.00    +0.062 C 
ATOM     12  C   LIG    1       25.389 -24.311  14.670  0.00  0.00    +0.119 C 
ATOM     13  C   LIG    1       25.574 -24.812  13.234  0.00  0.00    +0.032 C 
ATOM     14  C   LIG    1       22.939 -26.940  14.512  0.00  0.00    -0.000 C 
ATOM     15  C   LIG    1       25.944 -26.308  13.107  0.00  0.00    +0.014 C 
ATOM     16  C   LIG    1       22.677 -28.055  13.639  0.00  0.00    -0.000 C 
ATOM     17  C   LIG    1       22.204 -30.046  11.374  0.00  0.00    +0.009 C 
ATOM     18  C   LIG    1       25.792 -30.733  12.448  0.00  0.00    +0.008 C 
ATOM     19  C   LIG    1       22.895 -30.081  10.013  0.00  0.00    +0.005 C 
ENDROOT
BRANCH   1  20
ATOM     20  C   LIG    1       25.117 -30.906   9.057  0.00  0.00    +0.012 C 
ATOM     21  C   LIG    1       26.644 -30.861   9.122  0.00  0.00    +0.012 C 
BRANCH  20  23
ATOM     22  C   LIG    1       24.890 -28.966   7.446  0.00  0.00    -0.027 C 
ATOM     23  C   LIG    1       24.695 -30.265   7.739  0.00  0.00    -0.027 C 
BRANCH  22  24
ATOM     24  C   LIG    1       24.475 -28.298   6.150  0.00  0.00    +0.011 C 
ATOM     25  C   LIG    1       24.833 -29.221   4.977  0.00  0.00    +0.012 C 
BRANCH  24  27
ATOM     26  C   LIG    1       24.016 -25.772   6.097  0.00  0.00    +0.008 C 
ATOM     27  C   LIG    1       25.075 -26.873   5.956  0.00  0.00    -0.011 C 
ATOM     28  C   LIG    1       26.256 -26.562   6.882  0.00  0.00    +0.008 C 
ENDBRANCH  24  27
ENDBRANCH  22  24
ENDBRANCH  20  23
ENDBRANCH   1  20
BRANCH  12  29
ATOM     29  O   LIG    1       26.662 -24.206  15.307  0.00  0.00    -0.392 OA
ATOM     30  H   LIG    1       27.342 -24.427  14.647  0.00  0.00    +0.210 HD
ENDBRANCH  12  29
TORSDOF 5
ENDMDL
MODEL 7
REMARK VINA RESULT:      -6.7      2.656      5.553
REMARK  Name = *****
REMARK                            x       y       z     vdW  Elec       q    Type
REMARK                         _______ _______ _______ _____ _____    ______ ____
ROOT
ATOM      1  C   LIG    1       25.172 -25.979   6.704  0.00  0.00    +0.002 C 
ATOM      2  C   LIG    1       26.141 -27.165   6.375  0.00  0.00    -0.022 C 
ATOM      3  C   LIG    1       26.899 -26.933   5.044  0.00  0.00    +0.012 C 
ATOM      4  C   LIG    1       25.157 -28.374   6.207  0.00  0.00    +0.021 C 
ATOM      5  C   LIG    1       24.813 -29.180   7.467  0.00  0.00    -0.062 C 
ATOM      6  C   LIG    1       25.834 -29.244   8.598  0.00  0.00    +0.025 C 
ATOM      7  C   LIG    1       26.595 -27.922   8.774  0.00  0.00    +0.009 C 
ATOM      8  C   LIG    1       25.304 -29.842   9.973  0.00  0.00    -0.004 C 
ATOM      9  C   LIG    1       26.545 -30.476  10.659  0.00  0.00    +0.016 C 
ATOM     10  C   LIG    1       24.213 -30.882   9.753  0.00  0.00    -0.061 C 
ATOM     11  C   LIG    1       23.779 -31.665  10.972  0.00  0.00    +0.062 C 
ATOM     12  C   LIG    1       23.546 -30.736  12.182  0.00  0.00    +0.119 C 
ATOM     13  C   LIG    1       23.494 -29.255  11.792  0.00  0.00    +0.032 C 
ATOM     14  C   LIG    1       23.531 -30.947   8.592  0.00  0.00    -0.000 C 
ATOM     15  C   LIG    1       24.668 -28.770  10.910  0.00  0.00    +0.014 C 
ATOM     16  C   LIG    1       23.770 -30.033   7.504  0.00  0.00    -0.000 C 
ATOM     17  C   LIG    1       23.946 -27.747   5.488  0.00  0.00    +0.009 C 
ATOM     18  C   LIG    1       27.198 -27.476   7.451  0.00  0.00    +0.008 C 
ATOM     19  C   LIG    1       23.962 -26.249   5.786  0.00  0.00    +0.005 C 
ENDROOT
BRANCH   1  20
ATOM     20  C   LIG    1       25.667 -24.506   6.547  0.00  0.00    +0.012 C 
ATOM     21  C   LIG    1       25.901 -23.783   7.874  0.00  0.00    +0.012 C 
BRANCH  20  23
ATOM     22  C   LIG    1       24.839 -22.358   5.493  0.00  0.00    -0.027 C 
ATOM     23  C   LIG    1       24.679 -23.671   5.738  0.00  0.00    -0.027 C 
BRANCH  22  24
ATOM     24  C   LIG    1       23.871 -21.500   4.701  0.00  0.00    +0.011 C 
ATOM     25  C   LIG    1       24.671 -20.527   3.825  0.00  0.00    +0.012 C 
BRANCH  24  27
ATOM     26  C   LIG    1       23.276 -20.646   7.048  0.00  0.00    +0.008 C 
ATOM     27  C   LIG    1       22.831 -20.747   5.583  0.00  0.00    -0.011 C 
ATOM     28  C   LIG    1       22.468 -19.350   5.066  0.00  0.00    +0.008 C 
ENDBRANCH  24  27
ENDBRANCH  22  24
ENDBRANCH  20  23
ENDBRANCH   1  20
BRANCH  12  29
ATOM     29  O   LIG    1       24.564 -30.936  13.163  0.00  0.00    -0.392 OA
ATOM     30  H   LIG    1       25.418 -30.723  12.749  0.00  0.00    +0.210 HD
ENDBRANCH  12  29
TORSDOF 5
ENDMDL
MODEL 8
REMARK VINA RESULT:      -6.3      2.852      5.539
REMARK  Name = *****
REMARK                            x       y       z     vdW  Elec       q    Type
REMARK                         _______ _______ _______ _____ _____    ______ ____
ROOT
ATOM      1  C   LIG    1       24.542 -26.834   6.345  0.00  0.00    +0.002 C 
ATOM      2  C   LIG    1       25.938 -27.542   6.399  0.00  0.00    -0.022 C 
ATOM      3  C   LIG    1       26.861 -27.077   5.246  0.00  0.00    +0.012 C 
ATOM      4  C   LIG    1       25.565 -29.050   6.189  0.00  0.00    +0.021 C 
ATOM      5  C   LIG    1       25.246 -29.877   7.442  0.00  0.00    -0.062 C 
ATOM      6  C   LIG    1       25.892 -29.480   8.766  0.00  0.00    +0.025 C 
ATOM      7  C   LIG    1       26.022 -27.958   8.921  0.00  0.00    +0.009 C 
ATOM      8  C   LIG    1       25.299 -30.186  10.061  0.00  0.00    -0.004 C 
ATOM      9  C   LIG    1       26.470 -30.241  11.081  0.00  0.00    +0.016 C 
ATOM     10  C   LIG    1       24.780 -31.586   9.754  0.00  0.00    -0.061 C 
ATOM     11  C   LIG    1       24.382 -32.429  10.945  0.00  0.00    +0.062 C 
ATOM     12  C   LIG    1       23.515 -31.625  11.937  0.00  0.00    +0.119 C 
ATOM     13  C   LIG    1       23.005 -30.306  11.346  0.00  0.00    +0.032 C 
ATOM     14  C   LIG    1       24.492 -31.964   8.492  0.00  0.00    -0.000 C 
ATOM     15  C   LIG    1       24.089 -29.425  10.682  0.00  0.00    +0.014 C 
ATOM     16  C   LIG    1       24.633 -31.075   7.368  0.00  0.00    -0.000 C 
ATOM     17  C   LIG    1       24.432 -28.992   5.145  0.00  0.00    +0.009 C 
ATOM     18  C   LIG    1       26.723 -27.360   7.711  0.00  0.00    +0.008 C 
ATOM     19  C   LIG    1       23.801 -27.604   5.232  0.00  0.00    +0.005 C 
ENDROOT
BRANCH   1  20
ATOM     20  C   LIG    1       24.463 -25.293   6.099  0.00  0.00    +0.012 C 
ATOM     21  C   LIG    1       24.793 -24.874   4.665  0.00  0.00    +0.012 C 
BRANCH  20  23
ATOM     22  C   LIG    1       25.654 -23.216   6.922  0.00  0.00    -0.027 C 
ATOM     23  C   LIG    1       25.406 -24.535   7.027  0.00  0.00    -0.027 C 
BRANCH  22  24
ATOM     24  C   LIG    1       26.592 -22.436   7.822  0.00  0.00    +0.011 C 
ATOM     25  C   LIG    1       25.761 -21.529   8.740  0.00  0.00    +0.012 C 
BRANCH  24  27
ATOM     26  C   LIG    1       27.092 -20.388   6.358  0.00  0.00    +0.008 C 
ATOM     27  C   LIG    1       27.676 -21.625   7.051  0.00  0.00    -0.011 C 
ATOM     28  C   LIG    1       28.873 -21.207   7.912  0.00  0.00    +0.008 C 
ENDBRANCH  24  27
ENDBRANCH  22  24
ENDBRANCH  20  23
ENDBRANCH   1  20
BRANCH  12  29
ATOM     29  O   LIG    1       24.248 -31.360  13.134  0.00  0.00    -0.392 OA
ATOM     30  H   LIG    1       23.649 -30.910  13.753  0.00  0.00    +0.210 HD
ENDBRANCH  12  29
TORSDOF 5
ENDMDL
MODEL 9
REMARK VINA RESULT:      -6.3      2.096      3.014
REMARK  Name = *****
REMARK                            x       y       z     vdW  Elec       q    Type
REMARK                         _______ _______ _______ _____ _____    ______ ____
ROOT
ATOM      1  C   LIG    1       25.124 -30.760   9.966  0.00  0.00    +0.002 C 
ATOM      2  C   LIG    1       25.062 -30.540  11.516  0.00  0.00    -0.022 C 
ATOM      3  C   LIG    1       26.471 -30.325  12.120  0.00  0.00    +0.012 C 
ATOM      4  C   LIG    1       24.479 -31.901  12.031  0.00  0.00    +0.021 C 
ATOM      5  C   LIG    1       22.951 -32.022  12.121  0.00  0.00    -0.062 C 
ATOM      6  C   LIG    1       22.129 -30.759  12.356  0.00  0.00    +0.025 C 
ATOM      7  C   LIG    1       22.713 -29.538  11.633  0.00  0.00    +0.009 C 
ATOM      8  C   LIG    1       20.559 -30.911  12.149  0.00  0.00    -0.004 C 
ATOM      9  C   LIG    1       19.910 -29.858  13.090  0.00  0.00    +0.016 C 
ATOM     10  C   LIG    1       20.078 -32.315  12.491  0.00  0.00    -0.061 C 
ATOM     11  C   LIG    1       18.579 -32.519  12.528  0.00  0.00    +0.062 C 
ATOM     12  C   LIG    1       17.896 -31.885  11.297  0.00  0.00    +0.119 C 
ATOM     13  C   LIG    1       18.892 -31.498  10.199  0.00  0.00    +0.032 C 
ATOM     14  C   LIG    1       20.933 -33.356  12.542  0.00  0.00    -0.000 C 
ATOM     15  C   LIG    1       20.103 -30.664  10.680  0.00  0.00    +0.014 C 
ATOM     16  C   LIG    1       22.339 -33.215  12.259  0.00  0.00    -0.000 C 
ATOM     17  C   LIG    1       25.159 -32.944  11.122  0.00  0.00    +0.009 C 
ATOM     18  C   LIG    1       24.183 -29.366  11.984  0.00  0.00    +0.008 C 
ATOM     19  C   LIG    1       25.575 -32.230   9.838  0.00  0.00    +0.005 C 
ENDROOT
BRANCH   1  20
ATOM     20  C   LIG    1       26.017 -29.829   9.085  0.00  0.00    +0.012 C 
ATOM     21  C   LIG    1       26.493 -28.564   9.802  0.00  0.00    +0.012 C 
BRANCH  20  23
ATOM     22  C   LIG    1       25.167 -28.108   7.434  0.00  0.00    -0.027 C 
ATOM     23  C   LIG    1       25.284 -29.391   7.821  0.00  0.00    -0.027 C 
BRANCH  22  24
ATOM     24  C   LIG    1       24.438 -27.641   6.189  0.00  0.00    +0.011 C 
ATOM     25  C   LIG    1       24.670 -28.660   5.065  0.00  0.00    +0.012 C 
BRANCH  24  27
ATOM     26  C   LIG    1       23.855 -25.142   6.288  0.00  0.00    +0.008 C 
ATOM     27  C   LIG    1       24.821 -26.199   5.739  0.00  0.00    -0.011 C 
ATOM     28  C   LIG    1       26.260 -25.799   6.085  0.00  0.00    +0.008 C 
ENDBRANCH  24  27
ENDBRANCH  22  24
ENDBRANCH  20  23
ENDBRANCH   1  20
BRANCH  12  29
ATOM     29  O   LIG    1       17.142 -30.736  11.685  0.00  0.00    -0.392 OA
ATOM     30  H   LIG    1       17.571 -30.354  12.471  0.00  0.00    +0.210 HD
ENDBRANCH  12  29
TORSDOF 5
ENDMDL
