MODEL 1
REMARK VINA RESULT:      -0.2      0.000      0.000
REMARK  Name = *****
REMARK                            x       y       z     vdW  Elec       q    Type
REMARK                         _______ _______ _______ _____ _____    ______ ____
ROOT
ATOM      1  C   LIG    1       25.781 -15.188   3.365  0.00  0.00    +0.216 C 
ENDROOT
BRANCH   1   2
ATOM      2  C   LIG    1       24.440 -15.194   4.172  0.00  0.00    -0.001 A 
ATOM      3  C   LIG    1       23.561 -16.294   4.106  0.00  0.00    +0.007 A 
ATOM      4  C   LIG    1       22.377 -16.314   4.851  0.00  0.00    +0.000 A 
ATOM      5  C   LIG    1       22.041 -15.236   5.668  0.00  0.00    +0.000 A 
ATOM      6  C   LIG    1       22.887 -14.134   5.740  0.00  0.00    +0.000 A 
ATOM      7  C   LIG    1       24.071 -14.112   5.001  0.00  0.00    +0.007 A 
ENDBRANCH   1   2
BRANCH   1   8
ATOM      8  C   LIG    1       26.798 -14.155   3.964  0.00  0.00    -0.001 A 
ATOM      9  C   LIG    1       26.746 -13.749   5.316  0.00  0.00    +0.007 A 
ATOM     10  C   LIG    1       27.685 -12.869   5.861  0.00  0.00    +0.000 A 
ATOM     11  C   LIG    1       28.710 -12.372   5.071  0.00  0.00    +0.000 A 
ATOM     12  C   LIG    1       28.805 -12.768   3.742  0.00  0.00    +0.000 A 
ATOM     13  C   LIG    1       27.872 -13.663   3.202  0.00  0.00    +0.007 A 
ENDBRANCH   1   8
BRANCH   1  14
ATOM     14  C   LIG    1       26.341 -16.674   3.320  0.00  0.00    +0.349 C 
ATOM     15  O   LIG    1       27.532 -17.008   3.372  0.00  0.00    -0.247 OA
BRANCH  14  16
ATOM     16  O   LIG    1       25.354 -17.589   3.069  0.00  0.00    -0.459 OA
BRANCH  16  17
ATOM     17  C   LIG    1       25.756 -18.975   3.109  0.00  0.00    +0.179 C 
ATOM     18  C   LIG    1       26.229 -19.317   4.518  0.00  0.00    +0.060 C 
ATOM     19  C   LIG    1       25.067 -19.305   5.513  0.00  0.00    +0.087 C 
ATOM     20  N   LIG    1       23.930 -20.146   5.114  0.00  0.00    -0.305 NA
ATOM     21  C   LIG    1       24.205 -21.572   5.273  0.00  0.00    +0.105 C 
ATOM     22  C   LIG    1       23.470 -19.811   3.761  0.00  0.00    +0.087 C 
ATOM     23  C   LIG    1       24.576 -19.862   2.704  0.00  0.00    +0.060 C 
ENDBRANCH  16  17
ENDBRANCH  14  16
ENDBRANCH   1  14
BRANCH   1  24
ATOM     24  O   LIG    1       25.434 -14.734   2.028  0.00  0.00    -0.353 OA
BRANCH  24  25
ATOM     25  C   LIG    1       24.341 -13.828   1.921  0.00  0.00    +0.162 C 
BRANCH  25  27
ATOM     26  C   LIG    1       24.121 -11.457   2.723  0.00  0.00    +0.006 C 
ATOM     27  C   LIG    1       24.894 -12.409   1.826  0.00  0.00    +0.025 C 
ENDBRANCH  25  27
ENDBRANCH  24  25
ENDBRANCH   1  24
TORSDOF 8
ENDMDL
MODEL 2
REMARK VINA RESULT:       0.7      2.247      6.689
REMARK  Name = *****
REMARK                            x       y       z     vdW  Elec       q    Type
REMARK                         _______ _______ _______ _____ _____    ______ ____
ROOT
ATOM      1  C   LIG    1       26.006 -18.689   3.935  0.00  0.00    +0.216 C 
ENDROOT
BRANCH   1   2
ATOM      2  C   LIG    1       26.926 -19.356   5.012  0.00  0.00    -0.001 A 
ATOM      3  C   LIG    1       26.452 -20.418   5.810  0.00  0.00    +0.007 A 
ATOM      4  C   LIG    1       27.282 -21.035   6.751  0.00  0.00    +0.000 A 
ATOM      5  C   LIG    1       28.596 -20.602   6.923  0.00  0.00    +0.000 A 
ATOM      6  C   LIG    1       29.082 -19.549   6.155  0.00  0.00    +0.000 A 
ATOM      7  C   LIG    1       28.257 -18.932   5.213  0.00  0.00    +0.007 A 
ENDBRANCH   1   2
BRANCH   1   8
ATOM      8  C   LIG    1       24.501 -18.723   4.378  0.00  0.00    -0.001 A 
ATOM      9  C   LIG    1       23.507 -17.973   3.712  0.00  0.00    +0.007 A 
ATOM     10  C   LIG    1       22.159 -18.045   4.074  0.00  0.00    +0.000 A 
ATOM     11  C   LIG    1       21.763 -18.876   5.111  0.00  0.00    +0.000 A 
ATOM     12  C   LIG    1       22.712 -19.646   5.773  0.00  0.00    +0.000 A 
ATOM     13  C   LIG    1       24.060 -19.584   5.398  0.00  0.00    +0.007 A 
ENDBRANCH   1   8
BRANCH   1  14
ATOM     14  C   LIG    1       26.551 -17.224   3.654  0.00  0.00    +0.349 C 
ATOM     15  O   LIG    1       27.737 -16.868   3.683  0.00  0.00    -0.247 OA
BRANCH  14  16
ATOM     16  O   LIG    1       25.538 -16.316   3.504  0.00  0.00    -0.459 OA
BRANCH  16  17
ATOM     17  C   LIG    1       25.763 -15.018   4.094  0.00  0.00    +0.179 C 
ATOM     18  C   LIG    1       26.372 -14.093   3.046  0.00  0.00    +0.060 C 
ATOM     19  C   LIG    1       25.363 -13.759   1.945  0.00  0.00    +0.087 C 
ATOM     20  N   LIG    1       24.086 -13.231   2.445  0.00  0.00    -0.305 NA
ATOM     21  C   LIG    1       24.197 -11.855   2.922  0.00  0.00    +0.105 C 
ATOM     22  C   LIG    1       23.497 -14.126   3.447  0.00  0.00    +0.087 C 
ATOM     23  C   LIG    1       24.437 -14.453   4.610  0.00  0.00    +0.060 C 
ENDBRANCH  16  17
ENDBRANCH  14  16
ENDBRANCH   1  14
BRANCH   1  24
ATOM     24  O   LIG    1       26.130 -19.516   2.745  0.00  0.00    -0.353 OA
BRANCH  24  25
ATOM     25  C   LIG    1       24.924 -20.025   2.188  0.00  0.00    +0.162 C 
BRANCH  25  27
ATOM     26  C   LIG    1       23.097 -21.570   2.956  0.00  0.00    +0.006 C 
ATOM     27  C   LIG    1       24.598 -21.354   2.862  0.00  0.00    +0.025 C 
ENDBRANCH  25  27
ENDBRANCH  24  25
ENDBRANCH   1  24
TORSDOF 8
ENDMDL
MODEL 3
REMARK VINA RESULT:       2.4      1.957      4.590
REMARK  Name = *****
REMARK                            x       y       z     vdW  Elec       q    Type
REMARK                         _______ _______ _______ _____ _____    ______ ____
ROOT
ATOM      1  C   LIG    1       25.464 -15.159   4.187  0.00  0.00    +0.216 C 
ENDROOT
BRANCH   1   2
ATOM      2  C   LIG    1       25.183 -13.883   3.325  0.00  0.00    -0.001 A 
ATOM      3  C   LIG    1       23.901 -13.297   3.297  0.00  0.00    +0.007 A 
ATOM      4  C   LIG    1       23.656 -12.139   2.551  0.00  0.00    +0.000 A 
ATOM      5  C   LIG    1       24.680 -11.548   1.812  0.00  0.00    +0.000 A 
ATOM      6  C   LIG    1       25.950 -12.114   1.815  0.00  0.00    +0.000 A 
ATOM      7  C   LIG    1       26.199 -13.269   2.560  0.00  0.00    +0.007 A 
ENDBRANCH   1   2
BRANCH   1   8
ATOM      8  C   LIG    1       24.220 -16.115   4.204  0.00  0.00    -0.001 A 
ATOM      9  C   LIG    1       24.287 -17.442   3.727  0.00  0.00    +0.007 A 
ATOM     10  C   LIG    1       23.192 -18.309   3.792  0.00  0.00    +0.000 A 
ATOM     11  C   LIG    1       21.996 -17.875   4.342  0.00  0.00    +0.000 A 
ATOM     12  C   LIG    1       21.902 -16.581   4.842  0.00  0.00    +0.000 A 
ATOM     13  C   LIG    1       23.005 -15.720   4.791  0.00  0.00    +0.007 A 
ENDBRANCH   1   8
BRANCH   1  14
ATOM     14  C   LIG    1       26.785 -15.849   3.639  0.00  0.00    +0.349 C 
ATOM     15  O   LIG    1       27.188 -15.827   2.468  0.00  0.00    -0.247 OA
BRANCH  14  16
ATOM     16  O   LIG    1       27.397 -16.621   4.590  0.00  0.00    -0.459 OA
BRANCH  16  17
ATOM     17  C   LIG    1       28.108 -17.777   4.099  0.00  0.00    +0.179 C 
ATOM     18  C   LIG    1       29.392 -17.952   4.904  0.00  0.00    +0.060 C 
ATOM     19  C   LIG    1       29.092 -18.364   6.347  0.00  0.00    +0.087 C 
ATOM     20  N   LIG    1       28.226 -19.544   6.464  0.00  0.00    -0.305 NA
ATOM     21  C   LIG    1       28.921 -20.785   6.131  0.00  0.00    +0.105 C 
ATOM     22  C   LIG    1       26.987 -19.373   5.696  0.00  0.00    +0.087 C 
ATOM     23  C   LIG    1       27.217 -19.017   4.226  0.00  0.00    +0.060 C 
ENDBRANCH  16  17
ENDBRANCH  14  16
ENDBRANCH   1  14
BRANCH   1  24
ATOM     24  O   LIG    1       25.665 -14.680   5.545  0.00  0.00    -0.353 OA
BRANCH  24  25
ATOM     25  C   LIG    1       26.036 -13.314   5.695  0.00  0.00    +0.162 C 
BRANCH  25  27
ATOM     26  C   LIG    1       28.346 -12.593   5.018  0.00  0.00    +0.006 C 
ATOM     27  C   LIG    1       27.506 -13.251   6.100  0.00  0.00    +0.025 C 
ENDBRANCH  25  27
ENDBRANCH  24  25
ENDBRANCH   1  24
TORSDOF 8
ENDMDL
MODEL 4
REMARK VINA RESULT:       2.5      2.236      6.675
REMARK  Name = *****
REMARK                            x       y       z     vdW  Elec       q    Type
REMARK                         _______ _______ _______ _____ _____    ______ ____
ROOT
ATOM      1  C   LIG    1       25.925 -18.793   3.948  0.00  0.00    +0.216 C 
ENDROOT
BRANCH   1   2
ATOM      2  C   LIG    1       26.850 -19.402   5.054  0.00  0.00    -0.001 A 
ATOM      3  C   LIG    1       26.395 -20.450   5.880  0.00  0.00    +0.007 A 
ATOM      4  C   LIG    1       27.230 -21.017   6.849  0.00  0.00    +0.000 A 
ATOM      5  C   LIG    1       28.531 -20.545   7.019  0.00  0.00    +0.000 A 
ATOM      6  C   LIG    1       28.999 -19.505   6.223  0.00  0.00    +0.000 A 
ATOM      7  C   LIG    1       28.169 -18.939   5.254  0.00  0.00    +0.007 A 
ENDBRANCH   1   2
BRANCH   1   8
ATOM      8  C   LIG    1       24.418 -18.843   4.380  0.00  0.00    -0.001 A 
ATOM      9  C   LIG    1       23.984 -19.585   5.500  0.00  0.00    +0.007 A 
ATOM     10  C   LIG    1       22.649 -19.586   5.914  0.00  0.00    +0.000 A 
ATOM     11  C   LIG    1       21.707 -18.839   5.224  0.00  0.00    +0.000 A 
ATOM     12  C   LIG    1       22.105 -18.078   4.130  0.00  0.00    +0.000 A 
ATOM     13  C   LIG    1       23.446 -18.066   3.726  0.00  0.00    +0.007 A 
ENDBRANCH   1   8
BRANCH   1  14
ATOM     14  C   LIG    1       26.442 -17.327   3.620  0.00  0.00    +0.349 C 
ATOM     15  O   LIG    1       27.581 -17.022   3.242  0.00  0.00    -0.247 OA
BRANCH  14  16
ATOM     16  O   LIG    1       25.516 -16.371   3.938  0.00  0.00    -0.459 OA
BRANCH  16  17
ATOM     17  C   LIG    1       25.529 -15.184   3.115  0.00  0.00    +0.179 C 
ATOM     18  C   LIG    1       24.153 -14.528   3.163  0.00  0.00    +0.060 C 
ATOM     19  C   LIG    1       23.865 -13.941   4.547  0.00  0.00    +0.087 C 
ATOM     20  N   LIG    1       24.906 -13.028   5.037  0.00  0.00    -0.305 NA
ATOM     21  C   LIG    1       24.887 -11.737   4.356  0.00  0.00    +0.105 C 
ATOM     22  C   LIG    1       26.230 -13.663   4.999  0.00  0.00    +0.087 C 
ATOM     23  C   LIG    1       26.605 -14.221   3.624  0.00  0.00    +0.060 C 
ENDBRANCH  16  17
ENDBRANCH  14  16
ENDBRANCH   1  14
BRANCH   1  24
ATOM     24  O   LIG    1       26.077 -19.657   2.788  0.00  0.00    -0.353 OA
BRANCH  24  25
ATOM     25  C   LIG    1       24.882 -20.175   2.212  0.00  0.00    +0.162 C 
BRANCH  25  27
ATOM     26  C   LIG    1       23.309 -21.572   3.585  0.00  0.00    +0.006 C 
ATOM     27  C   LIG    1       24.613 -21.554   2.807  0.00  0.00    +0.025 C 
ENDBRANCH  25  27
ENDBRANCH  24  25
ENDBRANCH   1  24
TORSDOF 8
ENDMDL
