MODEL 1
REMARK VINA RESULT:      -3.4      0.000      0.000
REMARK  Name = *****
REMARK                            x       y       z     vdW  Elec       q    Type
REMARK                         _______ _______ _______ _____ _____    ______ ____
ROOT
ATOM      1  N   LIG    1       28.167 -18.266   5.797  0.00  0.00    -0.311 NA
ATOM      2  H   LIG    1       28.683 -18.268   6.688  0.00  0.00    +0.122 HD
ENDROOT
BRANCH   1   3
ATOM      3  C   LIG    1       28.063 -19.664   5.354  0.00  0.00    +0.115 C 
BRANCH   3   4
ATOM      4  C   LIG    1       27.460 -20.576   6.449  0.00  0.00    +0.169 C 
BRANCH   4   5
ATOM      5  C   LIG    1       26.201 -21.331   5.943  0.00  0.00    +0.203 C 
ATOM      6  O   LIG    1       25.781 -20.728   4.697  0.00  0.00    -0.486 OA
ATOM      7  C   LIG    1       24.494 -20.284   4.585  0.00  0.00    +0.124 A 
ATOM      8  C   LIG    1       23.665 -20.040   5.682  0.00  0.00    -0.003 A 
ATOM      9  C   LIG    1       22.361 -19.568   5.472  0.00  0.00    +0.045 A 
ATOM     10  C   LIG    1       21.896 -19.384   4.176  0.00  0.00    +0.124 A 
ATOM     11  C   LIG    1       22.712 -19.637   3.080  0.00  0.00    +0.042 A 
ATOM     12  F   LIG    1       20.637 -18.970   3.980  0.00  0.00    -0.205 F 
ATOM     13  C   LIG    1       24.176 -20.298   7.062  0.00  0.00    +0.042 C 
ATOM     14  C   LIG    1       24.022 -20.073   3.287  0.00  0.00    +0.049 A 
ATOM     15  C   LIG    1       25.083 -21.510   6.982  0.00  0.00    +0.052 C 
ENDBRANCH   4   5
BRANCH   4  16
ATOM     16  O   LIG    1       28.453 -21.502   6.912  0.00  0.00    -0.387 OA
ATOM     17  H   LIG    1       29.173 -20.950   7.277  0.00  0.00    +0.210 HD
ENDBRANCH   4  16
ENDBRANCH   3   4
ENDBRANCH   1   3
BRANCH   1  18
ATOM     18  C   LIG    1       28.908 -17.451   4.818  0.00  0.00    +0.115 C 
BRANCH  18  19
ATOM     19  C   LIG    1       28.007 -16.448   4.053  0.00  0.00    +0.169 C 
BRANCH  19  20
ATOM     20  C   LIG    1       27.847 -15.096   4.795  0.00  0.00    +0.203 C 
ATOM     21  O   LIG    1       26.469 -14.796   5.071  0.00  0.00    -0.486 OA
ATOM     22  C   LIG    1       25.800 -13.986   4.198  0.00  0.00    +0.124 A 
ATOM     23  C   LIG    1       26.415 -13.256   3.182  0.00  0.00    -0.003 A 
ATOM     24  C   LIG    1       25.626 -12.429   2.364  0.00  0.00    +0.045 A 
ATOM     25  C   LIG    1       24.257 -12.341   2.587  0.00  0.00    +0.124 A 
ATOM     26  C   LIG    1       23.642 -13.069   3.592  0.00  0.00    +0.042 A 
ATOM     27  F   LIG    1       23.515 -11.531   1.812  0.00  0.00    -0.205 F 
ATOM     28  C   LIG    1       27.889 -13.368   2.936  0.00  0.00    +0.042 C 
ATOM     29  C   LIG    1       24.419 -13.901   4.402  0.00  0.00    +0.049 A 
ATOM     30  C   LIG    1       28.594 -13.920   4.163  0.00  0.00    +0.052 C 
ENDBRANCH  19  20
BRANCH  19  31
ATOM     31  O   LIG    1       26.743 -17.058   3.780  0.00  0.00    -0.387 OA
ATOM     32  H   LIG    1       26.326 -17.185   4.656  0.00  0.00    +0.210 HD
ENDBRANCH  19  31
ENDBRANCH  18  19
ENDBRANCH   1  18
TORSDOF 8
ENDMDL
MODEL 2
REMARK VINA RESULT:      -3.3      2.020      2.946
REMARK  Name = *****
REMARK                            x       y       z     vdW  Elec       q    Type
REMARK                         _______ _______ _______ _____ _____    ______ ____
ROOT
ATOM      1  N   LIG    1       27.125 -17.286   4.715  0.00  0.00    -0.311 NA
ATOM      2  H   LIG    1       27.292 -16.451   5.293  0.00  0.00    +0.122 HD
ENDROOT
BRANCH   1   3
ATOM      3  C   LIG    1       28.320 -18.137   4.828  0.00  0.00    +0.115 C 
BRANCH   3   4
ATOM      4  C   LIG    1       28.177 -19.191   5.952  0.00  0.00    +0.169 C 
BRANCH   4   5
ATOM      5  C   LIG    1       27.377 -20.434   5.478  0.00  0.00    +0.203 C 
ATOM      6  O   LIG    1       26.441 -20.011   4.459  0.00  0.00    -0.486 OA
ATOM      7  C   LIG    1       25.117 -20.301   4.624  0.00  0.00    +0.124 A 
ATOM      8  C   LIG    1       24.553 -20.651   5.853  0.00  0.00    -0.003 A 
ATOM      9  C   LIG    1       23.178 -20.916   5.931  0.00  0.00    +0.045 A 
ATOM     10  C   LIG    1       22.400 -20.865   4.781  0.00  0.00    +0.124 A 
ATOM     11  C   LIG    1       22.958 -20.529   3.554  0.00  0.00    +0.042 A 
ATOM     12  F   LIG    1       21.094 -21.156   4.855  0.00  0.00    -0.205 F 
ATOM     13  C   LIG    1       25.424 -20.750   7.062  0.00  0.00    +0.042 C 
ATOM     14  C   LIG    1       24.320 -20.230   3.479  0.00  0.00    +0.049 A 
ATOM     15  C   LIG    1       26.766 -21.287   6.601  0.00  0.00    +0.052 C 
ENDBRANCH   4   5
BRANCH   4  16
ATOM     16  O   LIG    1       29.475 -19.574   6.427  0.00  0.00    -0.387 OA
ATOM     17  H   LIG    1       29.738 -20.337   5.877  0.00  0.00    +0.210 HD
ENDBRANCH   4  16
ENDBRANCH   3   4
ENDBRANCH   1   3
BRANCH   1  18
ATOM     18  C   LIG    1       26.901 -16.865   3.321  0.00  0.00    +0.115 C 
BRANCH  18  19
ATOM     19  C   LIG    1       25.422 -16.509   3.020  0.00  0.00    +0.169 C 
BRANCH  19  20
ATOM     20  C   LIG    1       25.208 -14.993   2.773  0.00  0.00    +0.203 C 
ATOM     21  O   LIG    1       26.435 -14.328   2.430  0.00  0.00    -0.486 OA
ATOM     22  C   LIG    1       27.128 -13.702   3.427  0.00  0.00    +0.124 A 
ATOM     23  C   LIG    1       26.623 -13.476   4.706  0.00  0.00    -0.003 A 
ATOM     24  C   LIG    1       27.418 -12.791   5.641  0.00  0.00    +0.045 A 
ATOM     25  C   LIG    1       28.681 -12.340   5.275  0.00  0.00    +0.124 A 
ATOM     26  C   LIG    1       29.188 -12.569   4.007  0.00  0.00    +0.042 A 
ATOM     27  F   LIG    1       29.425 -11.669   6.171  0.00  0.00    -0.205 F 
ATOM     28  C   LIG    1       25.267 -13.979   5.099  0.00  0.00    +0.042 C 
ATOM     29  C   LIG    1       28.407 -13.258   3.075  0.00  0.00    +0.049 A 
ATOM     30  C   LIG    1       24.426 -14.264   3.867  0.00  0.00    +0.052 C 
ENDBRANCH  19  20
BRANCH  19  31
ATOM     31  O   LIG    1       24.593 -17.000   4.075  0.00  0.00    -0.387 OA
ATOM     32  H   LIG    1       25.061 -16.761   4.901  0.00  0.00    +0.210 HD
ENDBRANCH  19  31
ENDBRANCH  18  19
ENDBRANCH   1  18
TORSDOF 8
ENDMDL
MODEL 3
REMARK VINA RESULT:      -2.7      2.902      4.905
REMARK  Name = *****
REMARK                            x       y       z     vdW  Elec       q    Type
REMARK                         _______ _______ _______ _____ _____    ______ ____
ROOT
ATOM      1  N   LIG    1       22.160 -17.102   4.064  0.00  0.00    -0.311 NA
ATOM      2  H   LIG    1       21.240 -17.477   3.797  0.00  0.00    +0.122 HD
ENDROOT
BRANCH   1   3
ATOM      3  C   LIG    1       22.962 -18.232   4.557  0.00  0.00    +0.115 C 
BRANCH   3   4
ATOM      4  C   LIG    1       22.477 -19.583   3.980  0.00  0.00    +0.169 C 
BRANCH   4   5
ATOM      5  C   LIG    1       23.595 -20.659   4.014  0.00  0.00    +0.203 C 
ATOM      6  O   LIG    1       24.111 -20.735   5.363  0.00  0.00    -0.486 OA
ATOM      7  C   LIG    1       25.453 -20.581   5.562  0.00  0.00    +0.124 A 
ATOM      8  C   LIG    1       26.310 -20.004   4.620  0.00  0.00    -0.003 A 
ATOM      9  C   LIG    1       27.673 -19.870   4.917  0.00  0.00    +0.045 A 
ATOM     10  C   LIG    1       28.165 -20.346   6.127  0.00  0.00    +0.124 A 
ATOM     11  C   LIG    1       27.320 -20.932   7.062  0.00  0.00    +0.042 A 
ATOM     12  F   LIG    1       29.475 -20.250   6.390  0.00  0.00    -0.205 F 
ATOM     13  C   LIG    1       25.761 -19.550   3.307  0.00  0.00    +0.042 C 
ATOM     14  C   LIG    1       25.956 -21.034   6.784  0.00  0.00    +0.049 A 
ATOM     15  C   LIG    1       24.666 -20.526   2.921  0.00  0.00    +0.052 C 
ENDBRANCH   4   5
BRANCH   4  16
ATOM     16  O   LIG    1       21.320 -20.031   4.699  0.00  0.00    -0.387 OA
ATOM     17  H   LIG    1       21.655 -20.665   5.363  0.00  0.00    +0.210 HD
ENDBRANCH   4  16
ENDBRANCH   3   4
ENDBRANCH   1   3
BRANCH   1  18
ATOM     18  C   LIG    1       21.974 -16.083   5.112  0.00  0.00    +0.115 C 
BRANCH  18  19
ATOM     19  C   LIG    1       22.756 -14.773   4.835  0.00  0.00    +0.169 C 
BRANCH  19  20
ATOM     20  C   LIG    1       23.445 -14.767   3.445  0.00  0.00    +0.203 C 
ATOM     21  O   LIG    1       24.723 -15.423   3.480  0.00  0.00    -0.486 OA
ATOM     22  C   LIG    1       25.839 -14.650   3.637  0.00  0.00    +0.124 A 
ATOM     23  C   LIG    1       25.844 -13.259   3.548  0.00  0.00    -0.003 A 
ATOM     24  C   LIG    1       27.060 -12.572   3.696  0.00  0.00    +0.045 A 
ATOM     25  C   LIG    1       28.235 -13.285   3.913  0.00  0.00    +0.124 A 
ATOM     26  C   LIG    1       28.232 -14.666   4.007  0.00  0.00    +0.042 A 
ATOM     27  F   LIG    1       29.396 -12.619   4.033  0.00  0.00    -0.205 F 
ATOM     28  C   LIG    1       24.573 -12.496   3.331  0.00  0.00    +0.042 C 
ATOM     29  C   LIG    1       27.024 -15.355   3.871  0.00  0.00    +0.049 A 
ATOM     30  C   LIG    1       23.498 -13.402   2.756  0.00  0.00    +0.052 C 
ENDBRANCH  19  20
BRANCH  19  31
ATOM     31  O   LIG    1       23.689 -14.545   5.893  0.00  0.00    -0.387 OA
ATOM     32  H   LIG    1       23.144 -14.465   6.702  0.00  0.00    +0.210 HD
ENDBRANCH  19  31
ENDBRANCH  18  19
ENDBRANCH   1  18
TORSDOF 8
ENDMDL
MODEL 4
REMARK VINA RESULT:      -2.7      2.023      3.024
REMARK  Name = *****
REMARK                            x       y       z     vdW  Elec       q    Type
REMARK                         _______ _______ _______ _____ _____    ______ ____
ROOT
ATOM      1  N   LIG    1       28.401 -15.624   4.397  0.00  0.00    -0.311 NA
ATOM      2  H   LIG    1       28.723 -15.293   3.477  0.00  0.00    +0.122 HD
ENDROOT
BRANCH   1   3
ATOM      3  C   LIG    1       27.626 -16.853   4.168  0.00  0.00    +0.115 C 
BRANCH   3   4
ATOM      4  C   LIG    1       28.044 -17.990   5.129  0.00  0.00    +0.169 C 
BRANCH   4   5
ATOM      5  C   LIG    1       27.436 -19.355   4.706  0.00  0.00    +0.203 C 
ATOM      6  O   LIG    1       26.183 -19.104   4.029  0.00  0.00    -0.486 OA
ATOM      7  C   LIG    1       25.056 -19.727   4.485  0.00  0.00    +0.124 A 
ATOM      8  C   LIG    1       24.951 -20.296   5.756  0.00  0.00    -0.003 A 
ATOM      9  C   LIG    1       23.748 -20.901   6.145  0.00  0.00    +0.045 A 
ATOM     10  C   LIG    1       22.686 -20.960   5.250  0.00  0.00    +0.124 A 
ATOM     11  C   LIG    1       22.788 -20.405   3.981  0.00  0.00    +0.042 A 
ATOM     12  F   LIG    1       21.551 -21.572   5.614  0.00  0.00    -0.205 F 
ATOM     13  C   LIG    1       26.128 -20.265   6.676  0.00  0.00    +0.042 C 
ATOM     14  C   LIG    1       23.973 -19.772   3.603  0.00  0.00    +0.049 A 
ATOM     15  C   LIG    1       27.369 -20.414   5.817  0.00  0.00    +0.052 C 
ENDBRANCH   4   5
BRANCH   4  16
ATOM     16  O   LIG    1       29.475 -18.071   5.193  0.00  0.00    -0.387 OA
ATOM     17  H   LIG    1       29.672 -18.550   6.021  0.00  0.00    +0.210 HD
ENDBRANCH   4  16
ENDBRANCH   3   4
ENDBRANCH   1   3
BRANCH   1  18
ATOM     18  C   LIG    1       27.570 -14.577   5.016  0.00  0.00    +0.115 C 
BRANCH  18  19
ATOM     19  C   LIG    1       27.651 -13.216   4.277  0.00  0.00    +0.169 C 
BRANCH  19  20
ATOM     20  C   LIG    1       26.349 -12.874   3.507  0.00  0.00    +0.203 C 
ATOM     21  O   LIG    1       25.200 -12.877   4.371  0.00  0.00    -0.486 OA
ATOM     22  C   LIG    1       24.441 -14.011   4.428  0.00  0.00    +0.124 A 
ATOM     23  C   LIG    1       24.575 -15.085   3.549  0.00  0.00    -0.003 A 
ATOM     24  C   LIG    1       23.715 -16.188   3.685  0.00  0.00    +0.045 A 
ATOM     25  C   LIG    1       22.741 -16.186   4.678  0.00  0.00    +0.124 A 
ATOM     26  C   LIG    1       22.610 -15.124   5.557  0.00  0.00    +0.042 A 
ATOM     27  F   LIG    1       21.911 -17.237   4.787  0.00  0.00    -0.205 F 
ATOM     28  C   LIG    1       25.637 -15.088   2.492  0.00  0.00    +0.042 C 
ATOM     29  C   LIG    1       23.469 -14.028   5.433  0.00  0.00    +0.049 A 
ATOM     30  C   LIG    1       26.127 -13.675   2.224  0.00  0.00    +0.052 C 
ENDBRANCH  19  20
BRANCH  19  31
ATOM     31  O   LIG    1       28.794 -13.209   3.421  0.00  0.00    -0.387 OA
ATOM     32  H   LIG    1       28.513 -13.685   2.614  0.00  0.00    +0.210 HD
ENDBRANCH  19  31
ENDBRANCH  18  19
ENDBRANCH   1  18
TORSDOF 8
ENDMDL
MODEL 5
REMARK VINA RESULT:      -0.8      0.956      6.907
REMARK  Name = *****
REMARK                            x       y       z     vdW  Elec       q    Type
REMARK                         _______ _______ _______ _____ _____    ______ ____
ROOT
ATOM      1  N   LIG    1       27.814 -18.575   4.536  0.00  0.00    -0.311 NA
ATOM      2  H   LIG    1       28.333 -18.450   5.416  0.00  0.00    +0.122 HD
ENDROOT
BRANCH   1   3
ATOM      3  C   LIG    1       27.509 -17.233   4.018  0.00  0.00    +0.115 C 
BRANCH   3   4
ATOM      4  C   LIG    1       28.582 -16.196   4.427  0.00  0.00    +0.169 C 
BRANCH   4   5
ATOM      5  C   LIG    1       27.946 -14.837   4.828  0.00  0.00    +0.203 C 
ATOM      6  O   LIG    1       26.508 -14.968   4.749  0.00  0.00    -0.486 OA
ATOM      7  C   LIG    1       25.810 -14.080   3.981  0.00  0.00    +0.124 A 
ATOM      8  C   LIG    1       26.399 -13.289   2.991  0.00  0.00    -0.003 A 
ATOM      9  C   LIG    1       25.601 -12.416   2.238  0.00  0.00    +0.045 A 
ATOM     10  C   LIG    1       24.241 -12.320   2.509  0.00  0.00    +0.124 A 
ATOM     11  C   LIG    1       23.652 -13.095   3.500  0.00  0.00    +0.042 A 
ATOM     12  F   LIG    1       23.490 -11.457   1.812  0.00  0.00    -0.205 F 
ATOM     13  C   LIG    1       27.872 -13.376   2.759  0.00  0.00    +0.042 C 
ATOM     14  C   LIG    1       24.438 -13.990   4.227  0.00  0.00    +0.049 A 
ATOM     15  C   LIG    1       28.523 -13.607   4.109  0.00  0.00    +0.052 C 
ENDBRANCH   4   5
BRANCH   4  16
ATOM     16  O   LIG    1       29.378 -16.718   5.500  0.00  0.00    -0.387 OA
ATOM     17  H   LIG    1       28.795 -17.339   5.979  0.00  0.00    +0.210 HD
ENDBRANCH   4  16
ENDBRANCH   3   4
ENDBRANCH   1   3
BRANCH   1  18
ATOM     18  C   LIG    1       26.581 -19.332   4.814  0.00  0.00    +0.115 C 
BRANCH  18  19
ATOM     19  C   LIG    1       26.807 -20.545   5.753  0.00  0.00    +0.169 C 
BRANCH  19  20
ATOM     20  C   LIG    1       25.597 -21.515   5.783  0.00  0.00    +0.203 C 
ATOM     21  O   LIG    1       24.887 -21.523   4.533  0.00  0.00    -0.486 OA
ATOM     22  C   LIG    1       23.785 -20.724   4.413  0.00  0.00    +0.124 A 
ATOM     23  C   LIG    1       23.176 -20.070   5.482  0.00  0.00    -0.003 A 
ATOM     24  C   LIG    1       22.026 -19.299   5.243  0.00  0.00    +0.045 A 
ATOM     25  C   LIG    1       21.508 -19.212   3.955  0.00  0.00    +0.124 A 
ATOM     26  C   LIG    1       22.116 -19.856   2.890  0.00  0.00    +0.042 A 
ATOM     27  F   LIG    1       20.397 -18.488   3.740  0.00  0.00    -0.205 F 
ATOM     28  C   LIG    1       23.748 -20.154   6.865  0.00  0.00    +0.042 C 
ATOM     29  C   LIG    1       23.265 -20.616   3.119  0.00  0.00    +0.049 A 
ATOM     30  C   LIG    1       24.670 -21.355   6.989  0.00  0.00    +0.052 C 
ENDBRANCH  19  20
BRANCH  19  31
ATOM     31  O   LIG    1       27.146 -20.076   7.060  0.00  0.00    -0.387 OA
ATOM     32  H   LIG    1       26.822 -19.154   7.093  0.00  0.00    +0.210 HD
ENDBRANCH  19  31
ENDBRANCH  18  19
ENDBRANCH   1  18
TORSDOF 8
ENDMDL
