MODEL 1
REMARK VINA RESULT:      -9.2      0.000      0.000
REMARK  Name = *****
REMARK                            x       y       z     vdW  Elec       q    Type
REMARK                         _______ _______ _______ _____ _____    ______ ____
ROOT
ATOM      1  C   LIG    1       25.015 -29.509   6.083  0.00  0.00    +0.338 C 
ATOM      2  O   LIG    1       25.803 -29.629   5.121  0.00  0.00    -0.245 OA
ENDROOT
BRANCH   1   5
ATOM      3  C   LIG    1       23.239 -31.447   8.966  0.00  0.00    +0.065 C 
ATOM      4  C   LIG    1       24.129 -30.333   8.375  0.00  0.00    +0.096 C 
ATOM      5  C   LIG    1       24.590 -30.645   6.946  0.00  0.00    +0.065 C 
ATOM      6  C   LIG    1       24.463 -31.908   6.443  0.00  0.00    +0.016 C 
ATOM      7  C   LIG    1       24.936 -32.352   5.081  0.00  0.00    +0.061 C 
ATOM      8  N   LIG    1       23.857 -32.889   7.199  0.00  0.00    -0.321 N 
ATOM      9  H   LIG    1       23.678 -33.775   6.731  0.00  0.00    +0.152 HD
ATOM     10  C   LIG    1       23.130 -32.641   8.352  0.00  0.00    +0.016 C 
ATOM     11  C   LIG    1       22.233 -33.783   8.775  0.00  0.00    +0.061 C 
BRANCH   4  12
ATOM     12  C   LIG    1       25.321 -30.033   9.303  0.00  0.00    -0.029 A 
ATOM     13  C   LIG    1       25.216 -29.035  10.291  0.00  0.00    +0.088 A 
ATOM     14  C   LIG    1       26.295 -28.775  11.148  0.00  0.00    +0.273 A 
ATOM     15  C   LIG    1       27.482 -29.511  11.047  0.00  0.00    +0.084 A 
ATOM     16  C   LIG    1       27.598 -30.485  10.057  0.00  0.00    +0.007 A 
ATOM     17  C   LIG    1       26.533 -30.736   9.187  0.00  0.00    +0.005 A 
BRANCH  14  18
ATOM     18  N   LIG    1       26.190 -27.710  12.154  0.00  0.00    +0.080 N 
ATOM     19  O   LIG    1       27.201 -27.033  12.392  0.00  0.00    -0.576 OA
ATOM     20  O   LIG    1       25.097 -27.559  12.723  0.00  0.00    +0.041 OA
ENDBRANCH  14  18
ENDBRANCH   4  12
BRANCH   3  21
ATOM     21  C   LIG    1       22.511 -31.055  10.216  0.00  0.00    +0.337 C 
ATOM     22  O   LIG    1       22.953 -31.222  11.336  0.00  0.00    -0.245 OA
BRANCH  21  24
ATOM     23  C   LIG    1       20.203 -30.768  10.763  0.00  0.00    +0.280 C 
ATOM     24  O   LIG    1       21.295 -30.533   9.879  0.00  0.00    -0.465 OA
ENDBRANCH  21  24
ENDBRANCH   3  21
ENDBRANCH   1   5
BRANCH   1  25
ATOM     25  O   LIG    1       24.382 -28.382   6.460  0.00  0.00    -0.454 OA
BRANCH  25  26
ATOM     26  C   LIG    1       25.049 -27.084   6.388  0.00  0.00    +0.121 C 
ATOM     27  C   LIG    1       25.535 -26.889   4.934  0.00  0.00    +0.057 C 
ATOM     28  C   LIG    1       26.333 -27.111   7.238  0.00  0.00    +0.057 C 
BRANCH  26  29
ATOM     29  C   LIG    1       24.093 -25.932   6.863  0.00  0.00    +0.131 C 
BRANCH  29  30
ATOM     30  N   LIG    1       24.277 -24.561   6.297  0.00  0.00    -0.302 NA
ATOM     31  C   LIG    1       23.022 -23.830   6.525  0.00  0.00    +0.105 C 
BRANCH  30  32
ATOM     32  C   LIG    1       25.444 -23.881   6.881  0.00  0.00    +0.085 C 
BRANCH  32  33
ATOM     33  C   LIG    1       25.300 -22.386   7.186  0.00  0.00    +0.028 C 
BRANCH  33  34
ATOM     34  C   LIG    1       25.868 -21.460   6.059  0.00  0.00    +0.050 C 
BRANCH  34  35
ATOM     35  C   LIG    1       27.081 -20.628   6.502  0.00  0.00    -0.040 A 
ATOM     36  C   LIG    1       27.493 -20.575   7.845  0.00  0.00    +0.004 A 
ATOM     37  C   LIG    1       28.671 -19.927   8.219  0.00  0.00    +0.000 A 
ATOM     38  C   LIG    1       29.428 -19.258   7.266  0.00  0.00    +0.000 A 
ATOM     39  C   LIG    1       29.010 -19.246   5.937  0.00  0.00    +0.000 A 
ATOM     40  C   LIG    1       27.852 -19.933   5.555  0.00  0.00    +0.004 A 
ENDBRANCH  34  35
BRANCH  34  41
ATOM     41  C   LIG    1       24.766 -20.590   5.440  0.00  0.00    -0.040 A 
ATOM     42  C   LIG    1       24.936 -19.959   4.196  0.00  0.00    +0.004 A 
ATOM     43  C   LIG    1       23.919 -19.198   3.618  0.00  0.00    +0.000 A 
ATOM     44  C   LIG    1       22.699 -19.064   4.266  0.00  0.00    +0.000 A 
ATOM     45  C   LIG    1       22.507 -19.667   5.506  0.00  0.00    +0.000 A 
ATOM     46  C   LIG    1       23.533 -20.417   6.096  0.00  0.00    +0.004 A 
ENDBRANCH  34  41
ENDBRANCH  33  34
ENDBRANCH  32  33
ENDBRANCH  30  32
ENDBRANCH  29  30
ENDBRANCH  26  29
ENDBRANCH  25  26
ENDBRANCH   1  25
TORSDOF 14
ENDMDL
MODEL 2
REMARK VINA RESULT:      -9.0      1.417      2.000
REMARK  Name = *****
REMARK                            x       y       z     vdW  Elec       q    Type
REMARK                         _______ _______ _______ _____ _____    ______ ____
ROOT
ATOM      1  C   LIG    1       25.567 -28.816   7.832  0.00  0.00    +0.338 C 
ATOM      2  O   LIG    1       26.386 -28.069   8.408  0.00  0.00    -0.245 OA
ENDROOT
BRANCH   1   5
ATOM      3  C   LIG    1       23.233 -31.343   9.674  0.00  0.00    +0.065 C 
ATOM      4  C   LIG    1       24.037 -30.033   9.535  0.00  0.00    +0.096 C 
ATOM      5  C   LIG    1       25.077 -30.098   8.409  0.00  0.00    +0.065 C 
ATOM      6  C   LIG    1       25.419 -31.299   7.859  0.00  0.00    +0.016 C 
ATOM      7  C   LIG    1       26.471 -31.500   6.795  0.00  0.00    +0.061 C 
ATOM      8  N   LIG    1       24.778 -32.450   8.269  0.00  0.00    -0.321 N 
ATOM      9  H   LIG    1       24.983 -33.295   7.741  0.00  0.00    +0.152 HD
ATOM     10  C   LIG    1       23.621 -32.462   9.032  0.00  0.00    +0.016 C 
ATOM     11  C   LIG    1       22.883 -33.782   9.015  0.00  0.00    +0.061 C 
BRANCH   4  12
ATOM     12  C   LIG    1       24.677 -29.636  10.878  0.00  0.00    -0.029 A 
ATOM     13  C   LIG    1       26.033 -29.923  11.128  0.00  0.00    +0.088 A 
ATOM     14  C   LIG    1       26.621 -29.545  12.345  0.00  0.00    +0.273 A 
ATOM     15  C   LIG    1       25.877 -28.866  13.317  0.00  0.00    +0.084 A 
ATOM     16  C   LIG    1       24.529 -28.599  13.082  0.00  0.00    +0.007 A 
ATOM     17  C   LIG    1       23.933 -28.989  11.880  0.00  0.00    +0.005 A 
BRANCH  14  18
ATOM     18  N   LIG    1       28.026 -29.877  12.612  0.00  0.00    +0.080 N 
ATOM     19  O   LIG    1       28.315 -30.323  13.732  0.00  0.00    -0.576 OA
ATOM     20  O   LIG    1       28.849 -29.676  11.705  0.00  0.00    +0.041 OA
ENDBRANCH  14  18
ENDBRANCH   4  12
BRANCH   3  21
ATOM     21  C   LIG    1       22.008 -31.226  10.530  0.00  0.00    +0.337 C 
ATOM     22  O   LIG    1       21.005 -30.628  10.195  0.00  0.00    -0.245 OA
BRANCH  21  24
ATOM     23  C   LIG    1       21.400 -31.511  12.823  0.00  0.00    +0.280 C 
ATOM     24  O   LIG    1       22.234 -31.855  11.721  0.00  0.00    -0.465 OA
ENDBRANCH  21  24
ENDBRANCH   3  21
ENDBRANCH   1   5
BRANCH   1  25
ATOM     25  O   LIG    1       25.045 -28.635   6.605  0.00  0.00    -0.454 OA
BRANCH  25  26
ATOM     26  C   LIG    1       25.163 -27.349   5.919  0.00  0.00    +0.121 C 
ATOM     27  C   LIG    1       24.292 -27.419   4.645  0.00  0.00    +0.057 C 
ATOM     28  C   LIG    1       26.604 -27.162   5.409  0.00  0.00    +0.057 C 
BRANCH  26  29
ATOM     29  C   LIG    1       24.752 -26.166   6.866  0.00  0.00    +0.131 C 
BRANCH  29  30
ATOM     30  N   LIG    1       24.709 -24.778   6.312  0.00  0.00    -0.302 NA
ATOM     31  C   LIG    1       23.386 -24.226   6.637  0.00  0.00    +0.105 C 
BRANCH  30  32
ATOM     32  C   LIG    1       25.811 -23.951   6.826  0.00  0.00    +0.085 C 
BRANCH  32  33
ATOM     33  C   LIG    1       25.497 -22.484   7.137  0.00  0.00    +0.028 C 
BRANCH  33  34
ATOM     34  C   LIG    1       25.996 -21.490   6.035  0.00  0.00    +0.050 C 
BRANCH  34  35
ATOM     35  C   LIG    1       27.152 -20.591   6.499  0.00  0.00    -0.040 A 
ATOM     36  C   LIG    1       27.474 -20.440   7.859  0.00  0.00    +0.004 A 
ATOM     37  C   LIG    1       28.606 -19.730   8.264  0.00  0.00    +0.000 A 
ATOM     38  C   LIG    1       29.404 -19.098   7.319  0.00  0.00    +0.000 A 
ATOM     39  C   LIG    1       29.074 -19.185   5.968  0.00  0.00    +0.000 A 
ATOM     40  C   LIG    1       27.963 -19.932   5.559  0.00  0.00    +0.004 A 
ENDBRANCH  34  35
BRANCH  34  41
ATOM     41  C   LIG    1       24.836 -20.678   5.445  0.00  0.00    -0.040 A 
ATOM     42  C   LIG    1       23.628 -20.503   6.142  0.00  0.00    +0.004 A 
ATOM     43  C   LIG    1       22.588 -19.733   5.619  0.00  0.00    +0.000 A 
ATOM     44  C   LIG    1       22.740 -19.105   4.390  0.00  0.00    +0.000 A 
ATOM     45  C   LIG    1       23.921 -19.272   3.672  0.00  0.00    +0.000 A 
ATOM     46  C   LIG    1       24.959 -20.059   4.188  0.00  0.00    +0.004 A 
ENDBRANCH  34  41
ENDBRANCH  33  34
ENDBRANCH  32  33
ENDBRANCH  30  32
ENDBRANCH  29  30
ENDBRANCH  26  29
ENDBRANCH  25  26
ENDBRANCH   1  25
TORSDOF 14
ENDMDL
MODEL 3
REMARK VINA RESULT:      -8.9      1.625      2.226
REMARK  Name = *****
REMARK                            x       y       z     vdW  Elec       q    Type
REMARK                         _______ _______ _______ _____ _____    ______ ____
ROOT
ATOM      1  C   LIG    1       25.951 -28.669   8.310  0.00  0.00    +0.338 C 
ATOM      2  O   LIG    1       26.905 -27.935   8.645  0.00  0.00    -0.245 OA
ENDROOT
BRANCH   1   5
ATOM      3  C   LIG    1       23.750 -30.359  11.053  0.00  0.00    +0.065 C 
ATOM      4  C   LIG    1       24.740 -29.306  10.511  0.00  0.00    +0.096 C 
ATOM      5  C   LIG    1       25.383 -29.732   9.185  0.00  0.00    +0.065 C 
ATOM      6  C   LIG    1       25.292 -31.026   8.762  0.00  0.00    +0.016 C 
ATOM      7  C   LIG    1       25.934 -31.578   7.512  0.00  0.00    +0.061 C 
ATOM      8  N   LIG    1       24.564 -31.938   9.495  0.00  0.00    -0.321 N 
ATOM      9  H   LIG    1       24.427 -32.854   9.072  0.00  0.00    +0.152 HD
ATOM     10  C   LIG    1       23.694 -31.593  10.517  0.00  0.00    +0.016 C 
ATOM     11  C   LIG    1       22.718 -32.686  10.893  0.00  0.00    +0.061 C 
BRANCH   4  12
ATOM     12  C   LIG    1       25.802 -28.957  11.570  0.00  0.00    -0.029 A 
ATOM     13  C   LIG    1       25.920 -27.637  12.047  0.00  0.00    +0.088 A 
ATOM     14  C   LIG    1       26.875 -27.323  13.026  0.00  0.00    +0.273 A 
ATOM     15  C   LIG    1       27.711 -28.316  13.553  0.00  0.00    +0.084 A 
ATOM     16  C   LIG    1       27.613 -29.619  13.068  0.00  0.00    +0.007 A 
ATOM     17  C   LIG    1       26.676 -29.934  12.080  0.00  0.00    +0.005 A 
BRANCH  14  18
ATOM     18  N   LIG    1       27.014 -25.939  13.495  0.00  0.00    +0.080 N 
ATOM     19  O   LIG    1       27.844 -25.707  14.386  0.00  0.00    -0.576 OA
ATOM     20  O   LIG    1       26.278 -25.080  12.983  0.00  0.00    +0.041 OA
ENDBRANCH  14  18
ENDBRANCH   4  12
BRANCH   3  21
ATOM     21  C   LIG    1       22.869 -29.863  12.160  0.00  0.00    +0.337 C 
ATOM     22  O   LIG    1       21.886 -29.172  11.983  0.00  0.00    -0.245 OA
BRANCH  21  24
ATOM     23  C   LIG    1       23.098 -29.495  14.510  0.00  0.00    +0.280 C 
ATOM     24  O   LIG    1       23.379 -30.281  13.356  0.00  0.00    -0.465 OA
ENDBRANCH  21  24
ENDBRANCH   3  21
ENDBRANCH   1   5
BRANCH   1  25
ATOM     25  O   LIG    1       25.328 -28.675   7.116  0.00  0.00    -0.454 OA
BRANCH  25  26
ATOM     26  C   LIG    1       25.312 -27.483   6.270  0.00  0.00    +0.121 C 
ATOM     27  C   LIG    1       24.267 -27.716   5.156  0.00  0.00    +0.057 C 
ATOM     28  C   LIG    1       26.658 -27.349   5.535  0.00  0.00    +0.057 C 
BRANCH  26  29
ATOM     29  C   LIG    1       25.013 -26.195   7.118  0.00  0.00    +0.131 C 
BRANCH  29  30
ATOM     30  N   LIG    1       24.925 -24.875   6.420  0.00  0.00    -0.302 NA
ATOM     31  C   LIG    1       23.565 -24.363   6.638  0.00  0.00    +0.105 C 
BRANCH  30  32
ATOM     32  C   LIG    1       25.964 -23.943   6.885  0.00  0.00    +0.085 C 
BRANCH  32  33
ATOM     33  C   LIG    1       25.537 -22.494   7.142  0.00  0.00    +0.028 C 
BRANCH  33  34
ATOM     34  C   LIG    1       26.016 -21.496   6.035  0.00  0.00    +0.050 C 
BRANCH  34  35
ATOM     35  C   LIG    1       27.172 -20.590   6.484  0.00  0.00    -0.040 A 
ATOM     36  C   LIG    1       27.533 -20.465   7.837  0.00  0.00    +0.004 A 
ATOM     37  C   LIG    1       28.665 -19.747   8.224  0.00  0.00    +0.000 A 
ATOM     38  C   LIG    1       29.424 -19.080   7.271  0.00  0.00    +0.000 A 
ATOM     39  C   LIG    1       29.054 -19.140   5.929  0.00  0.00    +0.000 A 
ATOM     40  C   LIG    1       27.943 -19.896   5.536  0.00  0.00    +0.004 A 
ENDBRANCH  34  35
BRANCH  34  41
ATOM     41  C   LIG    1       24.842 -20.691   5.460  0.00  0.00    -0.040 A 
ATOM     42  C   LIG    1       23.643 -20.524   6.173  0.00  0.00    +0.004 A 
ATOM     43  C   LIG    1       22.592 -19.760   5.665  0.00  0.00    +0.000 A 
ATOM     44  C   LIG    1       22.722 -19.131   4.434  0.00  0.00    +0.000 A 
ATOM     45  C   LIG    1       23.894 -19.290   3.700  0.00  0.00    +0.000 A 
ATOM     46  C   LIG    1       24.944 -20.071   4.202  0.00  0.00    +0.004 A 
ENDBRANCH  34  41
ENDBRANCH  33  34
ENDBRANCH  32  33
ENDBRANCH  30  32
ENDBRANCH  29  30
ENDBRANCH  26  29
ENDBRANCH  25  26
ENDBRANCH   1  25
TORSDOF 14
ENDMDL
MODEL 4
REMARK VINA RESULT:      -8.8      1.386      3.182
REMARK  Name = *****
REMARK                            x       y       z     vdW  Elec       q    Type
REMARK                         _______ _______ _______ _____ _____    ______ ____
ROOT
ATOM      1  C   LIG    1       25.270 -28.807   7.950  0.00  0.00    +0.338 C 
ATOM      2  O   LIG    1       26.244 -28.269   8.518  0.00  0.00    -0.245 OA
ENDROOT
BRANCH   1   5
ATOM      3  C   LIG    1       22.836 -31.452   9.469  0.00  0.00    +0.065 C 
ATOM      4  C   LIG    1       23.714 -30.183   9.501  0.00  0.00    +0.096 C 
ATOM      5  C   LIG    1       24.719 -30.133   8.343  0.00  0.00    +0.065 C 
ATOM      6  C   LIG    1       24.971 -31.252   7.605  0.00  0.00    +0.016 C 
ATOM      7  C   LIG    1       25.981 -31.346   6.487  0.00  0.00    +0.061 C 
ATOM      8  N   LIG    1       24.273 -32.414   7.858  0.00  0.00    -0.321 N 
ATOM      9  H   LIG    1       24.412 -33.179   7.201  0.00  0.00    +0.152 HD
ATOM     10  C   LIG    1       23.138 -32.479   8.651  0.00  0.00    +0.016 C 
ATOM     11  C   LIG    1       22.321 -33.737   8.460  0.00  0.00    +0.061 C 
BRANCH   4  12
ATOM     12  C   LIG    1       24.413 -30.034  10.865  0.00  0.00    -0.029 A 
ATOM     13  C   LIG    1       24.069 -28.974  11.726  0.00  0.00    +0.088 A 
ATOM     14  C   LIG    1       24.692 -28.849  12.977  0.00  0.00    +0.273 A 
ATOM     15  C   LIG    1       25.650 -29.782  13.394  0.00  0.00    +0.084 A 
ATOM     16  C   LIG    1       26.009 -30.821  12.536  0.00  0.00    +0.007 A 
ATOM     17  C   LIG    1       25.405 -30.940  11.281  0.00  0.00    +0.005 A 
BRANCH  14  18
ATOM     18  N   LIG    1       24.352 -27.722  13.855  0.00  0.00    +0.080 N 
ATOM     19  O   LIG    1       23.839 -26.719  13.339  0.00  0.00    -0.576 OA
ATOM     20  O   LIG    1       24.614 -27.833  15.063  0.00  0.00    +0.041 OA
ENDBRANCH  14  18
ENDBRANCH   4  12
BRANCH   3  21
ATOM     21  C   LIG    1       21.643 -31.399  10.375  0.00  0.00    +0.337 C 
ATOM     22  O   LIG    1       20.629 -30.781  10.122  0.00  0.00    -0.245 OA
BRANCH  21  24
ATOM     23  C   LIG    1       21.008 -33.150  11.871  0.00  0.00    +0.280 C 
ATOM     24  O   LIG    1       21.913 -32.112  11.509  0.00  0.00    -0.465 OA
ENDBRANCH  21  24
ENDBRANCH   3  21
ENDBRANCH   1   5
BRANCH   1  25
ATOM     25  O   LIG    1       24.606 -28.331   6.880  0.00  0.00    -0.454 OA
BRANCH  25  26
ATOM     26  C   LIG    1       25.121 -27.194   6.120  0.00  0.00    +0.121 C 
ATOM     27  C   LIG    1       24.352 -27.142   4.780  0.00  0.00    +0.057 C 
ATOM     28  C   LIG    1       26.588 -27.452   5.729  0.00  0.00    +0.057 C 
BRANCH  26  29
ATOM     29  C   LIG    1       24.991 -25.862   6.941  0.00  0.00    +0.131 C 
BRANCH  29  30
ATOM     30  N   LIG    1       24.645 -24.599   6.219  0.00  0.00    -0.302 NA
ATOM     31  C   LIG    1       23.319 -24.180   6.696  0.00  0.00    +0.105 C 
BRANCH  30  32
ATOM     32  C   LIG    1       25.671 -23.562   6.412  0.00  0.00    +0.085 C 
BRANCH  32  33
ATOM     33  C   LIG    1       25.547 -22.681   7.660  0.00  0.00    +0.028 C 
BRANCH  33  34
ATOM     34  C   LIG    1       25.690 -21.151   7.361  0.00  0.00    +0.050 C 
BRANCH  34  35
ATOM     35  C   LIG    1       24.779 -20.660   6.226  0.00  0.00    -0.040 A 
ATOM     36  C   LIG    1       23.414 -20.391   6.434  0.00  0.00    +0.004 A 
ATOM     37  C   LIG    1       22.625 -19.820   5.435  0.00  0.00    +0.000 A 
ATOM     38  C   LIG    1       23.167 -19.568   4.181  0.00  0.00    +0.000 A 
ATOM     39  C   LIG    1       24.502 -19.880   3.931  0.00  0.00    +0.000 A 
ATOM     40  C   LIG    1       25.304 -20.413   4.947  0.00  0.00    +0.004 A 
ENDBRANCH  34  35
BRANCH  34  41
ATOM     41  C   LIG    1       27.156 -20.757   7.135  0.00  0.00    -0.040 A 
ATOM     42  C   LIG    1       27.531 -19.869   6.113  0.00  0.00    +0.004 A 
ATOM     43  C   LIG    1       28.860 -19.484   5.932  0.00  0.00    +0.000 A 
ATOM     44  C   LIG    1       29.845 -19.967   6.783  0.00  0.00    +0.000 A 
ATOM     45  C   LIG    1       29.503 -20.858   7.797  0.00  0.00    +0.000 A 
ATOM     46  C   LIG    1       28.171 -21.260   7.968  0.00  0.00    +0.004 A 
ENDBRANCH  34  41
ENDBRANCH  33  34
ENDBRANCH  32  33
ENDBRANCH  30  32
ENDBRANCH  29  30
ENDBRANCH  26  29
ENDBRANCH  25  26
ENDBRANCH   1  25
TORSDOF 14
ENDMDL
MODEL 5
REMARK VINA RESULT:      -8.7      1.812      3.530
REMARK  Name = *****
REMARK                            x       y       z     vdW  Elec       q    Type
REMARK                         _______ _______ _______ _____ _____    ______ ____
ROOT
ATOM      1  C   LIG    1       25.447 -28.839   8.467  0.00  0.00    +0.338 C 
ATOM      2  O   LIG    1       26.425 -28.083   8.646  0.00  0.00    -0.245 OA
ENDROOT
BRANCH   1   5
ATOM      3  C   LIG    1       23.779 -31.304  10.991  0.00  0.00    +0.065 C 
ATOM      4  C   LIG    1       24.405 -29.961  10.559  0.00  0.00    +0.096 C 
ATOM      5  C   LIG    1       25.209 -30.078   9.258  0.00  0.00    +0.065 C 
ATOM      6  C   LIG    1       25.555 -31.306   8.773  0.00  0.00    +0.016 C 
ATOM      7  C   LIG    1       26.396 -31.549   7.543  0.00  0.00    +0.061 C 
ATOM      8  N   LIG    1       25.124 -32.446   9.419  0.00  0.00    -0.321 N 
ATOM      9  H   LIG    1       25.306 -33.329   8.948  0.00  0.00    +0.152 HD
ATOM     10  C   LIG    1       24.145 -32.457  10.399  0.00  0.00    +0.016 C 
ATOM     11  C   LIG    1       23.553 -33.823  10.665  0.00  0.00    +0.061 C 
BRANCH   4  12
ATOM     12  C   LIG    1       25.251 -29.359  11.696  0.00  0.00    -0.029 A 
ATOM     13  C   LIG    1       26.463 -29.968  12.076  0.00  0.00    +0.088 A 
ATOM     14  C   LIG    1       27.243 -29.408  13.100  0.00  0.00    +0.273 A 
ATOM     15  C   LIG    1       26.839 -28.234  13.745  0.00  0.00    +0.084 A 
ATOM     16  C   LIG    1       25.629 -27.640  13.388  0.00  0.00    +0.007 A 
ATOM     17  C   LIG    1       24.838 -28.202  12.381  0.00  0.00    +0.005 A 
BRANCH  14  18
ATOM     18  N   LIG    1       28.489 -30.067  13.512  0.00  0.00    +0.080 N 
ATOM     19  O   LIG    1       29.519 -29.815  12.871  0.00  0.00    -0.576 OA
ATOM     20  O   LIG    1       28.436 -30.853  14.472  0.00  0.00    +0.041 OA
ENDBRANCH  14  18
ENDBRANCH   4  12
BRANCH   3  21
ATOM     21  C   LIG    1       22.737 -31.181  12.062  0.00  0.00    +0.337 C 
ATOM     22  O   LIG    1       22.830 -31.699  13.156  0.00  0.00    -0.245 OA
BRANCH  21  24
ATOM     23  C   LIG    1       20.810 -31.061  10.654  0.00  0.00    +0.280 C 
ATOM     24  O   LIG    1       21.692 -30.442  11.585  0.00  0.00    -0.465 OA
ENDBRANCH  21  24
ENDBRANCH   3  21
ENDBRANCH   1   5
BRANCH   1  25
ATOM     25  O   LIG    1       24.500 -28.710   7.518  0.00  0.00    -0.454 OA
BRANCH  25  26
ATOM     26  C   LIG    1       24.765 -27.969   6.286  0.00  0.00    +0.121 C 
ATOM     27  C   LIG    1       24.027 -28.694   5.139  0.00  0.00    +0.057 C 
ATOM     28  C   LIG    1       26.260 -28.073   5.930  0.00  0.00    +0.057 C 
BRANCH  26  29
ATOM     29  C   LIG    1       24.332 -26.467   6.428  0.00  0.00    +0.131 C 
BRANCH  29  30
ATOM     30  N   LIG    1       25.285 -25.397   6.000  0.00  0.00    -0.302 NA
ATOM     31  C   LIG    1       24.964 -25.068   4.604  0.00  0.00    +0.105 C 
BRANCH  30  32
ATOM     32  C   LIG    1       25.223 -24.225   6.888  0.00  0.00    +0.085 C 
BRANCH  32  33
ATOM     33  C   LIG    1       26.480 -23.353   6.981  0.00  0.00    +0.028 C 
BRANCH  33  34
ATOM     34  C   LIG    1       26.171 -21.827   7.148  0.00  0.00    +0.050 C 
BRANCH  34  35
ATOM     35  C   LIG    1       24.999 -21.341   6.282  0.00  0.00    -0.040 A 
ATOM     36  C   LIG    1       23.881 -20.696   6.841  0.00  0.00    +0.004 A 
ATOM     37  C   LIG    1       22.886 -20.139   6.038  0.00  0.00    +0.000 A 
ATOM     38  C   LIG    1       22.951 -20.274   4.657  0.00  0.00    +0.000 A 
ATOM     39  C   LIG    1       24.018 -20.959   4.081  0.00  0.00    +0.000 A 
ATOM     40  C   LIG    1       25.039 -21.481   4.884  0.00  0.00    +0.004 A 
ENDBRANCH  34  35
BRANCH  34  41
ATOM     41  C   LIG    1       27.430 -20.974   6.945  0.00  0.00    -0.040 A 
ATOM     42  C   LIG    1       27.519 -20.024   5.913  0.00  0.00    +0.004 A 
ATOM     43  C   LIG    1       28.650 -19.223   5.754  0.00  0.00    +0.000 A 
ATOM     44  C   LIG    1       29.716 -19.344   6.635  0.00  0.00    +0.000 A 
ATOM     45  C   LIG    1       29.661 -20.287   7.658  0.00  0.00    +0.000 A 
ATOM     46  C   LIG    1       28.532 -21.103   7.809  0.00  0.00    +0.004 A 
ENDBRANCH  34  41
ENDBRANCH  33  34
ENDBRANCH  32  33
ENDBRANCH  30  32
ENDBRANCH  29  30
ENDBRANCH  26  29
ENDBRANCH  25  26
ENDBRANCH   1  25
TORSDOF 14
ENDMDL
MODEL 6
REMARK VINA RESULT:      -8.0      1.801      3.722
REMARK  Name = *****
REMARK                            x       y       z     vdW  Elec       q    Type
REMARK                         _______ _______ _______ _____ _____    ______ ____
ROOT
ATOM      1  C   LIG    1       25.955 -28.723   8.486  0.00  0.00    +0.338 C 
ATOM      2  O   LIG    1       27.072 -28.168   8.561  0.00  0.00    -0.245 OA
ENDROOT
BRANCH   1   5
ATOM      3  C   LIG    1       23.891 -30.412  11.335  0.00  0.00    +0.065 C 
ATOM      4  C   LIG    1       24.771 -29.304  10.718  0.00  0.00    +0.096 C 
ATOM      5  C   LIG    1       25.488 -29.765   9.443  0.00  0.00    +0.065 C 
ATOM      6  C   LIG    1       25.552 -31.092   9.132  0.00  0.00    +0.016 C 
ATOM      7  C   LIG    1       26.281 -31.672   7.944  0.00  0.00    +0.061 C 
ATOM      8  N   LIG    1       24.912 -32.016   9.932  0.00  0.00    -0.321 N 
ATOM      9  H   LIG    1       24.888 -32.973   9.588  0.00  0.00    +0.152 HD
ATOM     10  C   LIG    1       23.986 -31.686  10.908  0.00  0.00    +0.016 C 
ATOM     11  C   LIG    1       23.129 -32.846  11.364  0.00  0.00    +0.061 C 
BRANCH   4  12
ATOM     12  C   LIG    1       25.763 -28.749  11.757  0.00  0.00    -0.029 A 
ATOM     13  C   LIG    1       25.779 -27.373  12.057  0.00  0.00    +0.088 A 
ATOM     14  C   LIG    1       26.669 -26.871  13.018  0.00  0.00    +0.273 A 
ATOM     15  C   LIG    1       27.540 -27.727  13.702  0.00  0.00    +0.084 A 
ATOM     16  C   LIG    1       27.543 -29.086  13.393  0.00  0.00    +0.007 A 
ATOM     17  C   LIG    1       26.671 -29.591  12.424  0.00  0.00    +0.005 A 
BRANCH  14  18
ATOM     18  N   LIG    1       26.703 -25.430  13.301  0.00  0.00    +0.080 N 
ATOM     19  O   LIG    1       25.642 -24.796  13.215  0.00  0.00    -0.576 OA
ATOM     20  O   LIG    1       27.798 -24.925  13.595  0.00  0.00    +0.041 OA
ENDBRANCH  14  18
ENDBRANCH   4  12
BRANCH   3  21
ATOM     21  C   LIG    1       22.935 -29.927  12.383  0.00  0.00    +0.337 C 
ATOM     22  O   LIG    1       21.902 -29.338  12.134  0.00  0.00    -0.245 OA
BRANCH  21  24
ATOM     23  C   LIG    1       23.355 -29.221  14.627  0.00  0.00    +0.280 C 
ATOM     24  O   LIG    1       23.440 -30.222  13.617  0.00  0.00    -0.465 OA
ENDBRANCH  21  24
ENDBRANCH   3  21
ENDBRANCH   1   5
BRANCH   1  25
ATOM     25  O   LIG    1       25.031 -28.533   7.526  0.00  0.00    -0.454 OA
BRANCH  25  26
ATOM     26  C   LIG    1       25.247 -27.562   6.455  0.00  0.00    +0.121 C 
ATOM     27  C   LIG    1       24.137 -27.773   5.402  0.00  0.00    +0.057 C 
ATOM     28  C   LIG    1       26.562 -27.882   5.720  0.00  0.00    +0.057 C 
BRANCH  26  29
ATOM     29  C   LIG    1       25.271 -26.097   7.021  0.00  0.00    +0.131 C 
BRANCH  29  30
ATOM     30  N   LIG    1       24.750 -24.985   6.168  0.00  0.00    -0.302 NA
ATOM     31  C   LIG    1       23.400 -24.666   6.654  0.00  0.00    +0.105 C 
BRANCH  30  32
ATOM     32  C   LIG    1       25.648 -23.820   6.183  0.00  0.00    +0.085 C 
BRANCH  32  33
ATOM     33  C   LIG    1       25.256 -22.625   5.307  0.00  0.00    +0.028 C 
BRANCH  33  34
ATOM     34  C   LIG    1       25.063 -21.297   6.113  0.00  0.00    +0.050 C 
BRANCH  34  35
ATOM     35  C   LIG    1       24.206 -20.254   5.379  0.00  0.00    -0.040 A 
ATOM     36  C   LIG    1       24.667 -19.593   4.227  0.00  0.00    +0.004 A 
ATOM     37  C   LIG    1       23.835 -18.748   3.491  0.00  0.00    +0.000 A 
ATOM     38  C   LIG    1       22.542 -18.492   3.930  0.00  0.00    +0.000 A 
ATOM     39  C   LIG    1       22.081 -19.088   5.100  0.00  0.00    +0.000 A 
ATOM     40  C   LIG    1       22.900 -19.969   5.815  0.00  0.00    +0.004 A 
ENDBRANCH  34  35
BRANCH  34  41
ATOM     41  C   LIG    1       26.408 -20.718   6.571  0.00  0.00    -0.040 A 
ATOM     42  C   LIG    1       26.761 -20.661   7.930  0.00  0.00    +0.004 A 
ATOM     43  C   LIG    1       28.000 -20.169   8.342  0.00  0.00    +0.000 A 
ATOM     44  C   LIG    1       28.923 -19.736   7.400  0.00  0.00    +0.000 A 
ATOM     45  C   LIG    1       28.595 -19.768   6.048  0.00  0.00    +0.000 A 
ATOM     46  C   LIG    1       27.344 -20.247   5.634  0.00  0.00    +0.004 A 
ENDBRANCH  34  41
ENDBRANCH  33  34
ENDBRANCH  32  33
ENDBRANCH  30  32
ENDBRANCH  29  30
ENDBRANCH  26  29
ENDBRANCH  25  26
ENDBRANCH   1  25
TORSDOF 14
ENDMDL
MODEL 7
REMARK VINA RESULT:      -7.8      3.983      7.824
REMARK  Name = *****
REMARK                            x       y       z     vdW  Elec       q    Type
REMARK                         _______ _______ _______ _____ _____    ______ ____
ROOT
ATOM      1  C   LIG    1       21.905 -30.278  11.242  0.00  0.00    +0.338 C 
ATOM      2  O   LIG    1       21.365 -30.719  10.205  0.00  0.00    -0.245 OA
ENDROOT
BRANCH   1   5
ATOM      3  C   LIG    1       20.003 -28.364  14.060  0.00  0.00    +0.065 C 
ATOM      4  C   LIG    1       21.182 -28.618  13.097  0.00  0.00    +0.096 C 
ATOM      5  C   LIG    1       21.169 -30.037  12.513  0.00  0.00    +0.065 C 
ATOM      6  C   LIG    1       20.376 -31.000  13.067  0.00  0.00    +0.016 C 
ATOM      7  C   LIG    1       20.325 -32.442  12.625  0.00  0.00    +0.061 C 
ATOM      8  N   LIG    1       19.536 -30.680  14.113  0.00  0.00    -0.321 N 
ATOM      9  H   LIG    1       18.881 -31.402  14.405  0.00  0.00    +0.152 HD
ATOM     10  C   LIG    1       19.238 -29.383  14.498  0.00  0.00    +0.016 C 
ATOM     11  C   LIG    1       18.009 -29.264  15.371  0.00  0.00    +0.061 C 
BRANCH   4  12
ATOM     12  C   LIG    1       22.525 -28.297  13.777  0.00  0.00    -0.029 A 
ATOM     13  C   LIG    1       23.313 -27.224  13.318  0.00  0.00    +0.088 A 
ATOM     14  C   LIG    1       24.528 -26.920  13.950  0.00  0.00    +0.273 A 
ATOM     15  C   LIG    1       24.966 -27.664  15.052  0.00  0.00    +0.084 A 
ATOM     16  C   LIG    1       24.200 -28.740  15.497  0.00  0.00    +0.007 A 
ATOM     17  C   LIG    1       22.998 -29.060  14.860  0.00  0.00    +0.005 A 
BRANCH  14  18
ATOM     18  N   LIG    1       25.360 -25.820  13.445  0.00  0.00    +0.080 N 
ATOM     19  O   LIG    1       26.393 -26.110  12.824  0.00  0.00    -0.576 OA
ATOM     20  O   LIG    1       24.991 -24.659  13.685  0.00  0.00    +0.041 OA
ENDBRANCH  14  18
ENDBRANCH   4  12
BRANCH   3  21
ATOM     21  C   LIG    1       19.789 -26.921  14.404  0.00  0.00    +0.337 C 
ATOM     22  O   LIG    1       20.314 -26.366  15.349  0.00  0.00    -0.245 OA
BRANCH  21  24
ATOM     23  C   LIG    1       17.610 -26.027  14.003  0.00  0.00    +0.280 C 
ATOM     24  O   LIG    1       18.902 -26.378  13.519  0.00  0.00    -0.465 OA
ENDBRANCH  21  24
ENDBRANCH   3  21
ENDBRANCH   1   5
BRANCH   1  25
ATOM     25  O   LIG    1       23.189 -29.895  11.374  0.00  0.00    -0.454 OA
BRANCH  25  26
ATOM     26  C   LIG    1       24.256 -30.882  11.528  0.00  0.00    +0.121 C 
ATOM     27  C   LIG    1       23.796 -31.904  12.590  0.00  0.00    +0.057 C 
ATOM     28  C   LIG    1       25.502 -30.209  12.133  0.00  0.00    +0.057 C 
BRANCH  26  29
ATOM     29  C   LIG    1       24.603 -31.556  10.153  0.00  0.00    +0.131 C 
BRANCH  29  30
ATOM     30  N   LIG    1       26.039 -31.725   9.772  0.00  0.00    -0.302 NA
ATOM     31  C   LIG    1       26.235 -33.146   9.452  0.00  0.00    +0.105 C 
BRANCH  30  32
ATOM     32  C   LIG    1       26.417 -30.835   8.662  0.00  0.00    +0.085 C 
BRANCH  32  33
ATOM     33  C   LIG    1       25.755 -29.455   8.617  0.00  0.00    +0.028 C 
BRANCH  33  34
ATOM     34  C   LIG    1       24.766 -29.275   7.417  0.00  0.00    +0.050 C 
BRANCH  34  35
ATOM     35  C   LIG    1       24.766 -30.460   6.440  0.00  0.00    -0.040 A 
ATOM     36  C   LIG    1       25.731 -30.583   5.424  0.00  0.00    +0.004 A 
ATOM     37  C   LIG    1       25.805 -31.726   4.627  0.00  0.00    +0.000 A 
ATOM     38  C   LIG    1       24.873 -32.743   4.783  0.00  0.00    +0.000 A 
ATOM     39  C   LIG    1       23.871 -32.620   5.743  0.00  0.00    +0.000 A 
ATOM     40  C   LIG    1       23.822 -31.493   6.571  0.00  0.00    +0.004 A 
ENDBRANCH  34  35
BRANCH  34  41
ATOM     41  C   LIG    1       24.991 -27.937   6.701  0.00  0.00    -0.040 A 
ATOM     42  C   LIG    1       24.162 -27.516   5.646  0.00  0.00    +0.004 A 
ATOM     43  C   LIG    1       24.345 -26.283   5.021  0.00  0.00    +0.000 A 
ATOM     44  C   LIG    1       25.355 -25.431   5.449  0.00  0.00    +0.000 A 
ATOM     45  C   LIG    1       26.199 -25.827   6.483  0.00  0.00    +0.000 A 
ATOM     46  C   LIG    1       26.027 -27.073   7.100  0.00  0.00    +0.004 A 
ENDBRANCH  34  41
ENDBRANCH  33  34
ENDBRANCH  32  33
ENDBRANCH  30  32
ENDBRANCH  29  30
ENDBRANCH  26  29
ENDBRANCH  25  26
ENDBRANCH   1  25
TORSDOF 14
ENDMDL
MODEL 8
REMARK VINA RESULT:      -7.6      3.776     10.581
REMARK  Name = *****
REMARK                            x       y       z     vdW  Elec       q    Type
REMARK                         _______ _______ _______ _____ _____    ______ ____
ROOT
ATOM      1  C   LIG    1       25.359 -23.918   6.288  0.00  0.00    +0.338 C 
ATOM      2  O   LIG    1       25.924 -24.204   7.365  0.00  0.00    -0.245 OA
ENDROOT
BRANCH   1   5
ATOM      3  C   LIG    1       24.594 -20.462   4.646  0.00  0.00    +0.065 C 
ATOM      4  C   LIG    1       25.497 -21.518   5.319  0.00  0.00    +0.096 C 
ATOM      5  C   LIG    1       24.691 -22.612   6.031  0.00  0.00    +0.065 C 
ATOM      6  C   LIG    1       23.360 -22.436   6.276  0.00  0.00    +0.016 C 
ATOM      7  C   LIG    1       22.479 -23.407   7.022  0.00  0.00    +0.061 C 
ATOM      8  N   LIG    1       22.723 -21.300   5.823  0.00  0.00    -0.321 N 
ATOM      9  H   LIG    1       21.711 -21.277   5.925  0.00  0.00    +0.152 HD
ATOM     10  C   LIG    1       23.273 -20.416   4.908  0.00  0.00    +0.016 C 
ATOM     11  C   LIG    1       22.267 -19.493   4.258  0.00  0.00    +0.061 C 
BRANCH   4  12
ATOM     12  C   LIG    1       26.509 -20.849   6.268  0.00  0.00    -0.029 A 
ATOM     13  C   LIG    1       27.690 -20.279   5.756  0.00  0.00    +0.088 A 
ATOM     14  C   LIG    1       28.603 -19.654   6.619  0.00  0.00    +0.273 A 
ATOM     15  C   LIG    1       28.347 -19.573   7.993  0.00  0.00    +0.084 A 
ATOM     16  C   LIG    1       27.190 -20.155   8.507  0.00  0.00    +0.007 A 
ATOM     17  C   LIG    1       26.285 -20.796   7.655  0.00  0.00    +0.005 A 
BRANCH  14  18
ATOM     18  N   LIG    1       29.848 -19.090   6.082  0.00  0.00    +0.080 N 
ATOM     19  O   LIG    1       29.762 -18.154   5.275  0.00  0.00    -0.576 OA
ATOM     20  O   LIG    1       30.919 -19.596   6.456  0.00  0.00    +0.041 OA
ENDBRANCH  14  18
ENDBRANCH   4  12
BRANCH   3  21
ATOM     21  C   LIG    1       25.310 -19.564   3.683  0.00  0.00    +0.337 C 
ATOM     22  O   LIG    1       25.880 -19.959   2.687  0.00  0.00    -0.245 OA
BRANCH  21  24
ATOM     23  C   LIG    1       25.892 -17.267   3.375  0.00  0.00    +0.280 C 
ATOM     24  O   LIG    1       25.238 -18.277   4.136  0.00  0.00    -0.465 OA
ENDBRANCH  21  24
ENDBRANCH   3  21
ENDBRANCH   1   5
BRANCH   1  25
ATOM     25  O   LIG    1       25.202 -24.732   5.227  0.00  0.00    -0.454 OA
BRANCH  25  26
ATOM     26  C   LIG    1       25.439 -26.169   5.341  0.00  0.00    +0.121 C 
ATOM     27  C   LIG    1       26.763 -26.365   6.112  0.00  0.00    +0.057 C 
ATOM     28  C   LIG    1       25.698 -26.765   3.944  0.00  0.00    +0.057 C 
BRANCH  26  29
ATOM     29  C   LIG    1       24.226 -26.887   6.033  0.00  0.00    +0.131 C 
BRANCH  29  30
ATOM     30  N   LIG    1       24.176 -28.382   6.035  0.00  0.00    -0.302 NA
ATOM     31  C   LIG    1       25.055 -28.844   4.951  0.00  0.00    +0.105 C 
BRANCH  30  32
ATOM     32  C   LIG    1       24.549 -28.938   7.345  0.00  0.00    +0.085 C 
BRANCH  32  33
ATOM     33  C   LIG    1       24.096 -30.369   7.650  0.00  0.00    +0.028 C 
BRANCH  33  34
ATOM     34  C   LIG    1       24.918 -31.055   8.792  0.00  0.00    +0.050 C 
BRANCH  34  35
ATOM     35  C   LIG    1       25.450 -30.069   9.842  0.00  0.00    -0.040 A 
ATOM     36  C   LIG    1       26.683 -29.411   9.685  0.00  0.00    +0.004 A 
ATOM     37  C   LIG    1       27.097 -28.419  10.574  0.00  0.00    +0.000 A 
ATOM     38  C   LIG    1       26.317 -28.109  11.681  0.00  0.00    +0.000 A 
ATOM     39  C   LIG    1       25.118 -28.788  11.892  0.00  0.00    +0.000 A 
ATOM     40  C   LIG    1       24.683 -29.753  10.976  0.00  0.00    +0.004 A 
ENDBRANCH  34  35
BRANCH  34  41
ATOM     41  C   LIG    1       26.031 -31.947   8.224  0.00  0.00    -0.040 A 
ATOM     42  C   LIG    1       26.752 -32.836   9.039  0.00  0.00    +0.004 A 
ATOM     43  C   LIG    1       27.737 -33.673   8.514  0.00  0.00    +0.000 A 
ATOM     44  C   LIG    1       28.013 -33.652   7.153  0.00  0.00    +0.000 A 
ATOM     45  C   LIG    1       27.323 -32.771   6.324  0.00  0.00    +0.000 A 
ATOM     46  C   LIG    1       26.345 -31.918   6.853  0.00  0.00    +0.004 A 
ENDBRANCH  34  41
ENDBRANCH  33  34
ENDBRANCH  32  33
ENDBRANCH  30  32
ENDBRANCH  29  30
ENDBRANCH  26  29
ENDBRANCH  25  26
ENDBRANCH   1  25
TORSDOF 14
ENDMDL
MODEL 9
REMARK VINA RESULT:      -7.6      3.699     10.457
REMARK  Name = *****
REMARK                            x       y       z     vdW  Elec       q    Type
REMARK                         _______ _______ _______ _____ _____    ______ ____
ROOT
ATOM      1  C   LIG    1       25.383 -23.883   6.233  0.00  0.00    +0.338 C 
ATOM      2  O   LIG    1       25.895 -24.205   7.327  0.00  0.00    -0.245 OA
ENDROOT
BRANCH   1   5
ATOM      3  C   LIG    1       24.593 -20.415   4.629  0.00  0.00    +0.065 C 
ATOM      4  C   LIG    1       25.505 -21.474   5.286  0.00  0.00    +0.096 C 
ATOM      5  C   LIG    1       24.709 -22.578   5.994  0.00  0.00    +0.065 C 
ATOM      6  C   LIG    1       23.379 -22.409   6.250  0.00  0.00    +0.016 C 
ATOM      7  C   LIG    1       22.507 -23.391   6.993  0.00  0.00    +0.061 C 
ATOM      8  N   LIG    1       22.734 -21.272   5.812  0.00  0.00    -0.321 N 
ATOM      9  H   LIG    1       21.723 -21.253   5.921  0.00  0.00    +0.152 HD
ATOM     10  C   LIG    1       23.274 -20.377   4.902  0.00  0.00    +0.016 C 
ATOM     11  C   LIG    1       22.259 -19.453   4.267  0.00  0.00    +0.061 C 
BRANCH   4  12
ATOM     12  C   LIG    1       26.521 -20.810   6.233  0.00  0.00    -0.029 A 
ATOM     13  C   LIG    1       27.704 -20.245   5.719  0.00  0.00    +0.088 A 
ATOM     14  C   LIG    1       28.621 -19.624   6.581  0.00  0.00    +0.273 A 
ATOM     15  C   LIG    1       28.368 -19.543   7.956  0.00  0.00    +0.084 A 
ATOM     16  C   LIG    1       27.208 -20.119   8.471  0.00  0.00    +0.007 A 
ATOM     17  C   LIG    1       26.300 -20.756   7.621  0.00  0.00    +0.005 A 
BRANCH  14  18
ATOM     18  N   LIG    1       29.869 -19.067   6.043  0.00  0.00    +0.080 N 
ATOM     19  O   LIG    1       30.939 -19.564   6.422  0.00  0.00    -0.576 OA
ATOM     20  O   LIG    1       29.780 -18.116   5.250  0.00  0.00    +0.041 OA
ENDBRANCH  14  18
ENDBRANCH   4  12
BRANCH   3  21
ATOM     21  C   LIG    1       25.298 -19.505   3.669  0.00  0.00    +0.337 C 
ATOM     22  O   LIG    1       25.884 -19.892   2.679  0.00  0.00    -0.245 OA
BRANCH  21  24
ATOM     23  C   LIG    1       25.882 -17.205   3.390  0.00  0.00    +0.280 C 
ATOM     24  O   LIG    1       25.196 -18.219   4.118  0.00  0.00    -0.465 OA
ENDBRANCH  21  24
ENDBRANCH   3  21
ENDBRANCH   1   5
BRANCH   1  25
ATOM     25  O   LIG    1       25.297 -24.655   5.133  0.00  0.00    -0.454 OA
BRANCH  25  26
ATOM     26  C   LIG    1       25.445 -26.106   5.219  0.00  0.00    +0.121 C 
ATOM     27  C   LIG    1       26.757 -26.397   5.981  0.00  0.00    +0.057 C 
ATOM     28  C   LIG    1       25.662 -26.691   3.811  0.00  0.00    +0.057 C 
BRANCH  26  29
ATOM     29  C   LIG    1       24.193 -26.761   5.904  0.00  0.00    +0.131 C 
BRANCH  29  30
ATOM     30  N   LIG    1       24.321 -28.131   6.488  0.00  0.00    -0.302 NA
ATOM     31  C   LIG    1       24.410 -29.072   5.362  0.00  0.00    +0.105 C 
BRANCH  30  32
ATOM     32  C   LIG    1       25.471 -28.229   7.401  0.00  0.00    +0.085 C 
BRANCH  32  33
ATOM     33  C   LIG    1       25.607 -29.520   8.215  0.00  0.00    +0.028 C 
BRANCH  33  34
ATOM     34  C   LIG    1       24.889 -29.461   9.605  0.00  0.00    +0.050 C 
BRANCH  34  35
ATOM     35  C   LIG    1       25.855 -29.289  10.788  0.00  0.00    -0.040 A 
ATOM     36  C   LIG    1       27.216 -29.628  10.688  0.00  0.00    +0.004 A 
ATOM     37  C   LIG    1       28.113 -29.345  11.720  0.00  0.00    +0.000 A 
ATOM     38  C   LIG    1       27.655 -28.779  12.902  0.00  0.00    +0.000 A 
ATOM     39  C   LIG    1       26.300 -28.487  13.048  0.00  0.00    +0.000 A 
ATOM     40  C   LIG    1       25.408 -28.731  11.998  0.00  0.00    +0.004 A 
ENDBRANCH  34  35
BRANCH  34  41
ATOM     41  C   LIG    1       23.945 -30.655   9.801  0.00  0.00    -0.040 A 
ATOM     42  C   LIG    1       22.615 -30.483  10.222  0.00  0.00    +0.004 A 
ATOM     43  C   LIG    1       21.748 -31.566  10.363  0.00  0.00    +0.000 A 
ATOM     44  C   LIG    1       22.188 -32.850  10.069  0.00  0.00    +0.000 A 
ATOM     45  C   LIG    1       23.504 -33.051   9.662  0.00  0.00    +0.000 A 
ATOM     46  C   LIG    1       24.381 -31.966   9.537  0.00  0.00    +0.004 A 
ENDBRANCH  34  41
ENDBRANCH  33  34
ENDBRANCH  32  33
ENDBRANCH  30  32
ENDBRANCH  29  30
ENDBRANCH  26  29
ENDBRANCH  25  26
ENDBRANCH   1  25
TORSDOF 14
ENDMDL
