MODEL 1
REMARK VINA RESULT:      -8.8      0.000      0.000
REMARK  Name = *****
REMARK                            x       y       z     vdW  Elec       q    Type
REMARK                         _______ _______ _______ _____ _____    ______ ____
ROOT
ATOM      1  C   LIG    1       25.391 -22.012   7.157  0.00  0.00    +0.250 C 
ATOM      2  N   LIG    1       26.485 -21.787   6.325  0.00  0.00    -0.283 N 
ATOM      3  H   LIG    1       26.452 -22.168   5.387  0.00  0.00    +0.155 HD
ATOM      4  O   LIG    1       25.283 -21.613   8.319  0.00  0.00    -0.272 OA
ENDROOT
BRANCH   2   5
ATOM      5  C   LIG    1       27.671 -21.064   6.624  0.00  0.00    +0.034 A 
ATOM      6  C   LIG    1       28.600 -21.630   7.519  0.00  0.00    +0.037 A 
ATOM      7  C   LIG    1       29.791 -20.949   7.902  0.00  0.00    +0.074 A 
ATOM      8  C   LIG    1       30.071 -19.703   7.323  0.00  0.00    +0.064 A 
ATOM      9  C   LIG    1       29.151 -19.150   6.422  0.00  0.00    +0.021 A 
ATOM     10  C   LIG    1       27.963 -19.812   6.093  0.00  0.00    +0.024 A 
BRANCH   7  11
ATOM     11  C   LIG    1       30.674 -21.575   8.960  0.00  0.00    +0.419 C 
ATOM     12  F   LIG    1       30.010 -22.487   9.721  0.00  0.00    -0.166 F 
ATOM     13  F   LIG    1       31.147 -20.640   9.832  0.00  0.00    -0.166 F 
ATOM     14  F   LIG    1       31.773 -22.217   8.488  0.00  0.00    -0.166 F 
ENDBRANCH   7  11
BRANCH   8  15
ATOM     15  C   LIG    1       31.240 -18.922   7.602  0.00  0.00    +0.100 C 
ATOM     16  N   LIG    1       32.177 -18.296   7.909  0.00  0.00    -0.191 NA
ENDBRANCH   8  15
ENDBRANCH   2   5
BRANCH   1  18
ATOM     17  C   LIG    1       22.838 -22.254   6.910  0.00  0.00    +0.053 C 
ATOM     18  C   LIG    1       24.201 -22.834   6.548  0.00  0.00    +0.158 C 
BRANCH  18  19
ATOM     19  O   LIG    1       24.257 -22.710   5.100  0.00  0.00    -0.378 OA
ATOM     20  H   LIG    1       25.005 -22.120   4.877  0.00  0.00    +0.211 HD
ENDBRANCH  18  19
BRANCH  18  21
ATOM     21  C   LIG    1       24.288 -24.333   6.814  0.00  0.00    +0.215 C 
BRANCH  21  22
ATOM     22  S   LIG    1       25.417 -25.227   5.784  0.00  0.00    +0.000 S 
ATOM     23  O   LIG    1       26.773 -24.861   6.144  0.00  0.00    -0.169 OA
ATOM     24  O   LIG    1       24.977 -25.142   4.407  0.00  0.00    -0.169 OA
BRANCH  22  25
ATOM     25  C   LIG    1       25.164 -26.905   6.316  0.00  0.00    +0.088 A 
ATOM     26  C   LIG    1       25.827 -27.375   7.455  0.00  0.00    +0.030 A 
ATOM     27  C   LIG    1       25.615 -28.690   7.871  0.00  0.00    +0.040 A 
ATOM     28  C   LIG    1       24.757 -29.511   7.145  0.00  0.00    +0.123 A 
ATOM     29  F   LIG    1       24.556 -30.772   7.548  0.00  0.00    -0.205 F 
ATOM     30  C   LIG    1       24.105 -29.047   6.006  0.00  0.00    +0.040 A 
ATOM     31  C   LIG    1       24.311 -27.735   5.580  0.00  0.00    +0.030 A 
ENDBRANCH  22  25
ENDBRANCH  21  22
ENDBRANCH  18  21
ENDBRANCH   1  18
TORSDOF 8
ENDMDL
MODEL 2
REMARK VINA RESULT:      -8.8      4.535      9.763
REMARK  Name = *****
REMARK                            x       y       z     vdW  Elec       q    Type
REMARK                         _______ _______ _______ _____ _____    ______ ____
ROOT
ATOM      1  C   LIG    1       29.245 -20.893   7.659  0.00  0.00    +0.250 C 
ATOM      2  N   LIG    1       28.152 -21.455   8.315  0.00  0.00    -0.283 N 
ATOM      3  H   LIG    1       28.284 -21.772   9.268  0.00  0.00    +0.155 HD
ATOM      4  O   LIG    1       29.241 -20.462   6.504  0.00  0.00    -0.272 OA
ENDROOT
BRANCH   2   5
ATOM      5  C   LIG    1       26.835 -21.635   7.812  0.00  0.00    +0.034 A 
ATOM      6  C   LIG    1       26.458 -22.911   7.349  0.00  0.00    +0.037 A 
ATOM      7  C   LIG    1       25.172 -23.162   6.791  0.00  0.00    +0.074 A 
ATOM      8  C   LIG    1       24.236 -22.117   6.758  0.00  0.00    +0.064 A 
ATOM      9  C   LIG    1       24.611 -20.853   7.234  0.00  0.00    +0.021 A 
ATOM     10  C   LIG    1       25.894 -20.613   7.736  0.00  0.00    +0.024 A 
BRANCH   7  11
ATOM     11  C   LIG    1       24.890 -24.529   6.207  0.00  0.00    +0.419 C 
ATOM     12  F   LIG    1       23.728 -25.065   6.672  0.00  0.00    -0.166 F 
ATOM     13  F   LIG    1       25.866 -25.423   6.534  0.00  0.00    -0.166 F 
ATOM     14  F   LIG    1       24.801 -24.571   4.853  0.00  0.00    -0.166 F 
ENDBRANCH   7  11
BRANCH   8  15
ATOM     15  C   LIG    1       22.903 -22.237   6.246  0.00  0.00    +0.100 C 
ATOM     16  N   LIG    1       21.844 -22.305   5.757  0.00  0.00    -0.191 NA
ENDBRANCH   8  15
ENDBRANCH   2   5
BRANCH   1  18
ATOM     17  C   LIG    1       30.955 -22.119   9.147  0.00  0.00    +0.053 C 
ATOM     18  C   LIG    1       30.583 -20.801   8.475  0.00  0.00    +0.158 C 
BRANCH  18  19
ATOM     19  O   LIG    1       31.672 -20.570   7.539  0.00  0.00    -0.378 OA
ATOM     20  H   LIG    1       31.906 -19.620   7.580  0.00  0.00    +0.211 HD
ENDBRANCH  18  19
BRANCH  18  21
ATOM     21  C   LIG    1       30.638 -19.618   9.436  0.00  0.00    +0.215 C 
BRANCH  21  22
ATOM     22  S   LIG    1       31.206 -18.093   8.738  0.00  0.00    +0.000 S 
ATOM     23  O   LIG    1       30.072 -17.376   8.189  0.00  0.00    -0.169 OA
ATOM     24  O   LIG    1       32.376 -18.347   7.924  0.00  0.00    -0.169 OA
BRANCH  22  25
ATOM     25  C   LIG    1       31.749 -17.200  10.177  0.00  0.00    +0.088 A 
ATOM     26  C   LIG    1       31.320 -17.607  11.445  0.00  0.00    +0.030 A 
ATOM     27  C   LIG    1       31.758 -16.906  12.568  0.00  0.00    +0.040 A 
ATOM     28  C   LIG    1       32.606 -15.812  12.409  0.00  0.00    +0.123 A 
ATOM     29  F   LIG    1       33.024 -15.143  13.491  0.00  0.00    -0.205 F 
ATOM     30  C   LIG    1       33.025 -15.401  11.147  0.00  0.00    +0.040 A 
ATOM     31  C   LIG    1       32.591 -16.093  10.017  0.00  0.00    +0.030 A 
ENDBRANCH  22  25
ENDBRANCH  21  22
ENDBRANCH  18  21
ENDBRANCH   1  18
TORSDOF 8
ENDMDL
MODEL 3
REMARK VINA RESULT:      -8.6      2.779      8.023
REMARK  Name = *****
REMARK                            x       y       z     vdW  Elec       q    Type
REMARK                         _______ _______ _______ _____ _____    ______ ____
ROOT
ATOM      1  C   LIG    1       23.691 -23.564   6.538  0.00  0.00    +0.250 C 
ATOM      2  N   LIG    1       24.845 -24.231   6.132  0.00  0.00    -0.283 N 
ATOM      3  H   LIG    1       25.677 -23.678   5.964  0.00  0.00    +0.155 HD
ATOM      4  O   LIG    1       22.607 -24.097   6.781  0.00  0.00    -0.272 OA
ENDROOT
BRANCH   2   5
ATOM      5  C   LIG    1       25.017 -25.627   5.928  0.00  0.00    +0.034 A 
ATOM      6  C   LIG    1       25.165 -26.461   7.053  0.00  0.00    +0.037 A 
ATOM      7  C   LIG    1       25.383 -27.863   6.931  0.00  0.00    +0.074 A 
ATOM      8  C   LIG    1       25.391 -28.434   5.649  0.00  0.00    +0.064 A 
ATOM      9  C   LIG    1       25.227 -27.603   4.533  0.00  0.00    +0.021 A 
ATOM     10  C   LIG    1       25.061 -26.220   4.671  0.00  0.00    +0.024 A 
BRANCH   7  11
ATOM     11  C   LIG    1       25.653 -28.667   8.184  0.00  0.00    +0.419 C 
ATOM     12  F   LIG    1       24.510 -29.108   8.777  0.00  0.00    -0.166 F 
ATOM     13  F   LIG    1       26.293 -27.919   9.128  0.00  0.00    -0.166 F 
ATOM     14  F   LIG    1       26.428 -29.767   8.009  0.00  0.00    -0.166 F 
ENDBRANCH   7  11
BRANCH   8  15
ATOM     15  C   LIG    1       25.577 -29.830   5.384  0.00  0.00    +0.100 C 
ATOM     16  N   LIG    1       25.729 -30.950   5.088  0.00  0.00    -0.191 NA
ENDBRANCH   8  15
ENDBRANCH   2   5
BRANCH   1  18
ATOM     17  C   LIG    1       22.838 -21.250   5.793  0.00  0.00    +0.053 C 
ATOM     18  C   LIG    1       23.800 -22.007   6.703  0.00  0.00    +0.158 C 
BRANCH  18  19
ATOM     19  O   LIG    1       23.357 -21.659   8.043  0.00  0.00    -0.378 OA
ATOM     20  H   LIG    1       23.538 -20.707   8.181  0.00  0.00    +0.211 HD
ENDBRANCH  18  19
BRANCH  18  21
ATOM     21  C   LIG    1       25.227 -21.477   6.615  0.00  0.00    +0.215 C 
BRANCH  21  22
ATOM     22  S   LIG    1       26.119 -21.430   8.144  0.00  0.00    +0.000 S 
ATOM     23  O   LIG    1       26.314 -22.786   8.617  0.00  0.00    -0.169 OA
ATOM     24  O   LIG    1       25.531 -20.430   9.010  0.00  0.00    -0.169 OA
BRANCH  22  25
ATOM     25  C   LIG    1       27.709 -20.816   7.634  0.00  0.00    +0.088 A 
ATOM     26  C   LIG    1       27.799 -19.976   6.519  0.00  0.00    +0.030 A 
ATOM     27  C   LIG    1       29.049 -19.492   6.132  0.00  0.00    +0.040 A 
ATOM     28  C   LIG    1       30.182 -19.857   6.855  0.00  0.00    +0.123 A 
ATOM     29  F   LIG    1       31.379 -19.389   6.480  0.00  0.00    -0.205 F 
ATOM     30  C   LIG    1       30.093 -20.701   7.959  0.00  0.00    +0.040 A 
ATOM     31  C   LIG    1       28.849 -21.193   8.353  0.00  0.00    +0.030 A 
ENDBRANCH  22  25
ENDBRANCH  21  22
ENDBRANCH  18  21
ENDBRANCH   1  18
TORSDOF 8
ENDMDL
MODEL 4
REMARK VINA RESULT:      -8.6      1.810      2.304
REMARK  Name = *****
REMARK                            x       y       z     vdW  Elec       q    Type
REMARK                         _______ _______ _______ _____ _____    ______ ____
ROOT
ATOM      1  C   LIG    1       25.071 -22.317   7.174  0.00  0.00    +0.250 C 
ATOM      2  N   LIG    1       26.292 -22.208   6.511  0.00  0.00    -0.283 N 
ATOM      3  H   LIG    1       26.377 -22.647   5.603  0.00  0.00    +0.155 HD
ATOM      4  O   LIG    1       24.814 -21.838   8.280  0.00  0.00    -0.272 OA
ENDROOT
BRANCH   2   5
ATOM      5  C   LIG    1       27.463 -21.534   6.951  0.00  0.00    +0.034 A 
ATOM      6  C   LIG    1       27.853 -20.355   6.287  0.00  0.00    +0.037 A 
ATOM      7  C   LIG    1       29.036 -19.645   6.640  0.00  0.00    +0.074 A 
ATOM      8  C   LIG    1       29.801 -20.107   7.722  0.00  0.00    +0.064 A 
ATOM      9  C   LIG    1       29.401 -21.272   8.390  0.00  0.00    +0.021 A 
ATOM     10  C   LIG    1       28.260 -21.982   7.999  0.00  0.00    +0.024 A 
BRANCH   7  11
ATOM     11  C   LIG    1       29.447 -18.457   5.798  0.00  0.00    +0.419 C 
ATOM     12  F   LIG    1       28.560 -18.193   4.800  0.00  0.00    -0.166 F 
ATOM     13  F   LIG    1       30.644 -18.671   5.182  0.00  0.00    -0.166 F 
ATOM     14  F   LIG    1       29.595 -17.291   6.478  0.00  0.00    -0.166 F 
ENDBRANCH   7  11
BRANCH   8  15
ATOM     15  C   LIG    1       30.998 -19.478   8.197  0.00  0.00    +0.100 C 
ATOM     16  N   LIG    1       31.953 -18.990   8.660  0.00  0.00    -0.191 NA
ENDBRANCH   8  15
ENDBRANCH   2   5
BRANCH   1  18
ATOM     17  C   LIG    1       22.548 -22.541   6.703  0.00  0.00    +0.053 C 
ATOM     18  C   LIG    1       23.937 -23.110   6.434  0.00  0.00    +0.158 C 
BRANCH  18  19
ATOM     19  O   LIG    1       24.115 -22.929   5.002  0.00  0.00    -0.378 OA
ATOM     20  H   LIG    1       25.074 -22.974   4.811  0.00  0.00    +0.211 HD
ENDBRANCH  18  19
BRANCH  18  21
ATOM     21  C   LIG    1       24.002 -24.619   6.647  0.00  0.00    +0.215 C 
BRANCH  21  22
ATOM     22  S   LIG    1       25.267 -25.464   5.741  0.00  0.00    +0.000 S 
ATOM     23  O   LIG    1       26.563 -25.035   6.230  0.00  0.00    -0.169 OA
ATOM     24  O   LIG    1       24.963 -25.404   4.327  0.00  0.00    -0.169 OA
BRANCH  22  25
ATOM     25  C   LIG    1       25.040 -27.150   6.259  0.00  0.00    +0.088 A 
ATOM     26  C   LIG    1       25.661 -27.603   7.428  0.00  0.00    +0.030 A 
ATOM     27  C   LIG    1       25.468 -28.924   7.832  0.00  0.00    +0.040 A 
ATOM     28  C   LIG    1       24.671 -29.769   7.064  0.00  0.00    +0.123 A 
ATOM     29  F   LIG    1       24.489 -31.036   7.457  0.00  0.00    -0.205 F 
ATOM     30  C   LIG    1       24.061 -29.321   5.896  0.00  0.00    +0.040 A 
ATOM     31  C   LIG    1       24.248 -28.003   5.481  0.00  0.00    +0.030 A 
ENDBRANCH  22  25
ENDBRANCH  21  22
ENDBRANCH  18  21
ENDBRANCH   1  18
TORSDOF 8
ENDMDL
MODEL 5
REMARK VINA RESULT:      -8.6      1.638      2.103
REMARK  Name = *****
REMARK                            x       y       z     vdW  Elec       q    Type
REMARK                         _______ _______ _______ _____ _____    ______ ____
ROOT
ATOM      1  C   LIG    1       25.638 -20.789   6.090  0.00  0.00    +0.250 C 
ATOM      2  N   LIG    1       26.907 -20.742   5.516  0.00  0.00    -0.283 N 
ATOM      3  H   LIG    1       27.023 -21.137   4.591  0.00  0.00    +0.155 HD
ATOM      4  O   LIG    1       25.341 -20.351   7.203  0.00  0.00    -0.272 OA
ENDROOT
BRANCH   2   5
ATOM      5  C   LIG    1       28.091 -20.186   6.071  0.00  0.00    +0.034 A 
ATOM      6  C   LIG    1       28.796 -20.926   7.040  0.00  0.00    +0.037 A 
ATOM      7  C   LIG    1       29.967 -20.420   7.674  0.00  0.00    +0.074 A 
ATOM      8  C   LIG    1       30.462 -19.170   7.274  0.00  0.00    +0.064 A 
ATOM      9  C   LIG    1       29.766 -18.443   6.299  0.00  0.00    +0.021 A 
ATOM     10  C   LIG    1       28.591 -18.936   5.721  0.00  0.00    +0.024 A 
BRANCH   7  11
ATOM     11  C   LIG    1       30.594 -21.228   8.789  0.00  0.00    +0.419 C 
ATOM     12  F   LIG    1       31.718 -21.883   8.390  0.00  0.00    -0.166 F 
ATOM     13  F   LIG    1       29.745 -22.193   9.245  0.00  0.00    -0.166 F 
ATOM     14  F   LIG    1       30.951 -20.515   9.887  0.00  0.00    -0.166 F 
ENDBRANCH   7  11
BRANCH   8  15
ATOM     15  C   LIG    1       31.639 -18.553   7.811  0.00  0.00    +0.100 C 
ATOM     16  N   LIG    1       32.557 -18.041   8.320  0.00  0.00    -0.191 NA
ENDBRANCH   8  15
ENDBRANCH   2   5
BRANCH   1  18
ATOM     17  C   LIG    1       23.107 -21.018   5.667  0.00  0.00    +0.053 C 
ATOM     18  C   LIG    1       24.503 -21.450   5.231  0.00  0.00    +0.158 C 
BRANCH  18  19
ATOM     19  O   LIG    1       24.612 -20.950   3.870  0.00  0.00    -0.378 OA
ATOM     20  H   LIG    1       24.951 -20.033   3.913  0.00  0.00    +0.211 HD
ENDBRANCH  18  19
BRANCH  18  21
ATOM     21  C   LIG    1       24.632 -22.964   5.100  0.00  0.00    +0.215 C 
BRANCH  21  22
ATOM     22  S   LIG    1       24.427 -23.880   6.602  0.00  0.00    +0.000 S 
ATOM     23  O   LIG    1       23.017 -23.925   6.937  0.00  0.00    -0.169 OA
ATOM     24  O   LIG    1       25.396 -23.425   7.575  0.00  0.00    -0.169 OA
BRANCH  22  25
ATOM     25  C   LIG    1       24.904 -25.521   6.110  0.00  0.00    +0.088 A 
ATOM     26  C   LIG    1       23.946 -26.540   6.082  0.00  0.00    +0.030 A 
ATOM     27  C   LIG    1       24.327 -27.822   5.685  0.00  0.00    +0.040 A 
ATOM     28  C   LIG    1       25.651 -28.067   5.332  0.00  0.00    +0.123 A 
ATOM     29  F   LIG    1       26.012 -29.298   4.951  0.00  0.00    -0.205 F 
ATOM     30  C   LIG    1       26.607 -27.056   5.368  0.00  0.00    +0.040 A 
ATOM     31  C   LIG    1       26.238 -25.771   5.766  0.00  0.00    +0.030 A 
ENDBRANCH  22  25
ENDBRANCH  21  22
ENDBRANCH  18  21
ENDBRANCH   1  18
TORSDOF 8
ENDMDL
MODEL 6
REMARK VINA RESULT:      -8.6      5.501      9.867
REMARK  Name = *****
REMARK                            x       y       z     vdW  Elec       q    Type
REMARK                         _______ _______ _______ _____ _____    ______ ____
ROOT
ATOM      1  C   LIG    1       28.530 -20.460   7.918  0.00  0.00    +0.250 C 
ATOM      2  N   LIG    1       27.981 -21.043   6.778  0.00  0.00    -0.283 N 
ATOM      3  H   LIG    1       28.606 -21.531   6.149  0.00  0.00    +0.155 HD
ATOM      4  O   LIG    1       27.900 -19.836   8.775  0.00  0.00    -0.272 OA
ENDROOT
BRANCH   2   5
ATOM      5  C   LIG    1       26.618 -21.051   6.376  0.00  0.00    +0.034 A 
ATOM      6  C   LIG    1       26.248 -20.326   5.226  0.00  0.00    +0.037 A 
ATOM      7  C   LIG    1       24.896 -20.251   4.784  0.00  0.00    +0.074 A 
ATOM      8  C   LIG    1       23.916 -20.969   5.485  0.00  0.00    +0.064 A 
ATOM      9  C   LIG    1       24.291 -21.701   6.620  0.00  0.00    +0.021 A 
ATOM     10  C   LIG    1       25.617 -21.726   7.067  0.00  0.00    +0.024 A 
BRANCH   7  11
ATOM     11  C   LIG    1       24.567 -19.353   3.610  0.00  0.00    +0.419 C 
ATOM     12  F   LIG    1       24.303 -20.056   2.475  0.00  0.00    -0.166 F 
ATOM     13  F   LIG    1       25.611 -18.532   3.302  0.00  0.00    -0.166 F 
ATOM     14  F   LIG    1       23.503 -18.531   3.793  0.00  0.00    -0.166 F 
ENDBRANCH   7  11
BRANCH   8  15
ATOM     15  C   LIG    1       22.527 -20.999   5.136  0.00  0.00    +0.100 C 
ATOM     16  N   LIG    1       21.408 -21.095   4.814  0.00  0.00    -0.191 NA
ENDBRANCH   8  15
ENDBRANCH   2   5
BRANCH   1  18
ATOM     17  C   LIG    1       30.481 -22.073   8.392  0.00  0.00    +0.053 C 
ATOM     18  C   LIG    1       30.077 -20.628   8.119  0.00  0.00    +0.158 C 
BRANCH  18  19
ATOM     19  O   LIG    1       30.736 -20.315   6.861  0.00  0.00    -0.378 OA
ATOM     20  H   LIG    1       30.075 -20.407   6.145  0.00  0.00    +0.211 HD
ENDBRANCH  18  19
BRANCH  18  21
ATOM     21  C   LIG    1       30.677 -19.653   9.126  0.00  0.00    +0.215 C 
BRANCH  21  22
ATOM     22  S   LIG    1       31.191 -18.092   8.465  0.00  0.00    +0.000 S 
ATOM     23  O   LIG    1       30.033 -17.404   7.929  0.00  0.00    -0.169 OA
ATOM     24  O   LIG    1       32.370 -18.285   7.648  0.00  0.00    -0.169 OA
BRANCH  22  25
ATOM     25  C   LIG    1       31.698 -17.213   9.925  0.00  0.00    +0.088 A 
ATOM     26  C   LIG    1       31.163 -17.571  11.167  0.00  0.00    +0.030 A 
ATOM     27  C   LIG    1       31.574 -16.882  12.308  0.00  0.00    +0.040 A 
ATOM     28  C   LIG    1       32.500 -15.849  12.192  0.00  0.00    +0.123 A 
ATOM     29  F   LIG    1       32.892 -15.191  13.290  0.00  0.00    -0.205 F 
ATOM     30  C   LIG    1       33.025 -15.486  10.954  0.00  0.00    +0.040 A 
ATOM     31  C   LIG    1       32.619 -16.166   9.807  0.00  0.00    +0.030 A 
ENDBRANCH  22  25
ENDBRANCH  21  22
ENDBRANCH  18  21
ENDBRANCH   1  18
TORSDOF 8
ENDMDL
MODEL 7
REMARK VINA RESULT:      -8.4      2.784      8.517
REMARK  Name = *****
REMARK                            x       y       z     vdW  Elec       q    Type
REMARK                         _______ _______ _______ _____ _____    ______ ____
ROOT
ATOM      1  C   LIG    1       24.348 -24.537   6.394  0.00  0.00    +0.250 C 
ATOM      2  N   LIG    1       25.372 -25.464   6.211  0.00  0.00    -0.283 N 
ATOM      3  H   LIG    1       26.300 -25.110   6.013  0.00  0.00    +0.155 HD
ATOM      4  O   LIG    1       23.172 -24.812   6.641  0.00  0.00    -0.272 OA
ENDROOT
BRANCH   2   5
ATOM      5  C   LIG    1       25.285 -26.881   6.277  0.00  0.00    +0.034 A 
ATOM      6  C   LIG    1       25.543 -27.517   7.507  0.00  0.00    +0.037 A 
ATOM      7  C   LIG    1       25.517 -28.934   7.644  0.00  0.00    +0.074 A 
ATOM      8  C   LIG    1       25.166 -29.713   6.531  0.00  0.00    +0.064 A 
ATOM      9  C   LIG    1       24.895 -29.075   5.313  0.00  0.00    +0.021 A 
ATOM     10  C   LIG    1       24.971 -27.684   5.185  0.00  0.00    +0.024 A 
BRANCH   7  11
ATOM     11  C   LIG    1       25.924 -29.541   8.969  0.00  0.00    +0.419 C 
ATOM     12  F   LIG    1       24.889 -30.163   9.598  0.00  0.00    -0.166 F 
ATOM     13  F   LIG    1       26.366 -28.589   9.840  0.00  0.00    -0.166 F 
ATOM     14  F   LIG    1       26.921 -30.460   8.902  0.00  0.00    -0.166 F 
ENDBRANCH   7  11
BRANCH   8  15
ATOM     15  C   LIG    1       25.080 -31.143   6.536  0.00  0.00    +0.100 C 
ATOM     16  N   LIG    1       24.951 -32.303   6.597  0.00  0.00    -0.191 NA
ENDBRANCH   8  15
ENDBRANCH   2   5
BRANCH   1  18
ATOM     17  C   LIG    1       24.517 -22.456   4.885  0.00  0.00    +0.053 C 
ATOM     18  C   LIG    1       24.742 -23.023   6.283  0.00  0.00    +0.158 C 
BRANCH  18  19
ATOM     19  O   LIG    1       23.835 -22.253   7.119  0.00  0.00    -0.378 OA
ATOM     20  H   LIG    1       23.798 -22.683   7.997  0.00  0.00    +0.211 HD
ENDBRANCH  18  19
BRANCH  18  21
ATOM     21  C   LIG    1       26.133 -22.706   6.825  0.00  0.00    +0.215 C 
BRANCH  21  22
ATOM     22  S   LIG    1       26.243 -21.268   7.852  0.00  0.00    +0.000 S 
ATOM     23  O   LIG    1       26.173 -21.675   9.241  0.00  0.00    -0.169 OA
ATOM     24  O   LIG    1       25.350 -20.248   7.342  0.00  0.00    -0.169 OA
BRANCH  22  25
ATOM     25  C   LIG    1       27.905 -20.714   7.547  0.00  0.00    +0.088 A 
ATOM     26  C   LIG    1       28.144 -19.763   6.550  0.00  0.00    +0.030 A 
ATOM     27  C   LIG    1       29.450 -19.327   6.325  0.00  0.00    +0.040 A 
ATOM     28  C   LIG    1       30.491 -19.850   7.089  0.00  0.00    +0.123 A 
ATOM     29  F   LIG    1       31.742 -19.428   6.869  0.00  0.00    -0.205 F 
ATOM     30  C   LIG    1       30.254 -20.803   8.075  0.00  0.00    +0.040 A 
ATOM     31  C   LIG    1       28.953 -21.248   8.306  0.00  0.00    +0.030 A 
ENDBRANCH  22  25
ENDBRANCH  21  22
ENDBRANCH  18  21
ENDBRANCH   1  18
TORSDOF 8
ENDMDL
MODEL 8
REMARK VINA RESULT:      -8.3      4.818      9.684
REMARK  Name = *****
REMARK                            x       y       z     vdW  Elec       q    Type
REMARK                         _______ _______ _______ _____ _____    ______ ____
ROOT
ATOM      1  C   LIG    1       27.894 -20.244   7.626  0.00  0.00    +0.250 C 
ATOM      2  N   LIG    1       27.418 -20.482   6.339  0.00  0.00    -0.283 N 
ATOM      3  H   LIG    1       28.097 -20.602   5.598  0.00  0.00    +0.155 HD
ATOM      4  O   LIG    1       27.194 -20.079   8.627  0.00  0.00    -0.272 OA
ENDROOT
BRANCH   2   5
ATOM      5  C   LIG    1       26.064 -20.592   5.919  0.00  0.00    +0.034 A 
ATOM      6  C   LIG    1       25.214 -21.480   6.605  0.00  0.00    +0.037 A 
ATOM      7  C   LIG    1       23.858 -21.678   6.219  0.00  0.00    +0.074 A 
ATOM      8  C   LIG    1       23.342 -20.919   5.158  0.00  0.00    +0.064 A 
ATOM      9  C   LIG    1       24.187 -20.025   4.487  0.00  0.00    +0.021 A 
ATOM     10  C   LIG    1       25.530 -19.878   4.851  0.00  0.00    +0.024 A 
BRANCH   7  11
ATOM     11  C   LIG    1       23.048 -22.738   6.933  0.00  0.00    +0.419 C 
ATOM     12  F   LIG    1       22.473 -22.274   8.076  0.00  0.00    -0.166 F 
ATOM     13  F   LIG    1       23.828 -23.791   7.312  0.00  0.00    -0.166 F 
ATOM     14  F   LIG    1       22.039 -23.281   6.206  0.00  0.00    -0.166 F 
ENDBRANCH   7  11
BRANCH   8  15
ATOM     15  C   LIG    1       21.993 -21.001   4.681  0.00  0.00    +0.100 C 
ATOM     16  N   LIG    1       20.879 -20.995   4.328  0.00  0.00    -0.191 NA
ENDBRANCH   8  15
ENDBRANCH   2   5
BRANCH   1  18
ATOM     17  C   LIG    1       30.028 -21.504   8.328  0.00  0.00    +0.053 C 
ATOM     18  C   LIG    1       29.452 -20.194   7.801  0.00  0.00    +0.158 C 
BRANCH  18  19
ATOM     19  O   LIG    1       30.054 -20.056   6.485  0.00  0.00    -0.378 OA
ATOM     20  H   LIG    1       31.013 -19.901   6.607  0.00  0.00    +0.211 HD
ENDBRANCH  18  19
BRANCH  18  21
ATOM     21  C   LIG    1       29.946 -18.982   8.584  0.00  0.00    +0.215 C 
BRANCH  21  22
ATOM     22  S   LIG    1       31.705 -18.830   8.727  0.00  0.00    +0.000 S 
ATOM     23  O   LIG    1       32.213 -18.138   7.559  0.00  0.00    -0.169 OA
ATOM     24  O   LIG    1       32.263 -20.105   9.123  0.00  0.00    -0.169 OA
BRANCH  22  25
ATOM     25  C   LIG    1       31.876 -17.726  10.111  0.00  0.00    +0.088 A 
ATOM     26  C   LIG    1       31.007 -17.845  11.201  0.00  0.00    +0.030 A 
ATOM     27  C   LIG    1       31.156 -16.981  12.286  0.00  0.00    +0.040 A 
ATOM     28  C   LIG    1       32.156 -16.013  12.263  0.00  0.00    +0.123 A 
ATOM     29  F   LIG    1       32.295 -15.187  13.307  0.00  0.00    -0.205 F 
ATOM     30  C   LIG    1       33.014 -15.888  11.174  0.00  0.00    +0.040 A 
ATOM     31  C   LIG    1       32.874 -16.745  10.083  0.00  0.00    +0.030 A 
ENDBRANCH  22  25
ENDBRANCH  21  22
ENDBRANCH  18  21
ENDBRANCH   1  18
TORSDOF 8
ENDMDL
MODEL 9
REMARK VINA RESULT:      -8.0      4.700      7.940
REMARK  Name = *****
REMARK                            x       y       z     vdW  Elec       q    Type
REMARK                         _______ _______ _______ _____ _____    ______ ____
ROOT
ATOM      1  C   LIG    1       24.731 -29.184   7.463  0.00  0.00    +0.250 C 
ATOM      2  N   LIG    1       25.929 -28.783   8.051  0.00  0.00    -0.283 N 
ATOM      3  H   LIG    1       26.537 -28.174   7.517  0.00  0.00    +0.155 HD
ATOM      4  O   LIG    1       23.891 -29.919   7.985  0.00  0.00    -0.272 OA
ENDROOT
BRANCH   2   5
ATOM      5  C   LIG    1       26.418 -29.118   9.343  0.00  0.00    +0.034 A 
ATOM      6  C   LIG    1       26.276 -28.180  10.383  0.00  0.00    +0.037 A 
ATOM      7  C   LIG    1       26.778 -28.424  11.694  0.00  0.00    +0.074 A 
ATOM      8  C   LIG    1       27.379 -29.662  11.965  0.00  0.00    +0.064 A 
ATOM      9  C   LIG    1       27.505 -30.598  10.931  0.00  0.00    +0.021 A 
ATOM     10  C   LIG    1       27.048 -30.323   9.638  0.00  0.00    +0.024 A 
BRANCH   7  11
ATOM     11  C   LIG    1       26.691 -27.316  12.720  0.00  0.00    +0.419 C 
ATOM     12  F   LIG    1       25.563 -27.394  13.478  0.00  0.00    -0.166 F 
ATOM     13  F   LIG    1       26.653 -26.088  12.128  0.00  0.00    -0.166 F 
ATOM     14  F   LIG    1       27.723 -27.260  13.599  0.00  0.00    -0.166 F 
ENDBRANCH   7  11
BRANCH   8  15
ATOM     15  C   LIG    1       27.905 -30.046  13.242  0.00  0.00    +0.100 C 
ATOM     16  N   LIG    1       28.407 -30.370  14.246  0.00  0.00    -0.191 NA
ENDBRANCH   8  15
ENDBRANCH   2   5
BRANCH   1  18
ATOM     17  C   LIG    1       25.524 -29.014   5.018  0.00  0.00    +0.053 C 
ATOM     18  C   LIG    1       24.439 -28.639   6.021  0.00  0.00    +0.158 C 
BRANCH  18  19
ATOM     19  O   LIG    1       23.251 -29.307   5.513  0.00  0.00    -0.378 OA
ATOM     20  H   LIG    1       23.518 -29.848   4.742  0.00  0.00    +0.211 HD
ENDBRANCH  18  19
BRANCH  18  21
ATOM     21  C   LIG    1       24.095 -27.153   5.983  0.00  0.00    +0.215 C 
BRANCH  21  22
ATOM     22  S   LIG    1       25.466 -26.058   5.748  0.00  0.00    +0.000 S 
ATOM     23  O   LIG    1       25.705 -25.901   4.326  0.00  0.00    -0.169 OA
ATOM     24  O   LIG    1       26.544 -26.446   6.633  0.00  0.00    -0.169 OA
BRANCH  22  25
ATOM     25  C   LIG    1       24.821 -24.513   6.347  0.00  0.00    +0.088 A 
ATOM     26  C   LIG    1       25.704 -23.491   6.712  0.00  0.00    +0.030 A 
ATOM     27  C   LIG    1       25.189 -22.279   7.172  0.00  0.00    +0.040 A 
ATOM     28  C   LIG    1       23.810 -22.109   7.267  0.00  0.00    +0.123 A 
ATOM     29  F   LIG    1       23.321 -20.944   7.708  0.00  0.00    -0.205 F 
ATOM     30  C   LIG    1       22.931 -23.129   6.913  0.00  0.00    +0.040 A 
ATOM     31  C   LIG    1       23.436 -24.346   6.454  0.00  0.00    +0.030 A 
ENDBRANCH  22  25
ENDBRANCH  21  22
ENDBRANCH  18  21
ENDBRANCH   1  18
TORSDOF 8
ENDMDL
