MODEL 1
REMARK VINA RESULT:      -4.2      0.000      0.000
REMARK  Name = *****
REMARK                            x       y       z     vdW  Elec       q    Type
REMARK                         _______ _______ _______ _____ _____    ______ ____
ROOT
ATOM      1  C   LIG    1       25.087 -20.135   4.629  0.00  0.00    +0.027 A 
ATOM      2  C   LIG    1       24.416 -19.258   3.781  0.00  0.00    +0.042 A 
ATOM      3  C   LIG    1       23.078 -18.989   4.021  0.00  0.00    +0.112 A 
ATOM      4  N   LIG    1       22.381 -19.503   5.056  0.00  0.00    -0.263 NA
ATOM      5  C   LIG    1       23.068 -20.299   5.903  0.00  0.00    +0.112 A 
ATOM      6  C   LIG    1       24.407 -20.621   5.744  0.00  0.00    +0.042 A 
ENDROOT
BRANCH   1   7
ATOM      7  N   LIG    1       26.467 -20.335   4.497  0.00  0.00    -0.358 N 
ATOM      8  H   LIG    1       26.814 -21.150   4.993  0.00  0.00    +0.142 HD
ATOM      9  H   LIG    1       27.024 -19.507   4.688  0.00  0.00    +0.142 HD
ENDBRANCH   1   7
TORSDOF 1
ENDMDL
MODEL 2
REMARK VINA RESULT:      -4.1      0.077      1.771
REMARK  Name = *****
REMARK                            x       y       z     vdW  Elec       q    Type
REMARK                         _______ _______ _______ _____ _____    ______ ____
ROOT
ATOM      1  C   LIG    1       25.116 -20.006   4.723  0.00  0.00    +0.027 A 
ATOM      2  C   LIG    1       24.428 -20.608   5.772  0.00  0.00    +0.042 A 
ATOM      3  C   LIG    1       23.077 -20.340   5.927  0.00  0.00    +0.112 A 
ATOM      4  N   LIG    1       22.368 -19.548   5.098  0.00  0.00    -0.263 NA
ATOM      5  C   LIG    1       23.040 -19.026   4.050  0.00  0.00    +0.112 A 
ATOM      6  C   LIG    1       24.389 -19.242   3.813  0.00  0.00    +0.042 A 
ENDROOT
BRANCH   1   7
ATOM      7  N   LIG    1       26.447 -20.349   4.457  0.00  0.00    -0.358 N 
ATOM      8  H   LIG    1       27.016 -19.571   4.136  0.00  0.00    +0.142 HD
ATOM      9  H   LIG    1       26.552 -21.168   3.865  0.00  0.00    +0.142 HD
ENDBRANCH   1   7
TORSDOF 1
ENDMDL
MODEL 3
REMARK VINA RESULT:      -4.0      6.788      7.004
REMARK  Name = *****
REMARK                            x       y       z     vdW  Elec       q    Type
REMARK                         _______ _______ _______ _____ _____    ______ ____
ROOT
ATOM      1  C   LIG    1       26.632 -13.658   4.792  0.00  0.00    +0.027 A 
ATOM      2  C   LIG    1       27.614 -13.978   3.860  0.00  0.00    +0.042 A 
ATOM      3  C   LIG    1       27.252 -14.120   2.529  0.00  0.00    +0.112 A 
ATOM      4  N   LIG    1       25.999 -13.932   2.067  0.00  0.00    -0.263 NA
ATOM      5  C   LIG    1       25.075 -13.557   2.978  0.00  0.00    +0.112 A 
ATOM      6  C   LIG    1       25.346 -13.389   4.327  0.00  0.00    +0.042 A 
ENDROOT
BRANCH   1   7
ATOM      7  N   LIG    1       26.977 -13.383   6.121  0.00  0.00    -0.358 N 
ATOM      8  H   LIG    1       27.244 -14.204   6.655  0.00  0.00    +0.142 HD
ATOM      9  H   LIG    1       26.297 -12.811   6.615  0.00  0.00    +0.142 HD
ENDBRANCH   1   7
TORSDOF 1
ENDMDL
MODEL 4
REMARK VINA RESULT:      -4.0      6.772      7.016
REMARK  Name = *****
REMARK                            x       y       z     vdW  Elec       q    Type
REMARK                         _______ _______ _______ _____ _____    ______ ____
ROOT
ATOM      1  C   LIG    1       26.679 -13.513   4.810  0.00  0.00    +0.027 A 
ATOM      2  C   LIG    1       25.366 -13.401   4.361  0.00  0.00    +0.042 A 
ATOM      3  C   LIG    1       25.098 -13.619   3.018  0.00  0.00    +0.112 A 
ATOM      4  N   LIG    1       26.033 -13.969   2.112  0.00  0.00    -0.263 NA
ATOM      5  C   LIG    1       27.288 -14.136   2.582  0.00  0.00    +0.112 A 
ATOM      6  C   LIG    1       27.648 -13.943   3.906  0.00  0.00    +0.042 A 
ENDROOT
BRANCH   1   7
ATOM      7  N   LIG    1       26.972 -13.425   6.176  0.00  0.00    -0.358 N 
ATOM      8  H   LIG    1       26.184 -13.138   6.749  0.00  0.00    +0.142 HD
ATOM      9  H   LIG    1       27.809 -12.890   6.385  0.00  0.00    +0.142 HD
ENDBRANCH   1   7
TORSDOF 1
ENDMDL
MODEL 5
REMARK VINA RESULT:      -3.9      1.094      3.105
REMARK  Name = *****
REMARK                            x       y       z     vdW  Elec       q    Type
REMARK                         _______ _______ _______ _____ _____    ______ ____
ROOT
ATOM      1  C   LIG    1       22.863 -19.208   4.520  0.00  0.00    +0.027 A 
ATOM      2  C   LIG    1       22.753 -20.129   5.557  0.00  0.00    +0.042 A 
ATOM      3  C   LIG    1       23.711 -21.124   5.672  0.00  0.00    +0.112 A 
ATOM      4  N   LIG    1       24.775 -21.241   4.852  0.00  0.00    -0.263 NA
ATOM      5  C   LIG    1       24.898 -20.298   3.893  0.00  0.00    +0.112 A 
ATOM      6  C   LIG    1       23.992 -19.266   3.705  0.00  0.00    +0.042 A 
ENDROOT
BRANCH   1   7
ATOM      7  N   LIG    1       21.990 -18.115   4.444  0.00  0.00    -0.358 N 
ATOM      8  H   LIG    1       21.021 -18.373   4.279  0.00  0.00    +0.142 HD
ATOM      9  H   LIG    1       22.301 -17.381   3.815  0.00  0.00    +0.142 HD
ENDBRANCH   1   7
TORSDOF 1
ENDMDL
MODEL 6
REMARK VINA RESULT:      -3.9      6.751      7.341
REMARK  Name = *****
REMARK                            x       y       z     vdW  Elec       q    Type
REMARK                         _______ _______ _______ _____ _____    ______ ____
ROOT
ATOM      1  C   LIG    1       25.028 -13.407   3.149  0.00  0.00    +0.027 A 
ATOM      2  C   LIG    1       25.212 -13.273   4.522  0.00  0.00    +0.042 A 
ATOM      3  C   LIG    1       26.455 -13.562   5.062  0.00  0.00    +0.112 A 
ATOM      4  N   LIG    1       27.524 -13.938   4.330  0.00  0.00    -0.263 NA
ATOM      5  C   LIG    1       27.341 -13.998   2.994  0.00  0.00    +0.112 A 
ATOM      6  C   LIG    1       26.136 -13.725   2.366  0.00  0.00    +0.042 A 
ENDROOT
BRANCH   1   7
ATOM      7  N   LIG    1       23.828 -13.005   2.550  0.00  0.00    -0.358 N 
ATOM      8  H   LIG    1       23.846 -12.056   2.189  0.00  0.00    +0.142 HD
ATOM      9  H   LIG    1       23.004 -13.181   3.118  0.00  0.00    +0.142 HD
ENDBRANCH   1   7
TORSDOF 1
ENDMDL
MODEL 7
REMARK VINA RESULT:      -3.9      1.273      2.166
REMARK  Name = *****
REMARK                            x       y       z     vdW  Elec       q    Type
REMARK                         _______ _______ _______ _____ _____    ______ ____
ROOT
ATOM      1  C   LIG    1       25.112 -20.251   4.940  0.00  0.00    +0.027 A 
ATOM      2  C   LIG    1       25.429 -20.822   6.169  0.00  0.00    +0.042 A 
ATOM      3  C   LIG    1       24.405 -21.100   7.061  0.00  0.00    +0.112 A 
ATOM      4  N   LIG    1       23.100 -20.882   6.799  0.00  0.00    -0.263 NA
ATOM      5  C   LIG    1       22.810 -20.389   5.577  0.00  0.00    +0.112 A 
ATOM      6  C   LIG    1       23.766 -20.084   4.621  0.00  0.00    +0.042 A 
ENDROOT
BRANCH   1   7
ATOM      7  N   LIG    1       26.100 -20.072   3.964  0.00  0.00    -0.358 N 
ATOM      8  H   LIG    1       26.518 -19.147   3.968  0.00  0.00    +0.142 HD
ATOM      9  H   LIG    1       25.816 -20.357   3.031  0.00  0.00    +0.142 HD
ENDBRANCH   1   7
TORSDOF 1
ENDMDL
MODEL 8
REMARK VINA RESULT:      -3.9      6.765      7.214
REMARK  Name = *****
REMARK                            x       y       z     vdW  Elec       q    Type
REMARK                         _______ _______ _______ _____ _____    ______ ____
ROOT
ATOM      1  C   LIG    1       25.068 -13.257   3.139  0.00  0.00    +0.027 A 
ATOM      2  C   LIG    1       26.129 -13.712   2.361  0.00  0.00    +0.042 A 
ATOM      3  C   LIG    1       27.324 -14.034   2.984  0.00  0.00    +0.112 A 
ATOM      4  N   LIG    1       27.520 -13.967   4.316  0.00  0.00    -0.263 NA
ATOM      5  C   LIG    1       26.458 -13.585   5.058  0.00  0.00    +0.112 A 
ATOM      6  C   LIG    1       25.225 -13.247   4.523  0.00  0.00    +0.042 A 
ENDROOT
BRANCH   1   7
ATOM      7  N   LIG    1       23.808 -13.041   2.566  0.00  0.00    -0.358 N 
ATOM      8  H   LIG    1       23.097 -12.757   3.233  0.00  0.00    +0.142 HD
ATOM      9  H   LIG    1       23.491 -13.800   1.970  0.00  0.00    +0.142 HD
ENDBRANCH   1   7
TORSDOF 1
ENDMDL
MODEL 9
REMARK VINA RESULT:      -3.9      1.486      2.423
REMARK  Name = *****
REMARK                            x       y       z     vdW  Elec       q    Type
REMARK                         _______ _______ _______ _____ _____    ______ ____
ROOT
ATOM      1  C   LIG    1       23.597 -20.522   5.969  0.00  0.00    +0.027 A 
ATOM      2  C   LIG    1       22.649 -19.729   5.329  0.00  0.00    +0.042 A 
ATOM      3  C   LIG    1       23.017 -19.043   4.182  0.00  0.00    +0.112 A 
ATOM      4  N   LIG    1       24.240 -19.119   3.619  0.00  0.00    -0.263 NA
ATOM      5  C   LIG    1       25.124 -19.945   4.220  0.00  0.00    +0.112 A 
ATOM      6  C   LIG    1       24.844 -20.672   5.366  0.00  0.00    +0.042 A 
ENDROOT
BRANCH   1   7
ATOM      7  N   LIG    1       23.232 -21.328   7.054  0.00  0.00    -0.358 N 
ATOM      8  H   LIG    1       22.846 -22.228   6.786  0.00  0.00    +0.142 HD
ATOM      9  H   LIG    1       22.655 -20.856   7.744  0.00  0.00    +0.142 HD
ENDBRANCH   1   7
TORSDOF 1
ENDMDL
