MODEL 1
REMARK VINA RESULT:      -6.0      0.000      0.000
REMARK  Name = *****
REMARK                            x       y       z     vdW  Elec       q    Type
REMARK                         _______ _______ _______ _____ _____    ______ ____
ROOT
ATOM      1  C   LIG    1       25.694 -19.336   4.224  0.00  0.00    +0.095 C 
ENDROOT
BRANCH   1   2
ATOM      2  C   LIG    1       26.809 -19.698   5.230  0.00  0.00    -0.016 A 
ATOM      3  C   LIG    1       28.049 -19.040   5.188  0.00  0.00    +0.006 A 
ATOM      4  C   LIG    1       29.099 -19.380   6.053  0.00  0.00    +0.000 A 
ATOM      5  C   LIG    1       28.932 -20.406   6.986  0.00  0.00    +0.000 A 
ATOM      6  C   LIG    1       27.719 -21.061   7.062  0.00  0.00    +0.000 A 
ATOM      7  C   LIG    1       26.666 -20.705   6.210  0.00  0.00    +0.006 A 
ENDBRANCH   1   2
BRANCH   1   8
ATOM      8  C   LIG    1       24.266 -19.139   4.865  0.00  0.00    +0.025 C 
ATOM      9  C   LIG    1       23.126 -18.946   3.838  0.00  0.00    +0.006 C 
ATOM     10  C   LIG    1       21.908 -19.643   4.431  0.00  0.00    +0.000 C 
ATOM     11  C   LIG    1       22.513 -20.870   5.076  0.00  0.00    +0.000 C 
ATOM     12  C   LIG    1       23.757 -20.317   5.748  0.00  0.00    +0.006 C 
ENDBRANCH   1   8
BRANCH   1  13
ATOM     13  O   LIG    1       25.585 -20.446   3.307  0.00  0.00    -0.384 OA
ATOM     14  H   LIG    1       24.647 -20.553   3.078  0.00  0.00    +0.211 HD
ENDBRANCH   1  13
BRANCH   1  15
ATOM     15  C   LIG    1       26.100 -18.134   3.303  0.00  0.00    +0.055 C 
BRANCH  15  16
ATOM     16  C   LIG    1       25.525 -16.764   3.687  0.00  0.00    +0.087 C 
BRANCH  16  17
ATOM     17  N   LIG    1       26.152 -15.618   2.987  0.00  0.00    -0.302 NA
ATOM     18  C   LIG    1       25.266 -14.465   2.754  0.00  0.00    +0.084 C 
ATOM     19  C   LIG    1       24.865 -13.737   4.038  0.00  0.00    +0.015 C 
ATOM     20  C   LIG    1       26.095 -13.296   4.827  0.00  0.00    +0.002 C 
ATOM     21  C   LIG    1       27.080 -14.447   5.013  0.00  0.00    +0.015 C 
ATOM     22  C   LIG    1       27.368 -15.165   3.690  0.00  0.00    +0.084 C 
ENDBRANCH  16  17
ENDBRANCH  15  16
ENDBRANCH   1  15
TORSDOF 6
ENDMDL
MODEL 2
REMARK VINA RESULT:      -5.9      0.882      1.551
REMARK  Name = *****
REMARK                            x       y       z     vdW  Elec       q    Type
REMARK                         _______ _______ _______ _____ _____    ______ ____
ROOT
ATOM      1  C   LIG    1       25.330 -19.011   3.680  0.00  0.00    +0.095 C 
ENDROOT
BRANCH   1   2
ATOM      2  C   LIG    1       26.227 -19.522   4.829  0.00  0.00    -0.016 A 
ATOM      3  C   LIG    1       25.663 -20.169   5.940  0.00  0.00    +0.006 A 
ATOM      4  C   LIG    1       26.442 -20.598   7.024  0.00  0.00    +0.000 A 
ATOM      5  C   LIG    1       27.821 -20.380   7.022  0.00  0.00    +0.000 A 
ATOM      6  C   LIG    1       28.408 -19.762   5.936  0.00  0.00    +0.000 A 
ATOM      7  C   LIG    1       27.629 -19.351   4.847  0.00  0.00    +0.006 A 
ENDBRANCH   1   2
BRANCH   1   8
ATOM      8  C   LIG    1       23.903 -19.679   3.609  0.00  0.00    +0.025 C 
ATOM      9  C   LIG    1       23.802 -21.049   4.320  0.00  0.00    +0.006 C 
ATOM     10  C   LIG    1       22.407 -21.100   4.930  0.00  0.00    +0.000 C 
ATOM     11  C   LIG    1       22.203 -19.679   5.404  0.00  0.00    +0.000 C 
ATOM     12  C   LIG    1       22.743 -18.858   4.246  0.00  0.00    +0.006 C 
ENDBRANCH   1   8
BRANCH   1  13
ATOM     13  O   LIG    1       26.003 -19.345   2.447  0.00  0.00    -0.384 OA
ATOM     14  H   LIG    1       26.948 -19.460   2.643  0.00  0.00    +0.211 HD
ENDBRANCH   1  13
BRANCH   1  15
ATOM     15  C   LIG    1       25.252 -17.445   3.647  0.00  0.00    +0.055 C 
BRANCH  15  16
ATOM     16  C   LIG    1       26.591 -16.705   3.521  0.00  0.00    +0.087 C 
BRANCH  16  17
ATOM     17  N   LIG    1       26.497 -15.376   2.871  0.00  0.00    -0.302 NA
ATOM     18  C   LIG    1       25.201 -14.693   3.023  0.00  0.00    +0.084 C 
ATOM     19  C   LIG    1       24.912 -14.250   4.458  0.00  0.00    +0.015 C 
ATOM     20  C   LIG    1       26.032 -13.363   4.995  0.00  0.00    +0.002 C 
ATOM     21  C   LIG    1       27.401 -14.000   4.776  0.00  0.00    +0.015 C 
ATOM     22  C   LIG    1       27.576 -14.481   3.331  0.00  0.00    +0.084 C 
ENDBRANCH  16  17
ENDBRANCH  15  16
ENDBRANCH   1  15
TORSDOF 6
ENDMDL
MODEL 3
REMARK VINA RESULT:      -4.2      2.325      6.558
REMARK  Name = *****
REMARK                            x       y       z     vdW  Elec       q    Type
REMARK                         _______ _______ _______ _____ _____    ______ ____
ROOT
ATOM      1  C   LIG    1       25.290 -14.641   3.969  0.00  0.00    +0.095 C 
ENDROOT
BRANCH   1   2
ATOM      2  C   LIG    1       26.661 -13.948   4.130  0.00  0.00    -0.016 A 
ATOM      3  C   LIG    1       27.005 -13.318   5.337  0.00  0.00    +0.006 A 
ATOM      4  C   LIG    1       28.219 -12.636   5.498  0.00  0.00    +0.000 A 
ATOM      5  C   LIG    1       29.125 -12.562   4.438  0.00  0.00    +0.000 A 
ATOM      6  C   LIG    1       28.823 -13.185   3.244  0.00  0.00    +0.000 A 
ATOM      7  C   LIG    1       27.618 -13.882   3.092  0.00  0.00    +0.006 A 
ENDBRANCH   1   2
BRANCH   1   8
ATOM      8  C   LIG    1       24.199 -13.779   3.225  0.00  0.00    +0.025 C 
ATOM      9  C   LIG    1       23.781 -12.491   3.972  0.00  0.00    +0.006 C 
ATOM     10  C   LIG    1       23.527 -11.447   2.893  0.00  0.00    +0.000 C 
ATOM     11  C   LIG    1       24.615 -11.742   1.886  0.00  0.00    +0.000 C 
ATOM     12  C   LIG    1       24.601 -13.259   1.812  0.00  0.00    +0.006 C 
ENDBRANCH   1   8
BRANCH   1  13
ATOM     13  O   LIG    1       24.787 -14.882   5.301  0.00  0.00    -0.384 OA
ATOM     14  H   LIG    1       25.204 -14.241   5.899  0.00  0.00    +0.211 HD
ENDBRANCH   1  13
BRANCH   1  15
ATOM     15  C   LIG    1       25.426 -16.079   3.358  0.00  0.00    +0.055 C 
BRANCH  15  16
ATOM     16  C   LIG    1       24.667 -17.196   4.086  0.00  0.00    +0.087 C 
BRANCH  16  17
ATOM     17  N   LIG    1       24.621 -18.485   3.354  0.00  0.00    -0.302 NA
ATOM     18  C   LIG    1       25.658 -19.459   3.735  0.00  0.00    +0.084 C 
ATOM     19  C   LIG    1       25.482 -20.011   5.150  0.00  0.00    +0.015 C 
ATOM     20  C   LIG    1       24.098 -20.629   5.332  0.00  0.00    +0.002 C 
ATOM     21  C   LIG    1       22.999 -19.678   4.864  0.00  0.00    +0.015 C 
ATOM     22  C   LIG    1       23.293 -19.116   3.469  0.00  0.00    +0.084 C 
ENDBRANCH  16  17
ENDBRANCH  15  16
ENDBRANCH   1  15
TORSDOF 6
ENDMDL
MODEL 4
REMARK VINA RESULT:      -3.3      2.348      7.149
REMARK  Name = *****
REMARK                            x       y       z     vdW  Elec       q    Type
REMARK                         _______ _______ _______ _____ _____    ______ ____
ROOT
ATOM      1  C   LIG    1       26.038 -14.981   3.358  0.00  0.00    +0.095 C 
ENDROOT
BRANCH   1   2
ATOM      2  C   LIG    1       25.098 -13.764   3.214  0.00  0.00    -0.016 A 
ATOM      3  C   LIG    1       25.056 -13.032   2.016  0.00  0.00    +0.006 A 
ATOM      4  C   LIG    1       24.254 -11.892   1.871  0.00  0.00    +0.000 A 
ATOM      5  C   LIG    1       23.470 -11.448   2.939  0.00  0.00    +0.000 A 
ATOM      6  C   LIG    1       23.477 -12.156   4.124  0.00  0.00    +0.000 A 
ATOM      7  C   LIG    1       24.265 -13.305   4.259  0.00  0.00    +0.006 A 
ENDBRANCH   1   2
BRANCH   1   8
ATOM      8  C   LIG    1       27.398 -14.681   4.098  0.00  0.00    +0.025 C 
ATOM      9  C   LIG    1       28.385 -13.804   3.293  0.00  0.00    +0.006 C 
ATOM     10  C   LIG    1       29.090 -12.923   4.316  0.00  0.00    +0.000 C 
ATOM     11  C   LIG    1       27.979 -12.592   5.287  0.00  0.00    +0.000 C 
ATOM     12  C   LIG    1       27.272 -13.926   5.455  0.00  0.00    +0.006 C 
ENDBRANCH   1   8
BRANCH   1  13
ATOM     13  O   LIG    1       26.381 -15.402   2.020  0.00  0.00    -0.384 OA
ATOM     14  H   LIG    1       26.514 -16.364   2.034  0.00  0.00    +0.211 HD
ENDBRANCH   1  13
BRANCH   1  15
ATOM     15  C   LIG    1       25.299 -16.226   3.959  0.00  0.00    +0.055 C 
BRANCH  15  16
ATOM     16  C   LIG    1       25.962 -17.589   3.713  0.00  0.00    +0.087 C 
BRANCH  16  17
ATOM     17  N   LIG    1       25.080 -18.592   3.069  0.00  0.00    -0.302 NA
ATOM     18  C   LIG    1       25.445 -19.997   3.315  0.00  0.00    +0.084 C 
ATOM     19  C   LIG    1       25.240 -20.433   4.766  0.00  0.00    +0.015 C 
ATOM     20  C   LIG    1       23.804 -20.183   5.217  0.00  0.00    +0.002 C 
ATOM     21  C   LIG    1       23.359 -18.758   4.899  0.00  0.00    +0.015 C 
ATOM     22  C   LIG    1       23.669 -18.381   3.446  0.00  0.00    +0.084 C 
ENDBRANCH  16  17
ENDBRANCH  15  16
ENDBRANCH   1  15
TORSDOF 6
ENDMDL
