MODEL 1
REMARK VINA RESULT:      -4.6      0.000      0.000
REMARK  Name = *****
REMARK                            x       y       z     vdW  Elec       q    Type
REMARK                         _______ _______ _______ _____ _____    ______ ____
ROOT
ATOM      1  C   LIG    1       24.759 -28.345  12.690  0.00  0.00    +0.061 A 
ATOM      2  C   LIG    1       25.549 -29.040  11.764  0.00  0.00    +0.049 A 
ATOM      3  I   LIG    1       27.637 -29.267  12.176  0.00  0.00    -0.041 I 
ATOM      4  C   LIG    1       24.956 -29.808  10.751  0.00  0.00    +0.066 A 
ATOM      5  C   LIG    1       23.640 -30.292  10.991  0.00  0.00    +0.042 A 
ATOM      6  I   LIG    1       23.057 -32.080   9.962  0.00  0.00    -0.042 I 
ATOM      7  C   LIG    1       22.851 -29.730  12.025  0.00  0.00    +0.087 A 
ATOM      8  C   LIG    1       23.374 -28.603  12.694  0.00  0.00    +0.051 A 
ATOM      9  I   LIG    1       22.051 -27.031  13.308  0.00  0.00    -0.041 I 
ENDROOT
BRANCH   1  12
ATOM     10  C   LIG    1       26.227 -25.766  15.046  0.00  0.00    +0.109 C 
ATOM     11  C   LIG    1       25.671 -27.117  14.638  0.00  0.00    +0.214 C 
ATOM     12  N   LIG    1       25.286 -27.181  13.309  0.00  0.00    -0.284 N 
ATOM     13  H   LIG    1       25.666 -26.480  12.684  0.00  0.00    +0.155 HD
ATOM     14  O   LIG    1       25.553 -28.038  15.440  0.00  0.00    -0.276 OA
ENDBRANCH   1  12
BRANCH   4  15
ATOM     15  C   LIG    1       25.466 -29.630   9.317  0.00  0.00    +0.246 C 
ATOM     16  N   LIG    1       24.688 -28.898   8.423  0.00  0.00    -0.309 N 
ATOM     17  H   LIG    1       23.795 -28.547   8.736  0.00  0.00    +0.149 HD
ATOM     18  O   LIG    1       26.446 -30.248   8.920  0.00  0.00    -0.270 OA
BRANCH  16  19
ATOM     19  C   LIG    1       24.917 -28.924   6.974  0.00  0.00    +0.132 C 
BRANCH  19  20
ATOM     20  C   LIG    1       24.160 -30.049   6.248  0.00  0.00    +0.174 C 
BRANCH  20  21
ATOM     21  O   LIG    1       23.149 -29.549   5.380  0.00  0.00    -0.394 OA
ATOM     22  H   LIG    1       23.581 -29.027   4.684  0.00  0.00    +0.209 HD
ENDBRANCH  20  21
ENDBRANCH  19  20
ENDBRANCH  16  19
ENDBRANCH   4  15
BRANCH   7  23
ATOM     23  C   LIG    1       21.492 -30.279  12.399  0.00  0.00    +0.339 C 
ATOM     24  O   LIG    1       21.264 -30.971  13.354  0.00  0.00    -0.245 OA
BRANCH  23  25
ATOM     25  O   LIG    1       20.491 -29.848  11.580  0.00  0.00    -0.477 OA
ATOM     26  H   LIG    1       20.720 -29.345  10.779  0.00  0.00    +0.295 HD
ENDBRANCH  23  25
ENDBRANCH   7  23
TORSDOF 7
ENDMDL
MODEL 2
REMARK VINA RESULT:      -4.4      3.334      5.790
REMARK  Name = *****
REMARK                            x       y       z     vdW  Elec       q    Type
REMARK                         _______ _______ _______ _____ _____    ______ ____
ROOT
ATOM      1  C   LIG    1       21.242 -30.337  11.875  0.00  0.00    +0.061 A 
ATOM      2  C   LIG    1       22.583 -30.003  11.646  0.00  0.00    +0.049 A 
ATOM      3  I   LIG    1       23.461 -30.544   9.771  0.00  0.00    -0.041 I 
ATOM      4  C   LIG    1       23.248 -29.097  12.485  0.00  0.00    +0.066 A 
ATOM      5  C   LIG    1       22.445 -28.159  13.192  0.00  0.00    +0.042 A 
ATOM      6  I   LIG    1       23.370 -26.308  13.750  0.00  0.00    -0.042 I 
ATOM      7  C   LIG    1       21.049 -28.368  13.318  0.00  0.00    +0.087 A 
ATOM      8  C   LIG    1       20.535 -29.591  12.838  0.00  0.00    +0.051 A 
ATOM      9  I   LIG    1       18.939 -30.555  13.898  0.00  0.00    -0.041 I 
ENDROOT
BRANCH   1  12
ATOM     10  C   LIG    1       19.492 -33.209  10.128  0.00  0.00    +0.109 C 
ATOM     11  C   LIG    1       19.815 -31.759  10.432  0.00  0.00    +0.214 C 
ATOM     12  N   LIG    1       20.761 -31.598  11.431  0.00  0.00    -0.284 N 
ATOM     13  H   LIG    1       21.347 -32.396  11.645  0.00  0.00    +0.155 HD
ATOM     14  O   LIG    1       19.251 -30.835   9.855  0.00  0.00    -0.276 OA
ENDBRANCH   1  12
BRANCH   4  15
ATOM     15  C   LIG    1       24.632 -29.485  13.015  0.00  0.00    +0.246 C 
ATOM     16  N   LIG    1       25.755 -28.972  12.371  0.00  0.00    -0.309 N 
ATOM     17  H   LIG    1       25.622 -28.398  11.551  0.00  0.00    +0.149 HD
ATOM     18  O   LIG    1       24.753 -30.349  13.876  0.00  0.00    -0.270 OA
BRANCH  16  19
ATOM     19  C   LIG    1       27.103 -29.509  12.590  0.00  0.00    +0.132 C 
BRANCH  19  20
ATOM     20  C   LIG    1       28.022 -29.396  11.361  0.00  0.00    +0.174 C 
BRANCH  20  21
ATOM     21  O   LIG    1       29.393 -29.275  11.720  0.00  0.00    -0.394 OA
ATOM     22  H   LIG    1       29.512 -28.424  12.173  0.00  0.00    +0.209 HD
ENDBRANCH  20  21
ENDBRANCH  19  20
ENDBRANCH  16  19
ENDBRANCH   4  15
BRANCH   7  23
ATOM     23  C   LIG    1       20.131 -27.352  13.959  0.00  0.00    +0.339 C 
ATOM     24  O   LIG    1       20.030 -27.157  15.140  0.00  0.00    -0.245 OA
BRANCH  23  25
ATOM     25  O   LIG    1       19.454 -26.589  13.054  0.00  0.00    -0.477 OA
ATOM     26  H   LIG    1       18.797 -25.948  13.375  0.00  0.00    +0.295 HD
ENDBRANCH  23  25
ENDBRANCH   7  23
TORSDOF 7
ENDMDL
MODEL 3
REMARK VINA RESULT:      -4.4      1.648      1.772
REMARK  Name = *****
REMARK                            x       y       z     vdW  Elec       q    Type
REMARK                         _______ _______ _______ _____ _____    ______ ____
ROOT
ATOM      1  C   LIG    1       23.551 -28.951  12.384  0.00  0.00    +0.061 A 
ATOM      2  C   LIG    1       24.162 -29.798  11.450  0.00  0.00    +0.049 A 
ATOM      3  I   LIG    1       26.268 -30.144  11.616  0.00  0.00    -0.041 I 
ATOM      4  C   LIG    1       23.390 -30.618  10.615  0.00  0.00    +0.066 A 
ATOM      5  C   LIG    1       22.090 -30.970  11.074  0.00  0.00    +0.042 A 
ATOM      6  I   LIG    1       21.260 -32.804  10.338  0.00  0.00    -0.042 I 
ATOM      7  C   LIG    1       21.486 -30.243  12.130  0.00  0.00    +0.087 A 
ATOM      8  C   LIG    1       22.166 -29.097  12.594  0.00  0.00    +0.051 A 
ATOM      9  I   LIG    1       21.042 -27.371  13.189  0.00  0.00    -0.041 I 
ENDROOT
BRANCH   1  12
ATOM     10  C   LIG    1       25.486 -26.262  14.225  0.00  0.00    +0.109 C 
ATOM     11  C   LIG    1       24.794 -27.601  14.049  0.00  0.00    +0.214 C 
ATOM     12  N   LIG    1       24.231 -27.773  12.794  0.00  0.00    -0.284 N 
ATOM     13  H   LIG    1       24.568 -27.174  12.050  0.00  0.00    +0.155 HD
ATOM     14  O   LIG    1       24.725 -28.419  14.959  0.00  0.00    -0.276 OA
ENDBRANCH   1  12
BRANCH   4  15
ATOM     15  C   LIG    1       23.711 -30.631   9.117  0.00  0.00    +0.246 C 
ATOM     16  N   LIG    1       24.314 -31.765   8.578  0.00  0.00    -0.309 N 
ATOM     17  H   LIG    1       24.559 -32.522   9.199  0.00  0.00    +0.149 HD
ATOM     18  O   LIG    1       23.592 -29.615   8.443  0.00  0.00    -0.270 OA
BRANCH  16  19
ATOM     19  C   LIG    1       24.938 -31.770   7.250  0.00  0.00    +0.132 C 
BRANCH  19  20
ATOM     20  C   LIG    1       23.942 -31.991   6.099  0.00  0.00    +0.174 C 
BRANCH  20  21
ATOM     21  O   LIG    1       23.336 -30.778   5.667  0.00  0.00    -0.394 OA
ATOM     22  H   LIG    1       22.412 -30.779   5.967  0.00  0.00    +0.209 HD
ENDBRANCH  20  21
ENDBRANCH  19  20
ENDBRANCH  16  19
ENDBRANCH   4  15
BRANCH   7  23
ATOM     23  C   LIG    1       20.158 -30.641  12.734  0.00  0.00    +0.339 C 
ATOM     24  O   LIG    1       20.010 -31.123  13.824  0.00  0.00    -0.245 OA
BRANCH  23  25
ATOM     25  O   LIG    1       19.090 -30.328  11.946  0.00  0.00    -0.477 OA
ATOM     26  H   LIG    1       18.863 -30.915  11.205  0.00  0.00    +0.295 HD
ENDBRANCH  23  25
ENDBRANCH   7  23
TORSDOF 7
ENDMDL
MODEL 4
REMARK VINA RESULT:      -4.4      2.560      5.177
REMARK  Name = *****
REMARK                            x       y       z     vdW  Elec       q    Type
REMARK                         _______ _______ _______ _____ _____    ______ ____
ROOT
ATOM      1  C   LIG    1       25.706 -27.894  13.088  0.00  0.00    +0.061 A 
ATOM      2  C   LIG    1       24.322 -28.088  12.998  0.00  0.00    +0.049 A 
ATOM      3  I   LIG    1       23.030 -26.487  13.588  0.00  0.00    -0.041 I 
ATOM      4  C   LIG    1       23.796 -29.173  12.281  0.00  0.00    +0.066 A 
ATOM      5  C   LIG    1       24.608 -29.724  11.250  0.00  0.00    +0.042 A 
ATOM      6  I   LIG    1       23.600 -30.715   9.640  0.00  0.00    -0.042 I 
ATOM      7  C   LIG    1       25.994 -29.430  11.202  0.00  0.00    +0.087 A 
ATOM      8  C   LIG    1       26.535 -28.696  12.278  0.00  0.00    +0.051 A 
ATOM      9  I   LIG    1       28.507 -29.155  12.984  0.00  0.00    -0.041 I 
ENDROOT
BRANCH   1  12
ATOM     10  C   LIG    1       27.211 -25.388  15.500  0.00  0.00    +0.109 C 
ATOM     11  C   LIG    1       26.733 -25.909  14.158  0.00  0.00    +0.214 C 
ATOM     12  N   LIG    1       26.233 -27.201  14.210  0.00  0.00    -0.284 N 
ATOM     13  H   LIG    1       25.957 -27.553  15.119  0.00  0.00    +0.155 HD
ATOM     14  O   LIG    1       26.823 -25.240  13.134  0.00  0.00    -0.276 OA
ENDBRANCH   1  12
BRANCH   4  15
ATOM     15  C   LIG    1       22.712 -30.024  12.950  0.00  0.00    +0.246 C 
ATOM     16  N   LIG    1       21.380 -29.765  12.638  0.00  0.00    -0.309 N 
ATOM     17  H   LIG    1       21.170 -28.998  12.017  0.00  0.00    +0.149 HD
ATOM     18  O   LIG    1       22.995 -30.800  13.855  0.00  0.00    -0.270 OA
BRANCH  16  19
ATOM     19  C   LIG    1       20.266 -30.294  13.434  0.00  0.00    +0.132 C 
BRANCH  19  20
ATOM     20  C   LIG    1       19.594 -29.244  14.333  0.00  0.00    +0.174 C 
BRANCH  20  21
ATOM     21  O   LIG    1       19.151 -28.107  13.600  0.00  0.00    -0.394 OA
ATOM     22  H   LIG    1       18.750 -27.482  14.226  0.00  0.00    +0.209 HD
ENDBRANCH  20  21
ENDBRANCH  19  20
ENDBRANCH  16  19
ENDBRANCH   4  15
BRANCH   7  23
ATOM     23  C   LIG    1       26.882 -29.893  10.069  0.00  0.00    +0.339 C 
ATOM     24  O   LIG    1       27.330 -31.002   9.949  0.00  0.00    -0.245 OA
BRANCH  23  25
ATOM     25  O   LIG    1       27.083 -28.941   9.115  0.00  0.00    -0.477 OA
ATOM     26  H   LIG    1       26.316 -28.454   8.765  0.00  0.00    +0.295 HD
ENDBRANCH  23  25
ENDBRANCH   7  23
TORSDOF 7
ENDMDL
MODEL 5
REMARK VINA RESULT:      -4.3      2.883      6.410
REMARK  Name = *****
REMARK                            x       y       z     vdW  Elec       q    Type
REMARK                         _______ _______ _______ _____ _____    ______ ____
ROOT
ATOM      1  C   LIG    1       23.847 -31.191  11.110  0.00  0.00    +0.061 A 
ATOM      2  C   LIG    1       23.641 -30.694  12.403  0.00  0.00    +0.049 A 
ATOM      3  I   LIG    1       23.064 -32.067  13.941  0.00  0.00    -0.041 I 
ATOM      4  C   LIG    1       24.072 -29.406  12.752  0.00  0.00    +0.066 A 
ATOM      5  C   LIG    1       25.143 -28.853  11.996  0.00  0.00    +0.042 A 
ATOM      6  I   LIG    1       26.362 -27.381  12.964  0.00  0.00    -0.042 I 
ATOM      7  C   LIG    1       25.499 -29.420  10.746  0.00  0.00    +0.087 A 
ATOM      8  C   LIG    1       24.670 -30.444  10.243  0.00  0.00    +0.051 A 
ATOM      9  I   LIG    1       24.292 -30.558   8.136  0.00  0.00    -0.041 I 
ENDROOT
BRANCH   1  12
ATOM     10  C   LIG    1       20.946 -33.151   9.659  0.00  0.00    +0.109 C 
ATOM     11  C   LIG    1       21.671 -31.924  10.181  0.00  0.00    +0.214 C 
ATOM     12  N   LIG    1       22.965 -32.182  10.604  0.00  0.00    -0.284 N 
ATOM     13  H   LIG    1       23.399 -33.034  10.269  0.00  0.00    +0.155 HD
ATOM     14  O   LIG    1       21.126 -30.827  10.241  0.00  0.00    -0.276 OA
ENDBRANCH   1  12
BRANCH   4  15
ATOM     15  C   LIG    1       23.087 -28.487  13.484  0.00  0.00    +0.246 C 
ATOM     16  N   LIG    1       22.148 -27.788  12.730  0.00  0.00    -0.309 N 
ATOM     17  H   LIG    1       22.175 -27.875  11.725  0.00  0.00    +0.149 HD
ATOM     18  O   LIG    1       23.224 -28.247  14.678  0.00  0.00    -0.270 OA
BRANCH  16  19
ATOM     19  C   LIG    1       21.375 -26.667  13.277  0.00  0.00    +0.132 C 
BRANCH  19  20
ATOM     20  C   LIG    1       19.971 -27.061  13.763  0.00  0.00    +0.174 C 
BRANCH  20  21
ATOM     21  O   LIG    1       18.956 -26.219  13.228  0.00  0.00    -0.394 OA
ATOM     22  H   LIG    1       19.335 -25.334  13.102  0.00  0.00    +0.209 HD
ENDBRANCH  20  21
ENDBRANCH  19  20
ENDBRANCH  16  19
ENDBRANCH   4  15
BRANCH   7  23
ATOM     23  C   LIG    1       26.697 -28.947   9.954  0.00  0.00    +0.339 C 
ATOM     24  O   LIG    1       26.708 -28.001   9.213  0.00  0.00    -0.245 OA
BRANCH  23  25
ATOM     25  O   LIG    1       27.831 -29.659  10.212  0.00  0.00    -0.477 OA
ATOM     26  H   LIG    1       28.601 -29.547   9.629  0.00  0.00    +0.295 HD
ENDBRANCH  23  25
ENDBRANCH   7  23
TORSDOF 7
ENDMDL
MODEL 6
REMARK VINA RESULT:      -4.3      2.413      5.912
REMARK  Name = *****
REMARK                            x       y       z     vdW  Elec       q    Type
REMARK                         _______ _______ _______ _____ _____    ______ ____
ROOT
ATOM      1  C   LIG    1       23.421 -31.442   9.440  0.00  0.00    +0.061 A 
ATOM      2  C   LIG    1       24.129 -30.450  10.130  0.00  0.00    +0.049 A 
ATOM      3  I   LIG    1       25.712 -29.433   9.110  0.00  0.00    -0.041 I 
ATOM      4  C   LIG    1       23.642 -29.934  11.340  0.00  0.00    +0.066 A 
ATOM      5  C   LIG    1       22.240 -30.022  11.566  0.00  0.00    +0.042 A 
ATOM      6  I   LIG    1       21.370 -28.567  12.876  0.00  0.00    -0.042 I 
ATOM      7  C   LIG    1       21.447 -30.898  10.784  0.00  0.00    +0.087 A 
ATOM      8  C   LIG    1       22.123 -31.755   9.890  0.00  0.00    +0.051 A 
ATOM      9  I   LIG    1       21.395 -33.749   9.583  0.00  0.00    -0.041 I 
ENDROOT
BRANCH   1  12
ATOM     10  C   LIG    1       24.975 -33.305   6.529  0.00  0.00    +0.109 C 
ATOM     11  C   LIG    1       24.110 -32.258   7.204  0.00  0.00    +0.214 C 
ATOM     12  N   LIG    1       24.132 -32.329   8.588  0.00  0.00    -0.284 N 
ATOM     13  H   LIG    1       24.903 -32.829   9.013  0.00  0.00    +0.155 HD
ATOM     14  O   LIG    1       23.440 -31.458   6.560  0.00  0.00    -0.276 OA
ENDBRANCH   1  12
BRANCH   4  15
ATOM     15  C   LIG    1       24.611 -29.830  12.523  0.00  0.00    +0.246 C 
ATOM     16  N   LIG    1       25.221 -28.603  12.774  0.00  0.00    -0.309 N 
ATOM     17  H   LIG    1       25.039 -27.836  12.143  0.00  0.00    +0.149 HD
ATOM     18  O   LIG    1       24.966 -30.833  13.131  0.00  0.00    -0.270 OA
BRANCH  16  19
ATOM     19  C   LIG    1       26.377 -28.466  13.666  0.00  0.00    +0.132 C 
BRANCH  19  20
ATOM     20  C   LIG    1       27.720 -28.807  12.997  0.00  0.00    +0.174 C 
BRANCH  20  21
ATOM     21  O   LIG    1       27.982 -30.206  12.993  0.00  0.00    -0.394 OA
ATOM     22  H   LIG    1       27.755 -30.552  12.114  0.00  0.00    +0.209 HD
ENDBRANCH  20  21
ENDBRANCH  19  20
ENDBRANCH  16  19
ENDBRANCH   4  15
BRANCH   7  23
ATOM     23  C   LIG    1       19.940 -30.951  10.901  0.00  0.00    +0.339 C 
ATOM     24  O   LIG    1       19.333 -31.469  11.799  0.00  0.00    -0.245 OA
BRANCH  23  25
ATOM     25  O   LIG    1       19.297 -30.271   9.910  0.00  0.00    -0.477 OA
ATOM     26  H   LIG    1       19.821 -29.758   9.272  0.00  0.00    +0.295 HD
ENDBRANCH  23  25
ENDBRANCH   7  23
TORSDOF 7
ENDMDL
MODEL 7
REMARK VINA RESULT:      -4.2      2.648      5.856
REMARK  Name = *****
REMARK                            x       y       z     vdW  Elec       q    Type
REMARK                         _______ _______ _______ _____ _____    ______ ____
ROOT
ATOM      1  C   LIG    1       24.031 -29.911  11.241  0.00  0.00    +0.061 A 
ATOM      2  C   LIG    1       25.192 -29.150  11.424  0.00  0.00    +0.049 A 
ATOM      3  I   LIG    1       26.571 -28.991   9.795  0.00  0.00    -0.041 I 
ATOM      4  C   LIG    1       25.317 -28.287  12.522  0.00  0.00    +0.066 A 
ATOM      5  C   LIG    1       24.114 -27.805  13.109  0.00  0.00    +0.042 A 
ATOM      6  I   LIG    1       24.212 -25.926  14.133  0.00  0.00    -0.042 I 
ATOM      7  C   LIG    1       22.880 -28.445  12.830  0.00  0.00    +0.087 A 
ATOM      8  C   LIG    1       22.927 -29.634  12.073  0.00  0.00    +0.051 A 
ATOM      9  I   LIG    1       21.576 -31.234  12.532  0.00  0.00    -0.041 I 
ENDROOT
BRANCH   1  12
ATOM     10  C   LIG    1       23.923 -32.688   8.665  0.00  0.00    +0.109 C 
ATOM     11  C   LIG    1       23.701 -31.290   9.209  0.00  0.00    +0.214 C 
ATOM     12  N   LIG    1       24.114 -31.134  10.523  0.00  0.00    -0.284 N 
ATOM     13  H   LIG    1       24.766 -31.818  10.886  0.00  0.00    +0.155 HD
ATOM     14  O   LIG    1       23.173 -30.410   8.538  0.00  0.00    -0.276 OA
ENDBRANCH   1  12
BRANCH   4  15
ATOM     15  C   LIG    1       26.609 -28.345  13.345  0.00  0.00    +0.246 C 
ATOM     16  N   LIG    1       26.797 -29.421  14.208  0.00  0.00    -0.309 N 
ATOM     17  H   LIG    1       26.058 -30.103  14.297  0.00  0.00    +0.149 HD
ATOM     18  O   LIG    1       27.380 -27.393  13.366  0.00  0.00    -0.270 OA
BRANCH  16  19
ATOM     19  C   LIG    1       27.828 -29.423  15.252  0.00  0.00    +0.132 C 
BRANCH  19  20
ATOM     20  C   LIG    1       29.206 -29.898  14.761  0.00  0.00    +0.174 C 
BRANCH  20  21
ATOM     21  O   LIG    1       29.956 -28.849  14.159  0.00  0.00    -0.394 OA
ATOM     22  H   LIG    1       29.617 -28.714  13.260  0.00  0.00    +0.209 HD
ENDBRANCH  20  21
ENDBRANCH  19  20
ENDBRANCH  16  19
ENDBRANCH   4  15
BRANCH   7  23
ATOM     23  C   LIG    1       21.558 -27.911  13.333  0.00  0.00    +0.339 C 
ATOM     24  O   LIG    1       20.751 -27.320  12.667  0.00  0.00    -0.245 OA
BRANCH  23  25
ATOM     25  O   LIG    1       21.305 -28.231  14.634  0.00  0.00    -0.477 OA
ATOM     26  H   LIG    1       22.052 -28.425  15.226  0.00  0.00    +0.295 HD
ENDBRANCH  23  25
ENDBRANCH   7  23
TORSDOF 7
ENDMDL
MODEL 8
REMARK VINA RESULT:      -4.1      2.796      6.503
REMARK  Name = *****
REMARK                            x       y       z     vdW  Elec       q    Type
REMARK                         _______ _______ _______ _____ _____    ______ ____
ROOT
ATOM      1  C   LIG    1       24.582 -30.207  11.815  0.00  0.00    +0.061 A 
ATOM      2  C   LIG    1       23.502 -30.085  12.698  0.00  0.00    +0.049 A 
ATOM      3  I   LIG    1       22.618 -31.871  13.477  0.00  0.00    -0.041 I 
ATOM      4  C   LIG    1       23.190 -28.847  13.280  0.00  0.00    +0.066 A 
ATOM      5  C   LIG    1       24.244 -27.899  13.392  0.00  0.00    +0.042 A 
ATOM      6  I   LIG    1       24.085 -26.446  14.959  0.00  0.00    -0.042 I 
ATOM      7  C   LIG    1       25.432 -28.061  12.636  0.00  0.00    +0.087 A 
ATOM      8  C   LIG    1       25.455 -29.108  11.690  0.00  0.00    +0.051 A 
ATOM      9  I   LIG    1       26.462 -28.818   9.820  0.00  0.00    -0.041 I 
ENDROOT
BRANCH   1  12
ATOM     10  C   LIG    1       23.906 -32.431   8.822  0.00  0.00    +0.109 C 
ATOM     11  C   LIG    1       23.716 -31.233   9.732  0.00  0.00    +0.214 C 
ATOM     12  N   LIG    1       24.558 -31.233  10.834  0.00  0.00    -0.284 N 
ATOM     13  H   LIG    1       25.382 -31.820  10.785  0.00  0.00    +0.155 HD
ATOM     14  O   LIG    1       22.868 -30.376   9.508  0.00  0.00    -0.276 OA
ENDBRANCH   1  12
BRANCH   4  15
ATOM     15  C   LIG    1       21.730 -28.381  13.248  0.00  0.00    +0.246 C 
ATOM     16  N   LIG    1       21.052 -28.243  14.457  0.00  0.00    -0.309 N 
ATOM     17  H   LIG    1       21.530 -28.496  15.309  0.00  0.00    +0.149 HD
ATOM     18  O   LIG    1       21.125 -28.290  12.186  0.00  0.00    -0.270 OA
BRANCH  16  19
ATOM     19  C   LIG    1       19.593 -28.108  14.531  0.00  0.00    +0.132 C 
BRANCH  19  20
ATOM     20  C   LIG    1       19.100 -26.654  14.430  0.00  0.00    +0.174 C 
BRANCH  20  21
ATOM     21  O   LIG    1       19.130 -26.164  13.094  0.00  0.00    -0.394 OA
ATOM     22  H   LIG    1       18.416 -26.598  12.598  0.00  0.00    +0.209 HD
ENDBRANCH  20  21
ENDBRANCH  19  20
ENDBRANCH  16  19
ENDBRANCH   4  15
BRANCH   7  23
ATOM     23  C   LIG    1       26.628 -27.151  12.799  0.00  0.00    +0.339 C 
ATOM     24  O   LIG    1       26.650 -25.981  12.526  0.00  0.00    -0.245 OA
BRANCH  23  25
ATOM     25  O   LIG    1       27.701 -27.764  13.375  0.00  0.00    -0.477 OA
ATOM     26  H   LIG    1       28.033 -28.593  12.990  0.00  0.00    +0.295 HD
ENDBRANCH  23  25
ENDBRANCH   7  23
TORSDOF 7
ENDMDL
MODEL 9
REMARK VINA RESULT:      -3.9      3.184      6.420
REMARK  Name = *****
REMARK                            x       y       z     vdW  Elec       q    Type
REMARK                         _______ _______ _______ _____ _____    ______ ____
ROOT
ATOM      1  C   LIG    1       25.253 -30.934   8.337  0.00  0.00    +0.061 A 
ATOM      2  C   LIG    1       24.523 -31.766   9.195  0.00  0.00    +0.049 A 
ATOM      3  I   LIG    1       24.289 -33.825   8.660  0.00  0.00    -0.041 I 
ATOM      4  C   LIG    1       24.201 -31.348  10.495  0.00  0.00    +0.066 A 
ATOM      5  C   LIG    1       25.041 -30.364  11.087  0.00  0.00    +0.042 A 
ATOM      6  I   LIG    1       25.147 -30.334  13.227  0.00  0.00    -0.042 I 
ATOM      7  C   LIG    1       25.920 -29.599  10.280  0.00  0.00    +0.087 A 
ATOM      8  C   LIG    1       25.819 -29.764   8.883  0.00  0.00    +0.051 A 
ATOM      9  I   LIG    1       26.079 -28.067   7.598  0.00  0.00    -0.041 I 
ENDROOT
BRANCH   1  12
ATOM     10  C   LIG    1       25.589 -31.765   4.655  0.00  0.00    +0.109 C 
ATOM     11  C   LIG    1       26.008 -31.720   6.112  0.00  0.00    +0.214 C 
ATOM     12  N   LIG    1       25.093 -31.081   6.934  0.00  0.00    -0.284 N 
ATOM     13  H   LIG    1       24.149 -30.979   6.582  0.00  0.00    +0.155 HD
ATOM     14  O   LIG    1       27.077 -32.185   6.493  0.00  0.00    -0.276 OA
ENDBRANCH   1  12
BRANCH   4  15
ATOM     15  C   LIG    1       22.754 -31.518  10.971  0.00  0.00    +0.246 C 
ATOM     16  N   LIG    1       21.771 -30.712  10.403  0.00  0.00    -0.309 N 
ATOM     17  H   LIG    1       22.049 -30.013   9.730  0.00  0.00    +0.149 HD
ATOM     18  O   LIG    1       22.492 -32.225  11.937  0.00  0.00    -0.270 OA
BRANCH  16  19
ATOM     19  C   LIG    1       20.433 -30.570  10.988  0.00  0.00    +0.132 C 
BRANCH  19  20
ATOM     20  C   LIG    1       19.345 -31.366  10.247  0.00  0.00    +0.174 C 
BRANCH  20  21
ATOM     21  O   LIG    1       18.325 -30.525   9.719  0.00  0.00    -0.394 OA
ATOM     22  H   LIG    1       18.744 -29.881   9.124  0.00  0.00    +0.209 HD
ENDBRANCH  20  21
ENDBRANCH  19  20
ENDBRANCH  16  19
ENDBRANCH   4  15
BRANCH   7  23
ATOM     23  C   LIG    1       26.914 -28.622  10.865  0.00  0.00    +0.339 C 
ATOM     24  O   LIG    1       26.643 -27.534  11.297  0.00  0.00    -0.245 OA
BRANCH  23  25
ATOM     25  O   LIG    1       28.181 -29.119  10.939  0.00  0.00    -0.477 OA
ATOM     26  H   LIG    1       28.799 -28.948  10.208  0.00  0.00    +0.295 HD
ENDBRANCH  23  25
ENDBRANCH   7  23
TORSDOF 7
ENDMDL
