MODEL 1
REMARK VINA RESULT:      -4.2      0.000      0.000
REMARK  Name = *****
REMARK                            x       y       z     vdW  Elec       q    Type
REMARK                         _______ _______ _______ _____ _____    ______ ____
ROOT
ATOM      1  C   LIG    1       25.773 -16.718   3.673  0.00  0.00    -0.008 A 
ATOM      2  C   LIG    1       25.186 -15.437   3.803  0.00  0.00    +0.008 A 
ATOM      3  C   LIG    1       26.021 -14.306   3.927  0.00  0.00    +0.091 A 
ATOM      4  N   LIG    1       25.468 -13.015   3.878  0.00  0.00    -0.319 N 
ATOM      5  H   LIG    1       26.103 -12.226   3.868  0.00  0.00    +0.169 HD
ATOM      6  C   LIG    1       24.135 -12.759   3.726  0.00  0.00    +0.249 C 
ATOM      7  C   LIG    1       23.244 -13.942   3.790  0.00  0.00    +0.071 C 
ATOM      8  O   LIG    1       23.680 -11.639   3.581  0.00  0.00    -0.268 OA
ATOM      9  C   LIG    1       27.405 -14.437   4.040  0.00  0.00    +0.141 A 
ATOM     10  C   LIG    1       27.992 -15.691   3.977  0.00  0.00    +0.048 A 
ATOM     11  C   LIG    1       23.735 -15.188   3.823  0.00  0.00    +0.015 C 
ATOM     12  C   LIG    1       27.185 -16.813   3.762  0.00  0.00    +0.010 A 
ENDROOT
BRANCH   9  13
ATOM     13  O   LIG    1       28.167 -13.313   4.204  0.00  0.00    -0.505 OA
ATOM     14  H   LIG    1       29.105 -13.561   4.149  0.00  0.00    +0.292 HD
ENDBRANCH   9  13
BRANCH   1  15
ATOM     15  C   LIG    1       24.964 -17.947   3.257  0.00  0.00    +0.162 C 
BRANCH  15  16
ATOM     16  O   LIG    1       25.867 -18.670   2.408  0.00  0.00    -0.386 OA
ATOM     17  H   LIG    1       26.181 -19.437   2.909  0.00  0.00    +0.210 HD
ENDBRANCH  15  16
BRANCH  15  18
ATOM     18  C   LIG    1       24.399 -18.864   4.412  0.00  0.00    +0.087 C 
BRANCH  18  20
ATOM     19  C   LIG    1       22.149 -20.128   4.772  0.00  0.00    +0.005 C 
ATOM     20  C   LIG    1       22.845 -18.806   4.463  0.00  0.00    +0.018 C 
ENDBRANCH  18  20
BRANCH  18  21
ATOM     21  N   LIG    1       24.795 -20.302   4.383  0.00  0.00    -0.308 NA
ATOM     22  H   LIG    1       23.944 -20.868   4.387  0.00  0.00    +0.122 HD
BRANCH  21  23
ATOM     23  C   LIG    1       25.683 -20.787   5.453  0.00  0.00    +0.048 C 
ATOM     24  C   LIG    1       24.978 -20.673   6.817  0.00  0.00    +0.024 C 
ATOM     25  C   LIG    1       26.994 -20.002   5.535  0.00  0.00    +0.024 C 
ENDBRANCH  21  23
ENDBRANCH  18  21
ENDBRANCH  15  18
ENDBRANCH   1  15
TORSDOF 7
ENDMDL
MODEL 2
REMARK VINA RESULT:      -3.8      1.129      2.888
REMARK  Name = *****
REMARK                            x       y       z     vdW  Elec       q    Type
REMARK                         _______ _______ _______ _____ _____    ______ ____
ROOT
ATOM      1  C   LIG    1       25.029 -16.046   3.622  0.00  0.00    -0.008 A 
ATOM      2  C   LIG    1       25.972 -15.006   3.797  0.00  0.00    +0.008 A 
ATOM      3  C   LIG    1       25.558 -13.794   4.390  0.00  0.00    +0.091 A 
ATOM      4  N   LIG    1       26.509 -12.819   4.734  0.00  0.00    -0.319 N 
ATOM      5  H   LIG    1       26.192 -12.006   5.249  0.00  0.00    +0.169 HD
ATOM      6  C   LIG    1       27.852 -12.951   4.522  0.00  0.00    +0.249 C 
ATOM      7  C   LIG    1       28.262 -14.134   3.729  0.00  0.00    +0.071 C 
ATOM      8  O   LIG    1       28.675 -12.147   4.919  0.00  0.00    -0.268 OA
ATOM      9  C   LIG    1       24.218 -13.560   4.700  0.00  0.00    +0.141 A 
ATOM     10  C   LIG    1       23.271 -14.547   4.477  0.00  0.00    +0.048 A 
ATOM     11  C   LIG    1       27.386 -15.091   3.394  0.00  0.00    +0.015 C 
ATOM     12  C   LIG    1       23.681 -15.786   3.975  0.00  0.00    +0.010 A 
ENDROOT
BRANCH   9  13
ATOM     13  O   LIG    1       23.861 -12.352   5.231  0.00  0.00    -0.505 OA
ATOM     14  H   LIG    1       24.139 -11.648   4.621  0.00  0.00    +0.292 HD
ENDBRANCH   9  13
BRANCH   1  15
ATOM     15  C   LIG    1       25.446 -17.470   3.254  0.00  0.00    +0.162 C 
BRANCH  15  16
ATOM     16  O   LIG    1       26.880 -17.418   3.289  0.00  0.00    -0.386 OA
ATOM     17  H   LIG    1       27.197 -17.607   2.393  0.00  0.00    +0.210 HD
ENDBRANCH  15  16
BRANCH  15  18
ATOM     18  C   LIG    1       24.890 -18.642   4.155  0.00  0.00    +0.087 C 
BRANCH  18  20
ATOM     19  C   LIG    1       22.401 -19.233   4.649  0.00  0.00    +0.005 C 
ATOM     20  C   LIG    1       23.524 -19.160   3.620  0.00  0.00    +0.018 C 
ENDBRANCH  18  20
BRANCH  18  21
ATOM     21  N   LIG    1       25.779 -19.826   4.343  0.00  0.00    -0.308 NA
ATOM     22  H   LIG    1       25.318 -20.639   3.930  0.00  0.00    +0.122 HD
BRANCH  21  23
ATOM     23  C   LIG    1       26.182 -20.165   5.718  0.00  0.00    +0.048 C 
ATOM     24  C   LIG    1       27.713 -20.089   5.854  0.00  0.00    +0.024 C 
ATOM     25  C   LIG    1       25.743 -21.571   6.133  0.00  0.00    +0.024 C 
ENDBRANCH  21  23
ENDBRANCH  18  21
ENDBRANCH  15  18
ENDBRANCH   1  15
TORSDOF 7
ENDMDL
MODEL 3
REMARK VINA RESULT:      -3.7      2.080      6.330
REMARK  Name = *****
REMARK                            x       y       z     vdW  Elec       q    Type
REMARK                         _______ _______ _______ _____ _____    ______ ____
ROOT
ATOM      1  C   LIG    1       27.474 -17.500   4.091  0.00  0.00    -0.008 A 
ATOM      2  C   LIG    1       26.619 -18.613   4.277  0.00  0.00    +0.008 A 
ATOM      3  C   LIG    1       27.000 -19.631   5.179  0.00  0.00    +0.091 A 
ATOM      4  N   LIG    1       26.093 -20.650   5.511  0.00  0.00    -0.319 N 
ATOM      5  H   LIG    1       26.360 -21.306   6.236  0.00  0.00    +0.169 HD
ATOM      6  C   LIG    1       24.828 -20.745   5.004  0.00  0.00    +0.249 C 
ATOM      7  C   LIG    1       24.500 -19.791   3.919  0.00  0.00    +0.071 C 
ATOM      8  O   LIG    1       24.017 -21.572   5.379  0.00  0.00    -0.268 OA
ATOM      9  C   LIG    1       28.250 -19.617   5.799  0.00  0.00    +0.141 A 
ATOM     10  C   LIG    1       29.124 -18.565   5.578  0.00  0.00    +0.048 A 
ATOM     11  C   LIG    1       25.334 -18.798   3.583  0.00  0.00    +0.015 C 
ATOM     12  C   LIG    1       28.723 -17.504   4.760  0.00  0.00    +0.010 A 
ENDROOT
BRANCH   9  13
ATOM     13  O   LIG    1       28.590 -20.650   6.628  0.00  0.00    -0.505 OA
ATOM     14  H   LIG    1       27.934 -20.703   7.345  0.00  0.00    +0.292 HD
ENDBRANCH   9  13
BRANCH   1  15
ATOM     15  C   LIG    1       27.017 -16.237   3.361  0.00  0.00    +0.162 C 
BRANCH  15  16
ATOM     16  O   LIG    1       25.683 -16.557   2.940  0.00  0.00    -0.386 OA
ATOM     17  H   LIG    1       25.237 -15.722   2.737  0.00  0.00    +0.210 HD
ENDBRANCH  15  16
BRANCH  15  18
ATOM     18  C   LIG    1       27.056 -14.881   4.171  0.00  0.00    +0.087 C 
BRANCH  18  20
ATOM     19  C   LIG    1       28.786 -12.942   3.989  0.00  0.00    +0.005 C 
ATOM     20  C   LIG    1       27.670 -13.735   3.317  0.00  0.00    +0.018 C 
ENDBRANCH  18  20
BRANCH  18  21
ATOM     21  N   LIG    1       25.758 -14.388   4.719  0.00  0.00    -0.308 NA
ATOM     22  H   LIG    1       25.099 -15.168   4.727  0.00  0.00    +0.122 HD
BRANCH  21  23
ATOM     23  C   LIG    1       25.121 -13.246   4.042  0.00  0.00    +0.048 C 
ATOM     24  C   LIG    1       24.712 -12.180   5.075  0.00  0.00    +0.024 C 
ATOM     25  C   LIG    1       23.870 -13.646   3.258  0.00  0.00    +0.024 C 
ENDBRANCH  21  23
ENDBRANCH  18  21
ENDBRANCH  15  18
ENDBRANCH   1  15
TORSDOF 7
ENDMDL
MODEL 4
REMARK VINA RESULT:      -3.7      2.073      6.040
REMARK  Name = *****
REMARK                            x       y       z     vdW  Elec       q    Type
REMARK                         _______ _______ _______ _____ _____    ______ ____
ROOT
ATOM      1  C   LIG    1       24.420 -16.668   3.675  0.00  0.00    -0.008 A 
ATOM      2  C   LIG    1       23.693 -17.850   3.950  0.00  0.00    +0.008 A 
ATOM      3  C   LIG    1       24.390 -19.069   4.094  0.00  0.00    +0.091 A 
ATOM      4  N   LIG    1       23.714 -20.217   4.540  0.00  0.00    -0.319 N 
ATOM      5  H   LIG    1       24.262 -21.048   4.729  0.00  0.00    +0.169 HD
ATOM      6  C   LIG    1       22.383 -20.250   4.847  0.00  0.00    +0.249 C 
ATOM      7  C   LIG    1       21.618 -19.026   4.513  0.00  0.00    +0.071 C 
ATOM      8  O   LIG    1       21.831 -21.222   5.332  0.00  0.00    -0.268 OA
ATOM      9  C   LIG    1       25.762 -19.151   3.856  0.00  0.00    +0.141 A 
ATOM     10  C   LIG    1       26.479 -18.013   3.524  0.00  0.00    +0.048 A 
ATOM     11  C   LIG    1       22.229 -17.909   4.098  0.00  0.00    +0.015 C 
ATOM     12  C   LIG    1       25.818 -16.781   3.468  0.00  0.00    +0.010 A 
ENDROOT
BRANCH   9  13
ATOM     13  O   LIG    1       26.383 -20.365   3.964  0.00  0.00    -0.505 OA
ATOM     14  H   LIG    1       25.782 -21.053   3.631  0.00  0.00    +0.292 HD
ENDBRANCH   9  13
BRANCH   1  15
ATOM     15  C   LIG    1       23.788 -15.279   3.782  0.00  0.00    +0.162 C 
BRANCH  15  16
ATOM     16  O   LIG    1       23.223 -15.270   5.101  0.00  0.00    -0.386 OA
ATOM     17  H   LIG    1       23.077 -16.193   5.359  0.00  0.00    +0.210 HD
ENDBRANCH  15  16
BRANCH  15  18
ATOM     18  C   LIG    1       24.734 -14.036   3.552  0.00  0.00    +0.087 C 
BRANCH  18  20
ATOM     19  C   LIG    1       24.534 -11.948   2.006  0.00  0.00    +0.005 C 
ATOM     20  C   LIG    1       23.918 -12.782   3.125  0.00  0.00    +0.018 C 
ENDBRANCH  18  20
BRANCH  18  21
ATOM     21  N   LIG    1       25.608 -13.636   4.694  0.00  0.00    -0.308 NA
ATOM     22  H   LIG    1       25.461 -12.641   4.875  0.00  0.00    +0.122 HD
BRANCH  21  23
ATOM     23  C   LIG    1       27.055 -13.878   4.563  0.00  0.00    +0.048 C 
ATOM     24  C   LIG    1       27.840 -12.856   5.405  0.00  0.00    +0.024 C 
ATOM     25  C   LIG    1       27.544 -13.769   3.117  0.00  0.00    +0.024 C 
ENDBRANCH  21  23
ENDBRANCH  18  21
ENDBRANCH  15  18
ENDBRANCH   1  15
TORSDOF 7
ENDMDL
MODEL 5
REMARK VINA RESULT:      -3.0      2.129      3.744
REMARK  Name = *****
REMARK                            x       y       z     vdW  Elec       q    Type
REMARK                         _______ _______ _______ _____ _____    ______ ____
ROOT
ATOM      1  C   LIG    1       25.728 -19.217   4.141  0.00  0.00    -0.008 A 
ATOM      2  C   LIG    1       26.115 -17.866   3.979  0.00  0.00    +0.008 A 
ATOM      3  C   LIG    1       27.403 -17.464   4.394  0.00  0.00    +0.091 A 
ATOM      4  N   LIG    1       27.871 -16.177   4.083  0.00  0.00    -0.319 N 
ATOM      5  H   LIG    1       28.835 -15.955   4.305  0.00  0.00    +0.169 HD
ATOM      6  C   LIG    1       27.148 -15.244   3.394  0.00  0.00    +0.249 C 
ATOM      7  C   LIG    1       25.733 -15.599   3.130  0.00  0.00    +0.071 C 
ATOM      8  O   LIG    1       27.603 -14.172   3.040  0.00  0.00    -0.268 OA
ATOM      9  C   LIG    1       28.254 -18.343   5.063  0.00  0.00    +0.141 A 
ATOM     10  C   LIG    1       27.866 -19.654   5.286  0.00  0.00    +0.048 A 
ATOM     11  C   LIG    1       25.255 -16.820   3.401  0.00  0.00    +0.015 C 
ATOM     12  C   LIG    1       26.630 -20.091   4.799  0.00  0.00    +0.010 A 
ENDROOT
BRANCH   9  13
ATOM     13  O   LIG    1       29.475 -17.892   5.485  0.00  0.00    -0.505 OA
ATOM     14  H   LIG    1       30.050 -17.777   4.710  0.00  0.00    +0.292 HD
ENDBRANCH   9  13
BRANCH   1  15
ATOM     15  C   LIG    1       24.478 -19.792   3.473  0.00  0.00    +0.162 C 
BRANCH  15  16
ATOM     16  O   LIG    1       25.003 -20.791   2.586  0.00  0.00    -0.386 OA
ATOM     17  H   LIG    1       24.370 -21.524   2.571  0.00  0.00    +0.210 HD
ENDBRANCH  15  16
BRANCH  15  18
ATOM     18  C   LIG    1       23.365 -20.391   4.420  0.00  0.00    +0.087 C 
BRANCH  18  20
ATOM     19  C   LIG    1       23.486 -20.661   7.008  0.00  0.00    +0.005 C 
ATOM     20  C   LIG    1       23.998 -21.112   5.644  0.00  0.00    +0.018 C 
ENDBRANCH  18  20
BRANCH  18  21
ATOM     21  N   LIG    1       22.340 -19.437   4.939  0.00  0.00    -0.308 NA
ATOM     22  H   LIG    1       21.494 -19.966   5.156  0.00  0.00    +0.122 HD
BRANCH  21  23
ATOM     23  C   LIG    1       21.974 -18.296   4.084  0.00  0.00    +0.048 C 
ATOM     24  C   LIG    1       22.011 -16.991   4.898  0.00  0.00    +0.024 C 
ATOM     25  C   LIG    1       20.573 -18.435   3.482  0.00  0.00    +0.024 C 
ENDBRANCH  21  23
ENDBRANCH  18  21
ENDBRANCH  15  18
ENDBRANCH   1  15
TORSDOF 7
ENDMDL
MODEL 6
REMARK VINA RESULT:      -2.9      1.336      3.463
REMARK  Name = *****
REMARK                            x       y       z     vdW  Elec       q    Type
REMARK                         _______ _______ _______ _____ _____    ______ ____
ROOT
ATOM      1  C   LIG    1       25.440 -15.905   3.518  0.00  0.00    -0.008 A 
ATOM      2  C   LIG    1       26.316 -14.826   3.783  0.00  0.00    +0.008 A 
ATOM      3  C   LIG    1       25.808 -13.662   4.400  0.00  0.00    +0.091 A 
ATOM      4  N   LIG    1       26.687 -12.655   4.832  0.00  0.00    -0.319 N 
ATOM      5  H   LIG    1       26.300 -11.881   5.360  0.00  0.00    +0.169 HD
ATOM      6  C   LIG    1       28.044 -12.710   4.688  0.00  0.00    +0.249 C 
ATOM      7  C   LIG    1       28.557 -13.837   3.873  0.00  0.00    +0.071 C 
ATOM      8  O   LIG    1       28.802 -11.882   5.159  0.00  0.00    -0.268 OA
ATOM      9  C   LIG    1       24.443 -13.511   4.645  0.00  0.00    +0.141 A 
ATOM     10  C   LIG    1       23.563 -14.534   4.334  0.00  0.00    +0.048 A 
ATOM     11  C   LIG    1       27.751 -14.822   3.455  0.00  0.00    +0.015 C 
ATOM     12  C   LIG    1       24.063 -15.729   3.807  0.00  0.00    +0.010 A 
ENDROOT
BRANCH   9  13
ATOM     13  O   LIG    1       23.995 -12.344   5.203  0.00  0.00    -0.505 OA
ATOM     14  H   LIG    1       23.323 -12.557   5.873  0.00  0.00    +0.292 HD
ENDBRANCH   9  13
BRANCH   1  15
ATOM     15  C   LIG    1       25.951 -17.290   3.118  0.00  0.00    +0.162 C 
BRANCH  15  16
ATOM     16  O   LIG    1       27.146 -17.442   3.897  0.00  0.00    -0.386 OA
ATOM     17  H   LIG    1       27.779 -16.777   3.587  0.00  0.00    +0.210 HD
ENDBRANCH  15  16
BRANCH  15  18
ATOM     18  C   LIG    1       24.969 -18.509   3.324  0.00  0.00    +0.087 C 
BRANCH  18  20
ATOM     19  C   LIG    1       26.056 -20.117   5.063  0.00  0.00    +0.005 C 
ATOM     20  C   LIG    1       25.756 -19.823   3.596  0.00  0.00    +0.018 C 
ENDBRANCH  18  20
BRANCH  18  21
ATOM     21  N   LIG    1       23.941 -18.370   4.397  0.00  0.00    -0.308 NA
ATOM     22  H   LIG    1       24.397 -18.525   5.298  0.00  0.00    +0.122 HD
BRANCH  21  23
ATOM     23  C   LIG    1       22.753 -19.236   4.320  0.00  0.00    +0.048 C 
ATOM     24  C   LIG    1       21.487 -18.382   4.124  0.00  0.00    +0.024 C 
ATOM     25  C   LIG    1       22.556 -20.084   5.579  0.00  0.00    +0.024 C 
ENDBRANCH  21  23
ENDBRANCH  18  21
ENDBRANCH  15  18
ENDBRANCH   1  15
TORSDOF 7
ENDMDL
MODEL 7
REMARK VINA RESULT:      -2.4      0.741      2.069
REMARK  Name = *****
REMARK                            x       y       z     vdW  Elec       q    Type
REMARK                         _______ _______ _______ _____ _____    ______ ____
ROOT
ATOM      1  C   LIG    1       25.825 -17.110   3.642  0.00  0.00    -0.008 A 
ATOM      2  C   LIG    1       25.226 -15.839   3.806  0.00  0.00    +0.008 A 
ATOM      3  C   LIG    1       26.052 -14.704   3.964  0.00  0.00    +0.091 A 
ATOM      4  N   LIG    1       25.488 -13.418   3.950  0.00  0.00    -0.319 N 
ATOM      5  H   LIG    1       26.116 -12.623   3.964  0.00  0.00    +0.169 HD
ATOM      6  C   LIG    1       24.153 -13.168   3.802  0.00  0.00    +0.249 C 
ATOM      7  C   LIG    1       23.272 -14.360   3.830  0.00  0.00    +0.071 C 
ATOM      8  O   LIG    1       23.689 -12.048   3.687  0.00  0.00    -0.268 OA
ATOM      9  C   LIG    1       27.436 -14.828   4.077  0.00  0.00    +0.141 A 
ATOM     10  C   LIG    1       28.034 -16.074   3.981  0.00  0.00    +0.048 A 
ATOM     11  C   LIG    1       23.773 -15.602   3.829  0.00  0.00    +0.015 C 
ATOM     12  C   LIG    1       27.237 -17.196   3.732  0.00  0.00    +0.010 A 
ENDROOT
BRANCH   9  13
ATOM     13  O   LIG    1       28.188 -13.702   4.275  0.00  0.00    -0.505 OA
ATOM     14  H   LIG    1       28.513 -13.389   3.414  0.00  0.00    +0.292 HD
ENDBRANCH   9  13
BRANCH   1  15
ATOM     15  C   LIG    1       25.026 -18.334   3.189  0.00  0.00    +0.162 C 
BRANCH  15  16
ATOM     16  O   LIG    1       25.772 -18.822   2.064  0.00  0.00    -0.386 OA
ATOM     17  H   LIG    1       25.530 -18.278   1.300  0.00  0.00    +0.210 HD
ENDBRANCH  15  16
BRANCH  15  18
ATOM     18  C   LIG    1       24.782 -19.471   4.256  0.00  0.00    +0.087 C 
BRANCH  18  20
ATOM     19  C   LIG    1       26.047 -20.536   6.270  0.00  0.00    +0.005 C 
ATOM     20  C   LIG    1       26.126 -19.979   4.852  0.00  0.00    +0.018 C 
ENDBRANCH  18  20
BRANCH  18  21
ATOM     21  N   LIG    1       23.880 -19.139   5.399  0.00  0.00    -0.308 NA
ATOM     22  H   LIG    1       24.234 -19.613   6.232  0.00  0.00    +0.122 HD
BRANCH  21  23
ATOM     23  C   LIG    1       22.450 -19.456   5.253  0.00  0.00    +0.048 C 
ATOM     24  C   LIG    1       22.266 -20.961   4.983  0.00  0.00    +0.024 C 
ATOM     25  C   LIG    1       21.788 -18.690   4.106  0.00  0.00    +0.024 C 
ENDBRANCH  21  23
ENDBRANCH  18  21
ENDBRANCH  15  18
ENDBRANCH   1  15
TORSDOF 7
ENDMDL
MODEL 8
REMARK VINA RESULT:      -2.3      2.108      6.770
REMARK  Name = *****
REMARK                            x       y       z     vdW  Elec       q    Type
REMARK                         _______ _______ _______ _____ _____    ______ ____
ROOT
ATOM      1  C   LIG    1       24.749 -15.981   3.900  0.00  0.00    -0.008 A 
ATOM      2  C   LIG    1       24.749 -17.394   3.816  0.00  0.00    +0.008 A 
ATOM      3  C   LIG    1       23.532 -18.092   3.969  0.00  0.00    +0.091 A 
ATOM      4  N   LIG    1       23.478 -19.473   3.714  0.00  0.00    -0.319 N 
ATOM      5  H   LIG    1       22.571 -19.924   3.735  0.00  0.00    +0.169 HD
ATOM      6  C   LIG    1       24.552 -20.223   3.327  0.00  0.00    +0.249 C 
ATOM      7  C   LIG    1       25.861 -19.528   3.353  0.00  0.00    +0.071 C 
ATOM      8  O   LIG    1       24.470 -21.395   3.008  0.00  0.00    -0.268 OA
ATOM      9  C   LIG    1       22.355 -17.428   4.315  0.00  0.00    +0.141 A 
ATOM     10  C   LIG    1       22.352 -16.051   4.463  0.00  0.00    +0.048 A 
ATOM     11  C   LIG    1       25.951 -18.211   3.579  0.00  0.00    +0.015 C 
ATOM     12  C   LIG    1       23.529 -15.335   4.225  0.00  0.00    +0.010 A 
ENDROOT
BRANCH   9  13
ATOM     13  O   LIG    1       21.212 -18.157   4.497  0.00  0.00    -0.505 OA
ATOM     14  H   LIG    1       20.669 -17.721   5.175  0.00  0.00    +0.292 HD
ENDBRANCH   9  13
BRANCH   1  15
ATOM     15  C   LIG    1       25.953 -15.140   3.473  0.00  0.00    +0.162 C 
BRANCH  15  16
ATOM     16  O   LIG    1       25.727 -14.921   2.073  0.00  0.00    -0.386 OA
ATOM     17  H   LIG    1       24.776 -15.017   1.916  0.00  0.00    +0.210 HD
ENDBRANCH  15  16
BRANCH  15  18
ATOM     18  C   LIG    1       26.190 -13.779   4.239  0.00  0.00    +0.087 C 
BRANCH  18  20
ATOM     19  C   LIG    1       28.623 -12.984   3.748  0.00  0.00    +0.005 C 
ATOM     20  C   LIG    1       27.664 -13.659   4.723  0.00  0.00    +0.018 C 
ENDBRANCH  18  20
BRANCH  18  21
ATOM     21  N   LIG    1       25.855 -12.525   3.501  0.00  0.00    -0.308 NA
ATOM     22  H   LIG    1       26.199 -11.733   4.047  0.00  0.00    +0.122 HD
BRANCH  21  23
ATOM     23  C   LIG    1       24.440 -12.286   3.171  0.00  0.00    +0.048 C 
ATOM     24  C   LIG    1       24.330 -11.543   1.827  0.00  0.00    +0.024 C 
ATOM     25  C   LIG    1       23.719 -11.449   4.229  0.00  0.00    +0.024 C 
ENDBRANCH  21  23
ENDBRANCH  18  21
ENDBRANCH  15  18
ENDBRANCH   1  15
TORSDOF 7
ENDMDL
MODEL 9
REMARK VINA RESULT:      -2.0      1.998      3.749
REMARK  Name = *****
REMARK                            x       y       z     vdW  Elec       q    Type
REMARK                         _______ _______ _______ _____ _____    ______ ____
ROOT
ATOM      1  C   LIG    1       24.171 -15.003   3.746  0.00  0.00    -0.008 A 
ATOM      2  C   LIG    1       25.535 -14.654   3.602  0.00  0.00    +0.008 A 
ATOM      3  C   LIG    1       25.871 -13.425   2.994  0.00  0.00    +0.091 A 
ATOM      4  N   LIG    1       27.203 -12.980   3.000  0.00  0.00    -0.319 N 
ATOM      5  H   LIG    1       27.395 -12.050   2.646  0.00  0.00    +0.169 HD
ATOM      6  C   LIG    1       28.240 -13.672   3.559  0.00  0.00    +0.249 C 
ATOM      7  C   LIG    1       27.918 -15.042   4.024  0.00  0.00    +0.071 C 
ATOM      8  O   LIG    1       29.370 -13.229   3.651  0.00  0.00    -0.268 OA
ATOM      9  C   LIG    1       24.893 -12.606   2.430  0.00  0.00    +0.141 A 
ATOM     10  C   LIG    1       23.557 -12.963   2.508  0.00  0.00    +0.048 A 
ATOM     11  C   LIG    1       26.658 -15.497   4.045  0.00  0.00    +0.015 C 
ATOM     12  C   LIG    1       23.201 -14.132   3.188  0.00  0.00    +0.010 A 
ENDROOT
BRANCH   9  13
ATOM     13  O   LIG    1       25.275 -11.447   1.812  0.00  0.00    -0.505 OA
ATOM     14  H   LIG    1       25.410 -10.762   2.489  0.00  0.00    +0.292 HD
ENDBRANCH   9  13
BRANCH   1  15
ATOM     15  C   LIG    1       23.716 -16.163   4.632  0.00  0.00    +0.162 C 
BRANCH  15  16
ATOM     16  O   LIG    1       22.496 -15.682   5.214  0.00  0.00    -0.386 OA
ATOM     17  H   LIG    1       22.624 -14.742   5.414  0.00  0.00    +0.210 HD
ENDBRANCH  15  16
BRANCH  15  18
ATOM     18  C   LIG    1       23.507 -17.565   3.934  0.00  0.00    +0.087 C 
BRANCH  18  20
ATOM     19  C   LIG    1       25.668 -18.474   2.797  0.00  0.00    +0.005 C 
ATOM     20  C   LIG    1       24.789 -18.441   4.042  0.00  0.00    +0.018 C 
ENDBRANCH  18  20
BRANCH  18  21
ATOM     21  N   LIG    1       22.357 -18.389   4.410  0.00  0.00    -0.308 NA
ATOM     22  H   LIG    1       21.954 -17.930   5.228  0.00  0.00    +0.122 HD
BRANCH  21  23
ATOM     23  C   LIG    1       22.620 -19.798   4.746  0.00  0.00    +0.048 C 
ATOM     24  C   LIG    1       21.385 -20.658   4.423  0.00  0.00    +0.024 C 
ATOM     25  C   LIG    1       22.958 -19.999   6.224  0.00  0.00    +0.024 C 
ENDBRANCH  21  23
ENDBRANCH  18  21
ENDBRANCH  15  18
ENDBRANCH   1  15
TORSDOF 7
ENDMDL
