MODEL 1
REMARK VINA RESULT:      10.4      0.000      0.000
REMARK  Name = *****
REMARK                            x       y       z     vdW  Elec       q    Type
REMARK                         _______ _______ _______ _____ _____    ______ ____
ROOT
ATOM      1  C   LIG    1       26.761 -12.772   6.640  0.00  0.00    +0.011 C 
ATOM      2  C   LIG    1       26.500 -13.860   5.605  0.00  0.00    +0.026 C 
ATOM      3  C   LIG    1       26.388 -13.403   4.136  0.00  0.00    +0.133 C 
ATOM      4  C   LIG    1       25.698 -14.652   3.464  0.00  0.00    +0.014 C 
ATOM      5  C   LIG    1       24.584 -15.000   4.498  0.00  0.00    +0.005 C 
ATOM      6  C   LIG    1       23.986 -16.434   4.485  0.00  0.00    +0.039 C 
ATOM      7  C   LIG    1       24.771 -17.444   3.635  0.00  0.00    +0.184 C 
ATOM      8  C   LIG    1       26.240 -17.131   3.875  0.00  0.00    +0.172 C 
ATOM      9  O   LIG    1       27.005 -17.840   4.526  0.00  0.00    -0.294 OA
ATOM     10  F   LIG    1       24.500 -17.170   2.312  0.00  0.00    -0.232 F 
ATOM     11  C   LIG    1       24.303 -18.916   3.872  0.00  0.00    +0.049 C 
ATOM     12  C   LIG    1       22.759 -19.010   3.659  0.00  0.00    -0.053 C 
ATOM     13  C   LIG    1       22.189 -20.229   3.817  0.00  0.00    +0.051 C 
ATOM     14  C   LIG    1       22.442 -20.757   5.213  0.00  0.00    +0.179 C 
ATOM     15  C   LIG    1       23.696 -20.310   5.891  0.00  0.00    +0.047 C 
ATOM     16  O   LIG    1       21.690 -21.570   5.733  0.00  0.00    -0.288 OA
ATOM     17  C   LIG    1       21.918 -17.837   4.158  0.00  0.00    +0.032 C 
ATOM     18  C   LIG    1       25.037 -19.819   2.847  0.00  0.00    +0.024 C 
ATOM     19  C   LIG    1       24.562 -19.487   5.271  0.00  0.00    -0.009 C 
ATOM     20  C   LIG    1       22.533 -16.448   3.992  0.00  0.00    +0.011 C 
ATOM     21  C   LIG    1       25.107 -14.275   2.090  0.00  0.00    +0.015 C 
ATOM     22  C   LIG    1       26.714 -15.824   3.267  0.00  0.00    +0.088 C 
ATOM     23  C   LIG    1       25.222 -14.667   5.877  0.00  0.00    +0.011 C 
ENDROOT
BRANCH   3  24
ATOM     24  O   LIG    1       27.688 -13.222   3.585  0.00  0.00    -0.380 OA
ATOM     25  H   LIG    1       27.597 -12.843   2.690  0.00  0.00    +0.211 HD
ENDBRANCH   3  24
BRANCH   3  26
ATOM     26  C   LIG    1       25.542 -12.097   3.984  0.00  0.00    +0.180 C 
ATOM     27  O   LIG    1       24.911 -11.611   4.928  0.00  0.00    -0.293 OA
BRANCH  26  28
ATOM     28  C   LIG    1       25.494 -11.447   2.622  0.00  0.00    +0.186 C 
ATOM     29 CL   LIG    1       23.983 -11.913   1.819  0.00  0.00    -0.117 Cl
ENDBRANCH  26  28
ENDBRANCH   3  26
TORSDOF 3
ENDMDL
MODEL 2
REMARK VINA RESULT:      10.5      2.404      6.850
REMARK  Name = *****
REMARK                            x       y       z     vdW  Elec       q    Type
REMARK                         _______ _______ _______ _____ _____    ______ ____
ROOT
ATOM      1  C   LIG    1       23.093 -20.742   6.858  0.00  0.00    +0.011 C 
ATOM      2  C   LIG    1       23.001 -19.480   6.008  0.00  0.00    +0.026 C 
ATOM      3  C   LIG    1       22.291 -19.615   4.645  0.00  0.00    +0.133 C 
ATOM      4  C   LIG    1       22.772 -18.310   3.903  0.00  0.00    +0.014 C 
ATOM      5  C   LIG    1       24.292 -18.284   4.248  0.00  0.00    +0.005 C 
ATOM      6  C   LIG    1       25.053 -16.933   4.135  0.00  0.00    +0.039 C 
ATOM      7  C   LIG    1       24.148 -15.704   3.972  0.00  0.00    +0.184 C 
ATOM      8  C   LIG    1       22.958 -15.943   4.890  0.00  0.00    +0.172 C 
ATOM      9  O   LIG    1       22.754 -15.333   5.938  0.00  0.00    -0.294 OA
ATOM     10  F   LIG    1       23.678 -15.705   2.677  0.00  0.00    -0.232 F 
ATOM     11  C   LIG    1       24.927 -14.360   4.143  0.00  0.00    +0.049 C 
ATOM     12  C   LIG    1       26.154 -14.346   3.177  0.00  0.00    -0.053 C 
ATOM     13  C   LIG    1       26.936 -13.240   3.192  0.00  0.00    +0.051 C 
ATOM     14  C   LIG    1       27.504 -13.009   4.577  0.00  0.00    +0.179 C 
ATOM     15  C   LIG    1       26.688 -13.490   5.734  0.00  0.00    +0.047 C 
ATOM     16  O   LIG    1       28.546 -12.391   4.744  0.00  0.00    -0.288 OA
ATOM     17  C   LIG    1       26.905 -15.663   2.992  0.00  0.00    +0.032 C 
ATOM     18  C   LIG    1       23.959 -13.201   3.790  0.00  0.00    +0.024 C 
ATOM     19  C   LIG    1       25.498 -14.088   5.540  0.00  0.00    -0.009 C 
ATOM     20  C   LIG    1       26.050 -16.929   2.969  0.00  0.00    +0.011 C 
ATOM     21  C   LIG    1       22.531 -18.425   2.384  0.00  0.00    +0.015 C 
ATOM     22  C   LIG    1       22.020 -17.045   4.433  0.00  0.00    +0.088 C 
ATOM     23  C   LIG    1       24.368 -18.856   5.692  0.00  0.00    +0.011 C 
ENDROOT
BRANCH   3  24
ATOM     24  O   LIG    1       20.880 -19.568   4.828  0.00  0.00    -0.380 OA
ATOM     25  H   LIG    1       20.584 -20.427   5.187  0.00  0.00    +0.211 HD
ENDBRANCH   3  24
BRANCH   3  26
ATOM     26  C   LIG    1       22.702 -20.920   3.890  0.00  0.00    +0.180 C 
ATOM     27  O   LIG    1       21.896 -21.572   3.218  0.00  0.00    -0.293 OA
BRANCH  26  28
ATOM     28  C   LIG    1       24.132 -21.388   4.026  0.00  0.00    +0.186 C 
ATOM     29 CL   LIG    1       25.065 -20.783   2.645  0.00  0.00    -0.117 Cl
ENDBRANCH  26  28
ENDBRANCH   3  26
TORSDOF 3
ENDMDL
