MODEL 1
REMARK VINA RESULT:       8.5      0.000      0.000
REMARK  Name = *****
REMARK                            x       y       z     vdW  Elec       q    Type
REMARK                         _______ _______ _______ _____ _____    ______ ____
ROOT
ATOM      1  C   LIG    1       25.668 -21.025   3.964  0.00  0.00    +0.012 C 
ATOM      2  C   LIG    1       24.508 -20.102   3.569  0.00  0.00    +0.039 C 
ATOM      3  C   LIG    1       23.581 -19.472   4.674  0.00  0.00    +0.189 C 
ATOM      4  C   LIG    1       22.991 -18.204   3.879  0.00  0.00    +0.022 C 
ATOM      5  C   LIG    1       24.195 -17.680   3.045  0.00  0.00    +0.006 C 
ATOM      6  C   LIG    1       25.007 -16.478   3.577  0.00  0.00    +0.037 C 
ATOM      7  C   LIG    1       24.129 -15.363   4.198  0.00  0.00    +0.153 C 
ATOM      8  C   LIG    1       23.304 -16.038   5.322  0.00  0.00    +0.154 C 
ATOM      9  F   LIG    1       23.230 -14.991   3.216  0.00  0.00    -0.238 F 
ATOM     10  C   LIG    1       24.932 -14.039   4.604  0.00  0.00    +0.047 C 
ATOM     11  C   LIG    1       26.056 -13.683   3.581  0.00  0.00    -0.020 C 
ATOM     12  C   LIG    1       26.869 -12.638   3.870  0.00  0.00    +0.054 C 
ATOM     13  C   LIG    1       27.640 -12.966   5.129  0.00  0.00    +0.179 C 
ATOM     14  C   LIG    1       26.855 -13.633   6.213  0.00  0.00    +0.047 C 
ATOM     15  O   LIG    1       28.795 -12.602   5.287  0.00  0.00    -0.288 OA
ATOM     16  C   LIG    1       26.750 -14.837   2.892  0.00  0.00    +0.194 C 
ATOM     17  F   LIG    1       27.608 -15.457   3.755  0.00  0.00    -0.241 F 
ATOM     18  C   LIG    1       23.936 -12.844   4.688  0.00  0.00    +0.023 C 
ATOM     19  C   LIG    1       25.613 -14.100   5.979  0.00  0.00    -0.009 C 
ATOM     20  C   LIG    1       25.793 -15.887   2.393  0.00  0.00    +0.048 C 
ATOM     21  C   LIG    1       21.950 -18.551   2.761  0.00  0.00    +0.016 C 
ATOM     22  C   LIG    1       22.359 -17.106   4.757  0.00  0.00    +0.046 C 
ATOM     23  C   LIG    1       25.054 -18.922   2.743  0.00  0.00    +0.012 C 
ENDROOT
BRANCH   3  24
ATOM     24  C   LIG    1       22.616 -20.606   5.224  0.00  0.00    +0.236 C 
ATOM     25  O   LIG    1       22.637 -20.949   6.406  0.00  0.00    -0.281 OA
BRANCH  24  26
ATOM     26  S   LIG    1       21.628 -21.572   4.135  0.00  0.00    -0.051 S 
BRANCH  26  27
ATOM     27  C   LIG    1       20.006 -20.847   4.445  0.00  0.00    +0.290 C 
ATOM     28  F   LIG    1       19.758 -19.817   3.603  0.00  0.00    -0.237 F 
ENDBRANCH  26  27
ENDBRANCH  24  26
ENDBRANCH   3  24
BRANCH   8  29
ATOM     29  O   LIG    1       22.525 -15.128   6.093  0.00  0.00    -0.389 OA
ATOM     30  H   LIG    1       22.899 -14.234   5.989  0.00  0.00    +0.210 HD
ENDBRANCH   8  29
BRANCH   3  31
ATOM     31  O   LIG    1       24.477 -19.073   5.774  0.00  0.00    -0.443 OA
BRANCH  31  32
ATOM     32  C   LIG    1       25.164 -20.069   6.455  0.00  0.00    +0.376 C 
ATOM     33  O   LIG    1       24.610 -20.969   7.058  0.00  0.00    -0.241 OA
BRANCH  32  34
ATOM     34  C   LIG    1       26.611 -19.923   6.340  0.00  0.00    +0.211 A 
ATOM     35  O   LIG    1       27.178 -19.095   5.406  0.00  0.00    -0.456 OA
ATOM     36  C   LIG    1       28.526 -19.244   5.503  0.00  0.00    +0.196 A 
ATOM     37  C   LIG    1       28.850 -20.147   6.491  0.00  0.00    +0.042 A 
ATOM     38  C   LIG    1       27.613 -20.565   7.040  0.00  0.00    +0.056 A 
ENDBRANCH  32  34
ENDBRANCH  31  32
ENDBRANCH   3  31
TORSDOF 7
ENDMDL
