MODEL 1
REMARK VINA RESULT:      -6.3      0.000      0.000
REMARK  Name = *****
REMARK                            x       y       z     vdW  Elec       q    Type
REMARK                         _______ _______ _______ _____ _____    ______ ____
ROOT
ATOM      1  C   LIG    1       29.425 -20.069   7.809  0.00  0.00    +0.023 C 
ATOM      2  N   LIG    1       29.949 -18.842   8.145  0.00  0.00    -0.339 N 
ATOM      3  H   LIG    1       29.462 -17.994   7.871  0.00  0.00    +0.168 HD
ATOM      4  C   LIG    1       31.119 -18.681   8.830  0.00  0.00    +0.158 C 
ATOM      5  S   LIG    1       31.714 -17.171   9.189  0.00  0.00    -0.013 S 
ATOM      6  N   LIG    1       31.769 -19.820   9.201  0.00  0.00    -0.303 N 
ATOM      7  H   LIG    1       32.635 -19.739   9.714  0.00  0.00    +0.171 HD
ATOM      8  C   LIG    1       31.327 -21.089   8.939  0.00  0.00    +0.252 C 
ATOM      9  O   LIG    1       31.928 -22.093   9.302  0.00  0.00    -0.268 OA
ATOM     10  C   LIG    1       30.062 -21.188   8.182  0.00  0.00    +0.091 C 
ENDROOT
BRANCH   1  11
ATOM     11  C   LIG    1       28.125 -20.083   7.043  0.00  0.00    +0.053 C 
BRANCH  11  13
ATOM     12  C   LIG    1       26.114 -20.588   8.481  0.00  0.00    +0.004 C 
ATOM     13  C   LIG    1       27.162 -21.164   7.540  0.00  0.00    +0.003 C 
ENDBRANCH  11  13
ENDBRANCH   1  11
TORSDOF 2
ENDMDL
MODEL 2
REMARK VINA RESULT:      -6.2      3.847      4.931
REMARK  Name = *****
REMARK                            x       y       z     vdW  Elec       q    Type
REMARK                         _______ _______ _______ _____ _____    ______ ____
ROOT
ATOM      1  C   LIG    1       25.381 -20.688   5.977  0.00  0.00    +0.023 C 
ATOM      2  N   LIG    1       26.674 -20.364   5.636  0.00  0.00    -0.339 N 
ATOM      3  H   LIG    1       26.925 -20.257   4.658  0.00  0.00    +0.168 HD
ATOM      4  C   LIG    1       27.674 -20.181   6.547  0.00  0.00    +0.158 C 
ATOM      5  S   LIG    1       29.223 -19.810   6.073  0.00  0.00    -0.013 S 
ATOM      6  N   LIG    1       27.334 -20.319   7.860  0.00  0.00    -0.303 N 
ATOM      7  H   LIG    1       28.047 -20.185   8.562  0.00  0.00    +0.171 HD
ATOM      8  C   LIG    1       26.077 -20.618   8.311  0.00  0.00    +0.252 C 
ATOM      9  O   LIG    1       25.801 -20.719   9.500  0.00  0.00    -0.268 OA
ATOM     10  C   LIG    1       25.048 -20.816   7.270  0.00  0.00    +0.091 C 
ENDROOT
BRANCH   1  11
ATOM     11  C   LIG    1       24.390 -20.864   4.853  0.00  0.00    +0.053 C 
BRANCH  11  13
ATOM     12  C   LIG    1       22.480 -19.216   4.907  0.00  0.00    +0.004 C 
ATOM     13  C   LIG    1       22.947 -20.610   5.298  0.00  0.00    +0.003 C 
ENDBRANCH  11  13
ENDBRANCH   1  11
TORSDOF 2
ENDMDL
MODEL 3
REMARK VINA RESULT:      -6.2      6.113      7.117
REMARK  Name = *****
REMARK                            x       y       z     vdW  Elec       q    Type
REMARK                         _______ _______ _______ _____ _____    ______ ____
ROOT
ATOM      1  C   LIG    1       23.513 -21.488   6.122  0.00  0.00    +0.023 C 
ATOM      2  N   LIG    1       23.911 -22.695   5.593  0.00  0.00    -0.339 N 
ATOM      3  H   LIG    1       23.514 -23.015   4.715  0.00  0.00    +0.168 HD
ATOM      4  C   LIG    1       24.821 -23.520   6.190  0.00  0.00    +0.158 C 
ATOM      5  S   LIG    1       25.247 -24.976   5.513  0.00  0.00    -0.013 S 
ATOM      6  N   LIG    1       25.357 -23.085   7.366  0.00  0.00    -0.303 N 
ATOM      7  H   LIG    1       26.037 -23.667   7.833  0.00  0.00    +0.171 HD
ATOM      8  C   LIG    1       25.050 -21.896   7.969  0.00  0.00    +0.252 C 
ATOM      9  O   LIG    1       25.562 -21.528   9.019  0.00  0.00    -0.268 OA
ATOM     10  C   LIG    1       24.048 -21.060   7.275  0.00  0.00    +0.091 C 
ENDROOT
BRANCH   1  11
ATOM     11  C   LIG    1       22.492 -20.693   5.347  0.00  0.00    +0.053 C 
BRANCH  11  13
ATOM     12  C   LIG    1       22.196 -18.333   4.502  0.00  0.00    +0.004 C 
ATOM     13  C   LIG    1       23.121 -19.540   4.559  0.00  0.00    +0.003 C 
ENDBRANCH  11  13
ENDBRANCH   1  11
TORSDOF 2
ENDMDL
MODEL 4
REMARK VINA RESULT:      -6.1      5.037      6.074
REMARK  Name = *****
REMARK                            x       y       z     vdW  Elec       q    Type
REMARK                         _______ _______ _______ _____ _____    ______ ____
ROOT
ATOM      1  C   LIG    1       25.686 -23.155   6.948  0.00  0.00    +0.023 C 
ATOM      2  N   LIG    1       25.552 -22.363   5.830  0.00  0.00    -0.339 N 
ATOM      3  H   LIG    1       25.441 -22.795   4.918  0.00  0.00    +0.168 HD
ATOM      4  C   LIG    1       25.569 -20.998   5.863  0.00  0.00    +0.158 C 
ATOM      5  S   LIG    1       25.423 -20.095   4.476  0.00  0.00    -0.013 S 
ATOM      6  N   LIG    1       25.713 -20.420   7.089  0.00  0.00    -0.303 N 
ATOM      7  H   LIG    1       25.724 -19.413   7.152  0.00  0.00    +0.171 HD
ATOM      8  C   LIG    1       25.831 -21.110   8.265  0.00  0.00    +0.252 C 
ATOM      9  O   LIG    1       25.943 -20.559   9.354  0.00  0.00    -0.268 OA
ATOM     10  C   LIG    1       25.819 -22.583   8.154  0.00  0.00    +0.091 C 
ENDROOT
BRANCH   1  11
ATOM     11  C   LIG    1       25.654 -24.650   6.748  0.00  0.00    +0.053 C 
BRANCH  11  13
ATOM     12  C   LIG    1       24.302 -26.640   5.987  0.00  0.00    +0.004 C 
ATOM     13  C   LIG    1       24.275 -25.154   6.313  0.00  0.00    +0.003 C 
ENDBRANCH  11  13
ENDBRANCH   1  11
TORSDOF 2
ENDMDL
MODEL 5
REMARK VINA RESULT:      -6.0      4.348      5.458
REMARK  Name = *****
REMARK                            x       y       z     vdW  Elec       q    Type
REMARK                         _______ _______ _______ _____ _____    ______ ____
ROOT
ATOM      1  C   LIG    1       27.704 -20.194   6.468  0.00  0.00    +0.023 C 
ATOM      2  N   LIG    1       26.696 -20.437   5.563  0.00  0.00    -0.339 N 
ATOM      3  H   LIG    1       26.891 -20.388   4.568  0.00  0.00    +0.168 HD
ATOM      4  C   LIG    1       25.412 -20.735   5.921  0.00  0.00    +0.158 C 
ATOM      5  S   LIG    1       24.232 -20.999   4.782  0.00  0.00    -0.013 S 
ATOM      6  N   LIG    1       25.154 -20.805   7.258  0.00  0.00    -0.303 N 
ATOM      7  H   LIG    1       24.217 -21.029   7.560  0.00  0.00    +0.171 HD
ATOM      8  C   LIG    1       26.084 -20.604   8.242  0.00  0.00    +0.252 C 
ATOM      9  O   LIG    1       25.822 -20.690   9.435  0.00  0.00    -0.268 OA
ATOM     10  C   LIG    1       27.448 -20.271   7.782  0.00  0.00    +0.091 C 
ENDROOT
BRANCH   1  11
ATOM     11  C   LIG    1       29.069 -19.869   5.916  0.00  0.00    +0.053 C 
BRANCH  11  13
ATOM     12  C   LIG    1       31.142 -19.268   7.223  0.00  0.00    +0.004 C 
ATOM     13  C   LIG    1       29.788 -18.786   6.725  0.00  0.00    +0.003 C 
ENDBRANCH  11  13
ENDBRANCH   1  11
TORSDOF 2
ENDMDL
MODEL 6
REMARK VINA RESULT:      -5.8      4.998      6.126
REMARK  Name = *****
REMARK                            x       y       z     vdW  Elec       q    Type
REMARK                         _______ _______ _______ _____ _____    ______ ____
ROOT
ATOM      1  C   LIG    1       24.536 -21.166   6.417  0.00  0.00    +0.023 C 
ATOM      2  N   LIG    1       25.823 -21.033   6.886  0.00  0.00    -0.339 N 
ATOM      3  H   LIG    1       26.051 -21.342   7.826  0.00  0.00    +0.168 HD
ATOM      4  C   LIG    1       26.842 -20.487   6.159  0.00  0.00    +0.158 C 
ATOM      5  S   LIG    1       28.372 -20.333   6.787  0.00  0.00    -0.013 S 
ATOM      6  N   LIG    1       26.535 -20.077   4.895  0.00  0.00    -0.303 N 
ATOM      7  H   LIG    1       27.265 -19.673   4.326  0.00  0.00    +0.171 HD
ATOM      8  C   LIG    1       25.297 -20.182   4.322  0.00  0.00    +0.252 C 
ATOM      9  O   LIG    1       25.059 -19.817   3.177  0.00  0.00    -0.268 OA
ATOM     10  C   LIG    1       24.240 -20.769   5.171  0.00  0.00    +0.091 C 
ENDROOT
BRANCH   1  11
ATOM     11  C   LIG    1       23.520 -21.783   7.345  0.00  0.00    +0.053 C 
BRANCH  11  13
ATOM     12  C   LIG    1       23.732 -24.204   6.666  0.00  0.00    +0.004 C 
ATOM     13  C   LIG    1       22.814 -22.992   6.723  0.00  0.00    +0.003 C 
ENDBRANCH  11  13
ENDBRANCH   1  11
TORSDOF 2
ENDMDL
MODEL 7
REMARK VINA RESULT:      -5.7      5.638      7.077
REMARK  Name = *****
REMARK                            x       y       z     vdW  Elec       q    Type
REMARK                         _______ _______ _______ _____ _____    ______ ____
ROOT
ATOM      1  C   LIG    1       24.967 -21.561   7.550  0.00  0.00    +0.023 C 
ATOM      2  N   LIG    1       24.347 -20.634   6.743  0.00  0.00    -0.339 N 
ATOM      3  H   LIG    1       24.683 -19.676   6.728  0.00  0.00    +0.168 HD
ATOM      4  C   LIG    1       23.274 -20.919   5.949  0.00  0.00    +0.158 C 
ATOM      5  S   LIG    1       22.554 -19.751   5.011  0.00  0.00    -0.013 S 
ATOM      6  N   LIG    1       22.827 -22.207   5.968  0.00  0.00    -0.303 N 
ATOM      7  H   LIG    1       22.039 -22.455   5.388  0.00  0.00    +0.171 HD
ATOM      8  C   LIG    1       23.381 -23.212   6.714  0.00  0.00    +0.252 C 
ATOM      9  O   LIG    1       22.965 -24.364   6.696  0.00  0.00    -0.268 OA
ATOM     10  C   LIG    1       24.530 -22.829   7.560  0.00  0.00    +0.091 C 
ENDROOT
BRANCH   1  11
ATOM     11  C   LIG    1       26.138 -21.090   8.376  0.00  0.00    +0.053 C 
BRANCH  11  13
ATOM     12  C   LIG    1       28.382 -21.277   7.238  0.00  0.00    +0.004 C 
ATOM     13  C   LIG    1       27.197 -20.371   7.536  0.00  0.00    +0.003 C 
ENDBRANCH  11  13
ENDBRANCH   1  11
TORSDOF 2
ENDMDL
MODEL 8
REMARK VINA RESULT:      -5.7      4.421      5.591
REMARK  Name = *****
REMARK                            x       y       z     vdW  Elec       q    Type
REMARK                         _______ _______ _______ _____ _____    ______ ____
ROOT
ATOM      1  C   LIG    1       24.460 -21.284   6.762  0.00  0.00    +0.023 C 
ATOM      2  N   LIG    1       25.630 -20.563   6.693  0.00  0.00    -0.339 N 
ATOM      3  H   LIG    1       25.593 -19.555   6.577  0.00  0.00    +0.168 HD
ATOM      4  C   LIG    1       26.871 -21.126   6.760  0.00  0.00    +0.158 C 
ATOM      5  S   LIG    1       28.250 -20.205   6.650  0.00  0.00    -0.013 S 
ATOM      6  N   LIG    1       26.918 -22.479   6.922  0.00  0.00    -0.303 N 
ATOM      7  H   LIG    1       27.819 -22.930   6.981  0.00  0.00    +0.171 HD
ATOM      8  C   LIG    1       25.819 -23.289   7.024  0.00  0.00    +0.252 C 
ATOM      9  O   LIG    1       25.896 -24.501   7.185  0.00  0.00    -0.268 OA
ATOM     10  C   LIG    1       24.509 -22.613   6.929  0.00  0.00    +0.091 C 
ENDROOT
BRANCH   1  11
ATOM     11  C   LIG    1       23.164 -20.517   6.666  0.00  0.00    +0.053 C 
BRANCH  11  13
ATOM     12  C   LIG    1       22.397 -18.998   4.803  0.00  0.00    +0.004 C 
ATOM     13  C   LIG    1       22.634 -20.438   5.231  0.00  0.00    +0.003 C 
ENDBRANCH  11  13
ENDBRANCH   1  11
TORSDOF 2
ENDMDL
MODEL 9
REMARK VINA RESULT:      -5.7      6.356      7.596
REMARK  Name = *****
REMARK                            x       y       z     vdW  Elec       q    Type
REMARK                         _______ _______ _______ _____ _____    ______ ____
ROOT
ATOM      1  C   LIG    1       25.691 -23.209   6.933  0.00  0.00    +0.023 C 
ATOM      2  N   LIG    1       26.099 -24.357   6.292  0.00  0.00    -0.339 N 
ATOM      3  H   LIG    1       27.090 -24.532   6.156  0.00  0.00    +0.168 HD
ATOM      4  C   LIG    1       25.238 -25.297   5.802  0.00  0.00    +0.158 C 
ATOM      5  S   LIG    1       25.790 -26.654   5.018  0.00  0.00    -0.013 S 
ATOM      6  N   LIG    1       23.909 -25.062   5.991  0.00  0.00    -0.303 N 
ATOM      7  H   LIG    1       23.243 -25.739   5.647  0.00  0.00    +0.171 HD
ATOM      8  C   LIG    1       23.395 -23.968   6.633  0.00  0.00    +0.252 C 
ATOM      9  O   LIG    1       22.194 -23.795   6.800  0.00  0.00    -0.268 OA
ATOM     10  C   LIG    1       24.383 -22.985   7.125  0.00  0.00    +0.091 C 
ENDROOT
BRANCH   1  11
ATOM     11  C   LIG    1       26.764 -22.263   7.412  0.00  0.00    +0.053 C 
BRANCH  11  13
ATOM     12  C   LIG    1       26.563 -20.304   5.833  0.00  0.00    +0.004 C 
ATOM     13  C   LIG    1       26.361 -20.793   7.260  0.00  0.00    +0.003 C 
ENDBRANCH  11  13
ENDBRANCH   1  11
TORSDOF 2
ENDMDL
