MODEL 1
REMARK VINA RESULT:      -5.5      0.000      0.000
REMARK  Name = *****
REMARK                            x       y       z     vdW  Elec       q    Type
REMARK                         _______ _______ _______ _____ _____    ______ ____
ROOT
ATOM      1  C   LIG    1       27.705 -20.311   5.718  0.00  0.00    +0.059 C 
ATOM      2  C   LIG    1       26.382 -21.038   5.846  0.00  0.00    +0.037 C 
ATOM      3  C   LIG    1       27.059 -20.447   7.062  0.00  0.00    +0.029 C 
ENDROOT
BRANCH   2   4
ATOM      4  C   LIG    1       25.079 -20.453   5.347  0.00  0.00    -0.043 A 
ATOM      5  C   LIG    1       24.983 -19.853   4.080  0.00  0.00    +0.004 A 
ATOM      6  C   LIG    1       23.784 -19.295   3.626  0.00  0.00    +0.000 A 
ATOM      7  C   LIG    1       22.654 -19.316   4.439  0.00  0.00    +0.000 A 
ATOM      8  C   LIG    1       22.725 -19.892   5.703  0.00  0.00    +0.000 A 
ATOM      9  C   LIG    1       23.927 -20.448   6.151  0.00  0.00    +0.004 A 
ENDBRANCH   2   4
BRANCH   1  10
ATOM     10  N   LIG    1       27.815 -18.981   5.117  0.00  0.00    -0.327 NA
ATOM     11  H   LIG    1       28.652 -18.912   4.537  0.00  0.00    +0.118 HD
ATOM     12  H   LIG    1       27.029 -18.802   4.495  0.00  0.00    +0.118 HD
ENDBRANCH   1  10
TORSDOF 2
ENDMDL
MODEL 2
REMARK VINA RESULT:      -5.3      6.797      7.545
REMARK  Name = *****
REMARK                            x       y       z     vdW  Elec       q    Type
REMARK                         _______ _______ _______ _____ _____    ______ ____
ROOT
ATOM      1  C   LIG    1       28.298 -13.896   3.439  0.00  0.00    +0.059 C 
ATOM      2  C   LIG    1       26.933 -14.127   2.825  0.00  0.00    +0.037 C 
ATOM      3  C   LIG    1       27.429 -15.002   3.953  0.00  0.00    +0.029 C 
ENDROOT
BRANCH   2   4
ATOM      4  C   LIG    1       25.769 -13.188   3.050  0.00  0.00    -0.043 A 
ATOM      5  C   LIG    1       25.087 -13.148   4.279  0.00  0.00    +0.004 A 
ATOM      6  C   LIG    1       23.998 -12.295   4.481  0.00  0.00    +0.000 A 
ATOM      7  C   LIG    1       23.560 -11.469   3.451  0.00  0.00    +0.000 A 
ATOM      8  C   LIG    1       24.208 -11.498   2.221  0.00  0.00    +0.000 A 
ATOM      9  C   LIG    1       25.295 -12.354   2.024  0.00  0.00    +0.004 A 
ENDBRANCH   2   4
BRANCH   1  10
ATOM     10  N   LIG    1       28.585 -12.757   4.312  0.00  0.00    -0.327 NA
ATOM     11  H   LIG    1       29.493 -12.865   4.765  0.00  0.00    +0.118 HD
ATOM     12  H   LIG    1       28.644 -11.896   3.770  0.00  0.00    +0.118 HD
ENDBRANCH   1  10
TORSDOF 2
ENDMDL
MODEL 3
REMARK VINA RESULT:      -5.2      6.740      7.322
REMARK  Name = *****
REMARK                            x       y       z     vdW  Elec       q    Type
REMARK                         _______ _______ _______ _____ _____    ______ ____
ROOT
ATOM      1  C   LIG    1       28.177 -14.000   3.321  0.00  0.00    +0.059 C 
ATOM      2  C   LIG    1       26.725 -14.373   3.101  0.00  0.00    +0.037 C 
ATOM      3  C   LIG    1       27.454 -14.812   4.350  0.00  0.00    +0.029 C 
ENDROOT
BRANCH   2   4
ATOM      4  C   LIG    1       25.601 -13.366   3.195  0.00  0.00    -0.043 A 
ATOM      5  C   LIG    1       25.250 -12.555   2.102  0.00  0.00    +0.004 A 
ATOM      6  C   LIG    1       24.225 -11.609   2.195  0.00  0.00    +0.000 A 
ATOM      7  C   LIG    1       23.533 -11.447   3.392  0.00  0.00    +0.000 A 
ATOM      8  C   LIG    1       23.869 -12.227   4.493  0.00  0.00    +0.000 A 
ATOM      9  C   LIG    1       24.896 -13.169   4.394  0.00  0.00    +0.004 A 
ENDBRANCH   2   4
BRANCH   1  10
ATOM     10  N   LIG    1       28.595 -12.638   3.659  0.00  0.00    -0.327 NA
ATOM     11  H   LIG    1       29.513 -12.431   3.263  0.00  0.00    +0.118 HD
ATOM     12  H   LIG    1       27.956 -11.956   3.255  0.00  0.00    +0.118 HD
ENDBRANCH   1  10
TORSDOF 2
ENDMDL
MODEL 4
REMARK VINA RESULT:      -4.7      6.648      8.079
REMARK  Name = *****
REMARK                            x       y       z     vdW  Elec       q    Type
REMARK                         _______ _______ _______ _____ _____    ______ ____
ROOT
ATOM      1  C   LIG    1       23.698 -12.042   2.879  0.00  0.00    +0.059 C 
ATOM      2  C   LIG    1       24.642 -12.945   2.113  0.00  0.00    +0.037 C 
ATOM      3  C   LIG    1       24.675 -11.447   1.913  0.00  0.00    +0.029 C 
ENDROOT
BRANCH   2   4
ATOM      4  C   LIG    1       25.811 -13.646   2.769  0.00  0.00    -0.043 A 
ATOM      5  C   LIG    1       25.730 -14.993   3.163  0.00  0.00    +0.004 A 
ATOM      6  C   LIG    1       26.803 -15.636   3.788  0.00  0.00    +0.000 A 
ATOM      7  C   LIG    1       27.981 -14.939   4.041  0.00  0.00    +0.000 A 
ATOM      8  C   LIG    1       28.083 -13.602   3.673  0.00  0.00    +0.000 A 
ATOM      9  C   LIG    1       27.006 -12.964   3.050  0.00  0.00    +0.004 A 
ENDBRANCH   2   4
BRANCH   1  10
ATOM     10  N   LIG    1       23.859 -11.768   4.308  0.00  0.00    -0.327 NA
ATOM     11  H   LIG    1       24.132 -12.613   4.812  0.00  0.00    +0.118 HD
ATOM     12  H   LIG    1       24.610 -11.097   4.462  0.00  0.00    +0.118 HD
ENDBRANCH   1  10
TORSDOF 2
ENDMDL
MODEL 5
REMARK VINA RESULT:      -4.2      1.898      4.252
REMARK  Name = *****
REMARK                            x       y       z     vdW  Elec       q    Type
REMARK                         _______ _______ _______ _____ _____    ______ ____
ROOT
ATOM      1  C   LIG    1       21.983 -19.204   4.847  0.00  0.00    +0.059 C 
ATOM      2  C   LIG    1       22.702 -20.414   5.407  0.00  0.00    +0.037 C 
ATOM      3  C   LIG    1       22.135 -20.434   4.006  0.00  0.00    +0.029 C 
ENDROOT
BRANCH   2   4
ATOM      4  C   LIG    1       24.200 -20.445   5.618  0.00  0.00    -0.043 A 
ATOM      5  C   LIG    1       24.758 -20.790   6.861  0.00  0.00    +0.004 A 
ATOM      6  C   LIG    1       26.141 -20.799   7.062  0.00  0.00    +0.000 A 
ATOM      7  C   LIG    1       26.999 -20.453   6.022  0.00  0.00    +0.000 A 
ATOM      8  C   LIG    1       26.473 -20.095   4.785  0.00  0.00    +0.000 A 
ATOM      9  C   LIG    1       25.089 -20.086   4.591  0.00  0.00    +0.004 A 
ENDBRANCH   2   4
BRANCH   1  10
ATOM     10  N   LIG    1       22.687 -17.984   4.451  0.00  0.00    -0.327 NA
ATOM     11  H   LIG    1       23.503 -18.205   3.878  0.00  0.00    +0.118 HD
ATOM     12  H   LIG    1       22.090 -17.397   3.870  0.00  0.00    +0.118 HD
ENDBRANCH   1  10
TORSDOF 2
ENDMDL
MODEL 6
REMARK VINA RESULT:      -4.1      1.659      3.890
REMARK  Name = *****
REMARK                            x       y       z     vdW  Elec       q    Type
REMARK                         _______ _______ _______ _____ _____    ______ ____
ROOT
ATOM      1  C   LIG    1       24.835 -18.680   3.370  0.00  0.00    +0.059 C 
ATOM      2  C   LIG    1       24.760 -19.759   4.430  0.00  0.00    +0.037 C 
ATOM      3  C   LIG    1       24.721 -20.116   2.961  0.00  0.00    +0.029 C 
ENDROOT
BRANCH   2   4
ATOM      4  C   LIG    1       25.951 -20.156   5.274  0.00  0.00    -0.043 A 
ATOM      5  C   LIG    1       27.227 -19.614   5.043  0.00  0.00    +0.004 A 
ATOM      6  C   LIG    1       28.331 -19.996   5.810  0.00  0.00    +0.000 A 
ATOM      7  C   LIG    1       28.184 -20.941   6.821  0.00  0.00    +0.000 A 
ATOM      8  C   LIG    1       26.935 -21.504   7.062  0.00  0.00    +0.000 A 
ATOM      9  C   LIG    1       25.835 -21.118   6.291  0.00  0.00    +0.004 A 
ENDBRANCH   2   4
BRANCH   1  10
ATOM     10  N   LIG    1       26.072 -17.955   3.072  0.00  0.00    -0.327 NA
ATOM     11  H   LIG    1       26.680 -18.507   2.466  0.00  0.00    +0.118 HD
ATOM     12  H   LIG    1       25.871 -17.098   2.559  0.00  0.00    +0.118 HD
ENDBRANCH   1  10
TORSDOF 2
ENDMDL
MODEL 7
REMARK VINA RESULT:      -4.1      6.832      8.066
REMARK  Name = *****
REMARK                            x       y       z     vdW  Elec       q    Type
REMARK                         _______ _______ _______ _____ _____    ______ ____
ROOT
ATOM      1  C   LIG    1       23.596 -13.057   4.438  0.00  0.00    +0.059 C 
ATOM      2  C   LIG    1       24.723 -14.068   4.424  0.00  0.00    +0.037 C 
ATOM      3  C   LIG    1       23.797 -13.929   3.238  0.00  0.00    +0.029 C 
ENDROOT
BRANCH   2   4
ATOM      4  C   LIG    1       26.176 -13.667   4.301  0.00  0.00    -0.043 A 
ATOM      5  C   LIG    1       26.924 -13.265   5.421  0.00  0.00    +0.004 A 
ATOM      6  C   LIG    1       28.261 -12.874   5.304  0.00  0.00    +0.000 A 
ATOM      7  C   LIG    1       28.878 -12.868   4.057  0.00  0.00    +0.000 A 
ATOM      8  C   LIG    1       28.158 -13.250   2.929  0.00  0.00    +0.000 A 
ATOM      9  C   LIG    1       26.821 -13.638   3.053  0.00  0.00    +0.004 A 
ENDBRANCH   2   4
BRANCH   1  10
ATOM     10  N   LIG    1       23.830 -11.617   4.314  0.00  0.00    -0.327 NA
ATOM     11  H   LIG    1       23.906 -11.344   3.333  0.00  0.00    +0.118 HD
ATOM     12  H   LIG    1       23.042 -11.092   4.689  0.00  0.00    +0.118 HD
ENDBRANCH   1  10
TORSDOF 2
ENDMDL
MODEL 8
REMARK VINA RESULT:      -4.1      6.241      6.856
REMARK  Name = *****
REMARK                            x       y       z     vdW  Elec       q    Type
REMARK                         _______ _______ _______ _____ _____    ______ ____
ROOT
ATOM      1  C   LIG    1       28.439 -12.459   4.184  0.00  0.00    +0.059 C 
ATOM      2  C   LIG    1       27.471 -12.978   3.141  0.00  0.00    +0.037 C 
ATOM      3  C   LIG    1       28.738 -13.736   3.463  0.00  0.00    +0.029 C 
ENDROOT
BRANCH   2   4
ATOM      4  C   LIG    1       26.125 -13.565   3.500  0.00  0.00    -0.043 A 
ATOM      5  C   LIG    1       25.045 -12.748   3.877  0.00  0.00    +0.004 A 
ATOM      6  C   LIG    1       23.806 -13.292   4.229  0.00  0.00    +0.000 A 
ATOM      7  C   LIG    1       23.624 -14.672   4.221  0.00  0.00    +0.000 A 
ATOM      8  C   LIG    1       24.680 -15.505   3.864  0.00  0.00    +0.000 A 
ATOM      9  C   LIG    1       25.916 -14.955   3.515  0.00  0.00    +0.004 A 
ENDBRANCH   2   4
BRANCH   1  10
ATOM     10  N   LIG    1       28.150 -12.506   5.618  0.00  0.00    -0.327 NA
ATOM     11  H   LIG    1       28.024 -13.469   5.932  0.00  0.00    +0.118 HD
ATOM     12  H   LIG    1       28.933 -12.138   6.155  0.00  0.00    +0.118 HD
ENDBRANCH   1  10
TORSDOF 2
ENDMDL
MODEL 9
REMARK VINA RESULT:      -4.0      1.240      1.589
REMARK  Name = *****
REMARK                            x       y       z     vdW  Elec       q    Type
REMARK                         _______ _______ _______ _____ _____    ______ ____
ROOT
ATOM      1  C   LIG    1       26.247 -21.006   5.791  0.00  0.00    +0.059 C 
ATOM      2  C   LIG    1       24.790 -21.250   6.126  0.00  0.00    +0.037 C 
ATOM      3  C   LIG    1       25.675 -20.459   7.062  0.00  0.00    +0.029 C 
ENDROOT
BRANCH   2   4
ATOM      4  C   LIG    1       23.659 -20.563   5.392  0.00  0.00    -0.043 A 
ATOM      5  C   LIG    1       23.782 -19.242   4.928  0.00  0.00    +0.004 A 
ATOM      6  C   LIG    1       22.730 -18.600   4.268  0.00  0.00    +0.000 A 
ATOM      7  C   LIG    1       21.524 -19.266   4.066  0.00  0.00    +0.000 A 
ATOM      8  C   LIG    1       21.372 -20.570   4.527  0.00  0.00    +0.000 A 
ATOM      9  C   LIG    1       22.427 -21.205   5.187  0.00  0.00    +0.004 A 
ENDBRANCH   2   4
BRANCH   1  10
ATOM     10  N   LIG    1       26.667 -20.073   4.745  0.00  0.00    -0.327 NA
ATOM     11  H   LIG    1       25.900 -19.881   4.099  0.00  0.00    +0.118 HD
ATOM     12  H   LIG    1       26.924 -19.173   5.148  0.00  0.00    +0.118 HD
ENDBRANCH   1  10
TORSDOF 2
ENDMDL
