MODEL 1
REMARK VINA RESULT:      -4.7      0.000      0.000
REMARK  Name = *****
REMARK                            x       y       z     vdW  Elec       q    Type
REMARK                         _______ _______ _______ _____ _____    ______ ____
ROOT
ATOM      1  C   LIG    1       24.766 -12.948   3.950  0.00  0.00    +0.178 C 
ATOM      2  C   LIG    1       24.462 -14.403   3.604  0.00  0.00    +0.179 C 
ATOM      3  C   LIG    1       25.819 -15.049   3.820  0.00  0.00    +0.207 C 
ATOM      4  C   LIG    1       26.751 -13.964   3.274  0.00  0.00    +0.221 C 
ATOM      5  O   LIG    1       26.151 -12.706   3.603  0.00  0.00    -0.336 OA
ENDROOT
BRANCH   2   6
ATOM      6  O   LIG    1       23.471 -14.966   4.458  0.00  0.00    -0.386 OA
ATOM      7  H   LIG    1       22.816 -14.258   4.615  0.00  0.00    +0.210 HD
ENDBRANCH   2   6
BRANCH   3   8
ATOM      8  O   LIG    1       25.915 -16.295   3.134  0.00  0.00    -0.384 OA
ATOM      9  H   LIG    1       24.990 -16.558   2.939  0.00  0.00    +0.210 HD
ENDBRANCH   3   8
BRANCH   4  10
ATOM     10  O   LIG    1       26.798 -14.051   1.849  0.00  0.00    -0.361 OA
ATOM     11  H   LIG    1       27.330 -14.855   1.704  0.00  0.00    +0.213 HD
ENDBRANCH   4  10
BRANCH   1  12
ATOM     12  C   LIG    1       23.859 -11.952   3.230  0.00  0.00    +0.190 C 
BRANCH  12  13
ATOM     13  O   LIG    1       23.973 -12.085   1.813  0.00  0.00    -0.392 OA
ATOM     14  H   LIG    1       24.865 -11.772   1.574  0.00  0.00    +0.209 HD
ENDBRANCH  12  13
ENDBRANCH   1  12
BRANCH   4  15
ATOM     15  C   LIG    1       28.178 -14.082   3.829  0.00  0.00    +0.223 C 
BRANCH  15  16
ATOM     16  O   LIG    1       28.993 -12.972   3.434  0.00  0.00    -0.390 OA
ATOM     17  H   LIG    1       28.750 -12.779   2.510  0.00  0.00    +0.210 HD
ENDBRANCH  15  16
ENDBRANCH   4  15
TORSDOF 7
ENDMDL
MODEL 2
REMARK VINA RESULT:      -4.5      1.775      3.423
REMARK  Name = *****
REMARK                            x       y       z     vdW  Elec       q    Type
REMARK                         _______ _______ _______ _____ _____    ______ ____
ROOT
ATOM      1  C   LIG    1       27.612 -13.546   4.727  0.00  0.00    +0.178 C 
ATOM      2  C   LIG    1       26.189 -13.047   4.491  0.00  0.00    +0.179 C 
ATOM      3  C   LIG    1       25.473 -14.344   4.156  0.00  0.00    +0.207 C 
ATOM      4  C   LIG    1       26.537 -15.060   3.320  0.00  0.00    +0.221 C 
ATOM      5  O   LIG    1       27.805 -14.706   3.882  0.00  0.00    -0.336 OA
ENDROOT
BRANCH   2   6
ATOM      6  O   LIG    1       25.635 -12.425   5.646  0.00  0.00    -0.386 OA
ATOM      7  H   LIG    1       25.383 -11.522   5.372  0.00  0.00    +0.210 HD
ENDBRANCH   2   6
BRANCH   3   8
ATOM      8  O   LIG    1       24.255 -14.097   3.457  0.00  0.00    -0.384 OA
ATOM      9  H   LIG    1       24.111 -14.889   2.895  0.00  0.00    +0.210 HD
ENDBRANCH   3   8
BRANCH   4  10
ATOM     10  O   LIG    1       26.511 -14.555   1.984  0.00  0.00    -0.361 OA
ATOM     11  H   LIG    1       25.731 -15.002   1.605  0.00  0.00    +0.213 HD
ENDBRANCH   4  10
BRANCH   1  12
ATOM     12  C   LIG    1       28.679 -12.493   4.433  0.00  0.00    +0.190 C 
BRANCH  12  13
ATOM     13  O   LIG    1       29.079 -11.820   5.627  0.00  0.00    -0.392 OA
ATOM     14  H   LIG    1       28.611 -10.965   5.635  0.00  0.00    +0.209 HD
ENDBRANCH  12  13
ENDBRANCH   1  12
BRANCH   4  15
ATOM     15  C   LIG    1       26.329 -16.581   3.284  0.00  0.00    +0.223 C 
BRANCH  15  16
ATOM     16  O   LIG    1       27.491 -17.284   3.740  0.00  0.00    -0.390 OA
ATOM     17  H   LIG    1       27.820 -16.785   4.510  0.00  0.00    +0.210 HD
ENDBRANCH  15  16
ENDBRANCH   4  15
TORSDOF 7
ENDMDL
MODEL 3
REMARK VINA RESULT:      -4.3      6.073      7.917
REMARK  Name = *****
REMARK                            x       y       z     vdW  Elec       q    Type
REMARK                         _______ _______ _______ _____ _____    ______ ____
ROOT
ATOM      1  C   LIG    1       25.643 -20.401   6.325  0.00  0.00    +0.178 C 
ATOM      2  C   LIG    1       26.011 -20.336   4.846  0.00  0.00    +0.179 C 
ATOM      3  C   LIG    1       24.790 -19.644   4.267  0.00  0.00    +0.207 C 
ATOM      4  C   LIG    1       23.670 -20.285   5.091  0.00  0.00    +0.221 C 
ATOM      5  O   LIG    1       24.200 -20.500   6.403  0.00  0.00    -0.336 OA
ENDROOT
BRANCH   2   6
ATOM      6  O   LIG    1       27.198 -19.583   4.617  0.00  0.00    -0.386 OA
ATOM      7  H   LIG    1       27.851 -19.904   5.269  0.00  0.00    +0.210 HD
ENDBRANCH   2   6
BRANCH   3   8
ATOM      8  O   LIG    1       24.681 -19.872   2.864  0.00  0.00    -0.384 OA
ATOM      9  H   LIG    1       24.179 -20.710   2.774  0.00  0.00    +0.210 HD
ENDBRANCH   3   8
BRANCH   4  10
ATOM     10  O   LIG    1       23.355 -21.567   4.547  0.00  0.00    -0.361 OA
ATOM     11  H   LIG    1       24.238 -21.949   4.381  0.00  0.00    +0.213 HD
ENDBRANCH   4  10
BRANCH   1  12
ATOM     12  C   LIG    1       26.293 -21.572   7.061  0.00  0.00    +0.190 C 
BRANCH  12  13
ATOM     13  O   LIG    1       27.713 -21.551   6.903  0.00  0.00    -0.392 OA
ATOM     14  H   LIG    1       28.048 -22.381   7.288  0.00  0.00    +0.209 HD
ENDBRANCH  12  13
ENDBRANCH   1  12
BRANCH   4  15
ATOM     15  C   LIG    1       22.396 -19.427   5.118  0.00  0.00    +0.223 C 
BRANCH  15  16
ATOM     16  O   LIG    1       22.468 -18.344   4.184  0.00  0.00    -0.390 OA
ATOM     17  H   LIG    1       23.208 -18.557   3.585  0.00  0.00    +0.210 HD
ENDBRANCH  15  16
ENDBRANCH   4  15
TORSDOF 7
ENDMDL
MODEL 4
REMARK VINA RESULT:      -4.1      1.860      2.265
REMARK  Name = *****
REMARK                            x       y       z     vdW  Elec       q    Type
REMARK                         _______ _______ _______ _____ _____    ______ ____
ROOT
ATOM      1  C   LIG    1       25.715 -12.812   2.980  0.00  0.00    +0.178 C 
ATOM      2  C   LIG    1       25.436 -13.246   4.416  0.00  0.00    +0.179 C 
ATOM      3  C   LIG    1       26.773 -12.960   5.076  0.00  0.00    +0.207 C 
ATOM      4  C   LIG    1       27.744 -13.384   3.971  0.00  0.00    +0.221 C 
ATOM      5  O   LIG    1       27.121 -13.044   2.728  0.00  0.00    -0.336 OA
ENDROOT
BRANCH   2   6
ATOM      6  O   LIG    1       24.384 -12.495   5.014  0.00  0.00    -0.386 OA
ATOM      7  H   LIG    1       23.822 -12.185   4.279  0.00  0.00    +0.210 HD
ENDBRANCH   2   6
BRANCH   3   8
ATOM      8  O   LIG    1       26.920 -13.694   6.290  0.00  0.00    -0.384 OA
ATOM      9  H   LIG    1       27.817 -13.474   6.622  0.00  0.00    +0.210 HD
ENDBRANCH   3   8
BRANCH   4  10
ATOM     10  O   LIG    1       27.896 -14.804   3.993  0.00  0.00    -0.361 OA
ATOM     11  H   LIG    1       26.987 -15.117   3.825  0.00  0.00    +0.213 HD
ENDBRANCH   4  10
BRANCH   1  12
ATOM     12  C   LIG    1       24.864 -13.551   1.948  0.00  0.00    +0.190 C 
BRANCH  12  13
ATOM     13  O   LIG    1       23.473 -13.438   2.255  0.00  0.00    -0.392 OA
ATOM     14  H   LIG    1       23.415 -13.179   3.193  0.00  0.00    +0.209 HD
ENDBRANCH  12  13
ENDBRANCH   1  12
BRANCH   4  15
ATOM     15  C   LIG    1       29.126 -12.730   4.120  0.00  0.00    +0.223 C 
BRANCH  15  16
ATOM     16  O   LIG    1       29.186 -11.878   5.270  0.00  0.00    -0.390 OA
ATOM     17  H   LIG    1       28.590 -11.131   5.079  0.00  0.00    +0.210 HD
ENDBRANCH  15  16
ENDBRANCH   4  15
TORSDOF 7
ENDMDL
MODEL 5
REMARK VINA RESULT:      -4.1      1.377      3.642
REMARK  Name = *****
REMARK                            x       y       z     vdW  Elec       q    Type
REMARK                         _______ _______ _______ _____ _____    ______ ____
ROOT
ATOM      1  C   LIG    1       27.722 -13.538   3.234  0.00  0.00    +0.178 C 
ATOM      2  C   LIG    1       26.982 -14.659   3.957  0.00  0.00    +0.179 C 
ATOM      3  C   LIG    1       25.661 -14.674   3.207  0.00  0.00    +0.207 C 
ATOM      4  C   LIG    1       25.434 -13.177   2.983  0.00  0.00    +0.221 C 
ATOM      5  O   LIG    1       26.724 -12.594   2.774  0.00  0.00    -0.336 OA
ENDROOT
BRANCH   2   6
ATOM      6  O   LIG    1       27.658 -15.908   3.853  0.00  0.00    -0.386 OA
ATOM      7  H   LIG    1       27.661 -16.136   2.903  0.00  0.00    +0.210 HD
ENDBRANCH   2   6
BRANCH   3   8
ATOM      8  O   LIG    1       24.638 -15.309   3.971  0.00  0.00    -0.384 OA
ATOM      9  H   LIG    1       24.888 -15.168   4.909  0.00  0.00    +0.210 HD
ENDBRANCH   3   8
BRANCH   4  10
ATOM     10  O   LIG    1       24.895 -12.596   4.171  0.00  0.00    -0.361 OA
ATOM     11  H   LIG    1       24.081 -12.166   3.846  0.00  0.00    +0.213 HD
ENDBRANCH   4  10
BRANCH   1  12
ATOM     12  C   LIG    1       28.754 -12.830   4.111  0.00  0.00    +0.190 C 
BRANCH  12  13
ATOM     13  O   LIG    1       28.206 -12.508   5.391  0.00  0.00    -0.392 OA
ATOM     14  H   LIG    1       28.336 -11.551   5.517  0.00  0.00    +0.209 HD
ENDBRANCH  12  13
ENDBRANCH   1  12
BRANCH   4  15
ATOM     15  C   LIG    1       24.480 -12.896   1.812  0.00  0.00    +0.223 C 
BRANCH  15  16
ATOM     16  O   LIG    1       23.890 -11.595   1.912  0.00  0.00    -0.390 OA
ATOM     17  H   LIG    1       23.702 -11.316   0.997  0.00  0.00    +0.210 HD
ENDBRANCH  15  16
ENDBRANCH   4  15
TORSDOF 7
ENDMDL
MODEL 6
REMARK VINA RESULT:      -3.8      5.358      7.562
REMARK  Name = *****
REMARK                            x       y       z     vdW  Elec       q    Type
REMARK                         _______ _______ _______ _____ _____    ______ ____
ROOT
ATOM      1  C   LIG    1       24.812 -19.575   3.764  0.00  0.00    +0.178 C 
ATOM      2  C   LIG    1       25.547 -19.935   5.052  0.00  0.00    +0.179 C 
ATOM      3  C   LIG    1       24.648 -21.024   5.610  0.00  0.00    +0.207 C 
ATOM      4  C   LIG    1       23.264 -20.474   5.255  0.00  0.00    +0.221 C 
ATOM      5  O   LIG    1       23.402 -19.804   3.997  0.00  0.00    -0.336 OA
ENDROOT
BRANCH   2   6
ATOM      6  O   LIG    1       26.864 -20.417   4.806  0.00  0.00    -0.386 OA
ATOM      7  H   LIG    1       27.419 -19.626   4.665  0.00  0.00    +0.210 HD
ENDBRANCH   2   6
BRANCH   3   8
ATOM      8  O   LIG    1       24.859 -21.203   7.009  0.00  0.00    -0.384 OA
ATOM      9  H   LIG    1       25.102 -22.148   7.118  0.00  0.00    +0.210 HD
ENDBRANCH   3   8
BRANCH   4  10
ATOM     10  O   LIG    1       22.882 -19.491   6.218  0.00  0.00    -0.361 OA
ATOM     11  H   LIG    1       22.661 -18.722   5.658  0.00  0.00    +0.213 HD
ENDBRANCH   4  10
BRANCH   1  12
ATOM     12  C   LIG    1       25.046 -18.133   3.316  0.00  0.00    +0.190 C 
BRANCH  12  13
ATOM     13  O   LIG    1       26.442 -17.855   3.192  0.00  0.00    -0.392 OA
ATOM     14  H   LIG    1       26.864 -18.175   4.010  0.00  0.00    +0.209 HD
ENDBRANCH  12  13
ENDBRANCH   1  12
BRANCH   4  15
ATOM     15  C   LIG    1       22.191 -21.572   5.207  0.00  0.00    +0.223 C 
BRANCH  15  16
ATOM     16  O   LIG    1       21.064 -21.174   4.417  0.00  0.00    -0.390 OA
ATOM     17  H   LIG    1       20.303 -21.671   4.769  0.00  0.00    +0.210 HD
ENDBRANCH  15  16
ENDBRANCH   4  15
TORSDOF 7
ENDMDL
MODEL 7
REMARK VINA RESULT:      -3.7      5.052      6.644
REMARK  Name = *****
REMARK                            x       y       z     vdW  Elec       q    Type
REMARK                         _______ _______ _______ _____ _____    ______ ____
ROOT
ATOM      1  C   LIG    1       22.861 -19.527   4.909  0.00  0.00    +0.178 C 
ATOM      2  C   LIG    1       23.893 -20.518   5.437  0.00  0.00    +0.179 C 
ATOM      3  C   LIG    1       25.190 -19.830   5.047  0.00  0.00    +0.207 C 
ATOM      4  C   LIG    1       24.819 -19.260   3.676  0.00  0.00    +0.221 C 
ATOM      5  O   LIG    1       23.440 -18.882   3.750  0.00  0.00    -0.336 OA
ENDROOT
BRANCH   2   6
ATOM      6  O   LIG    1       23.798 -20.698   6.847  0.00  0.00    -0.386 OA
ATOM      7  H   LIG    1       23.240 -19.968   7.175  0.00  0.00    +0.210 HD
ENDBRANCH   2   6
BRANCH   3   8
ATOM      8  O   LIG    1       26.277 -20.752   5.017  0.00  0.00    -0.384 OA
ATOM      9  H   LIG    1       25.909 -21.579   4.636  0.00  0.00    +0.210 HD
ENDBRANCH   3   8
BRANCH   4  10
ATOM     10  O   LIG    1       24.922 -20.288   2.690  0.00  0.00    -0.361 OA
ATOM     11  H   LIG    1       25.463 -19.863   1.997  0.00  0.00    +0.213 HD
ENDBRANCH   4  10
BRANCH   1  12
ATOM     12  C   LIG    1       21.529 -20.180   4.539  0.00  0.00    +0.190 C 
BRANCH  12  13
ATOM     13  O   LIG    1       21.533 -21.571   4.862  0.00  0.00    -0.392 OA
ATOM     14  H   LIG    1       20.599 -21.850   4.907  0.00  0.00    +0.209 HD
ENDBRANCH  12  13
ENDBRANCH   1  12
BRANCH   4  15
ATOM     15  C   LIG    1       25.717 -18.083   3.266  0.00  0.00    +0.223 C 
BRANCH  15  16
ATOM     16  O   LIG    1       26.975 -18.116   3.951  0.00  0.00    -0.390 OA
ATOM     17  H   LIG    1       27.518 -18.774   3.480  0.00  0.00    +0.210 HD
ENDBRANCH  15  16
ENDBRANCH   4  15
TORSDOF 7
ENDMDL
MODEL 8
REMARK VINA RESULT:      -3.5      1.841      3.446
REMARK  Name = *****
REMARK                            x       y       z     vdW  Elec       q    Type
REMARK                         _______ _______ _______ _____ _____    ______ ____
ROOT
ATOM      1  C   LIG    1       26.392 -15.074   3.295  0.00  0.00    +0.178 C 
ATOM      2  C   LIG    1       25.318 -14.302   4.055  0.00  0.00    +0.179 C 
ATOM      3  C   LIG    1       26.029 -12.987   4.318  0.00  0.00    +0.207 C 
ATOM      4  C   LIG    1       27.448 -13.475   4.619  0.00  0.00    +0.221 C 
ATOM      5  O   LIG    1       27.676 -14.613   3.781  0.00  0.00    -0.336 OA
ENDROOT
BRANCH   2   6
ATOM      6  O   LIG    1       24.137 -14.114   3.281  0.00  0.00    -0.386 OA
ATOM      7  H   LIG    1       23.623 -13.420   3.736  0.00  0.00    +0.210 HD
ENDBRANCH   2   6
BRANCH   3   8
ATOM      8  O   LIG    1       25.421 -12.274   5.393  0.00  0.00    -0.384 OA
ATOM      9  H   LIG    1       25.792 -12.668   6.211  0.00  0.00    +0.210 HD
ENDBRANCH   3   8
BRANCH   4  10
ATOM     10  O   LIG    1       27.518 -13.927   5.973  0.00  0.00    -0.361 OA
ATOM     11  H   LIG    1       27.012 -14.761   5.943  0.00  0.00    +0.213 HD
ENDBRANCH   4  10
BRANCH   1  12
ATOM     12  C   LIG    1       26.279 -16.589   3.458  0.00  0.00    +0.190 C 
BRANCH  12  13
ATOM     13  O   LIG    1       27.544 -17.166   3.786  0.00  0.00    -0.392 OA
ATOM     14  H   LIG    1       27.907 -16.641   4.523  0.00  0.00    +0.209 HD
ENDBRANCH  12  13
ENDBRANCH   1  12
BRANCH   4  15
ATOM     15  C   LIG    1       28.505 -12.381   4.403  0.00  0.00    +0.223 C 
BRANCH  15  16
ATOM     16  O   LIG    1       29.019 -11.890   5.646  0.00  0.00    -0.390 OA
ATOM     17  H   LIG    1       28.282 -11.946   6.281  0.00  0.00    +0.210 HD
ENDBRANCH  15  16
ENDBRANCH   4  15
TORSDOF 7
ENDMDL
MODEL 9
REMARK VINA RESULT:      -3.4      1.387      3.895
REMARK  Name = *****
REMARK                            x       y       z     vdW  Elec       q    Type
REMARK                         _______ _______ _______ _____ _____    ______ ____
ROOT
ATOM      1  C   LIG    1       25.524 -15.515   3.926  0.00  0.00    +0.178 C 
ATOM      2  C   LIG    1       26.798 -14.894   3.361  0.00  0.00    +0.179 C 
ATOM      3  C   LIG    1       26.520 -13.415   3.562  0.00  0.00    +0.207 C 
ATOM      4  C   LIG    1       25.027 -13.348   3.230  0.00  0.00    +0.221 C 
ATOM      5  O   LIG    1       24.449 -14.572   3.697  0.00  0.00    -0.336 OA
ENDROOT
BRANCH   2   6
ATOM      6  O   LIG    1       27.962 -15.310   4.068  0.00  0.00    -0.386 OA
ATOM      7  H   LIG    1       28.120 -16.238   3.807  0.00  0.00    +0.210 HD
ENDBRANCH   2   6
BRANCH   3   8
ATOM      8  O   LIG    1       27.339 -12.614   2.714  0.00  0.00    -0.384 OA
ATOM      9  H   LIG    1       28.256 -12.742   3.040  0.00  0.00    +0.210 HD
ENDBRANCH   3   8
BRANCH   4  10
ATOM     10  O   LIG    1       24.857 -13.315   1.812  0.00  0.00    -0.361 OA
ATOM     11  H   LIG    1       25.696 -13.696   1.490  0.00  0.00    +0.213 HD
ENDBRANCH   4  10
BRANCH   1  12
ATOM     12  C   LIG    1       25.181 -16.868   3.303  0.00  0.00    +0.190 C 
BRANCH  12  13
ATOM     13  O   LIG    1       26.355 -17.662   3.125  0.00  0.00    -0.392 OA
ATOM     14  H   LIG    1       27.009 -17.097   2.675  0.00  0.00    +0.209 HD
ENDBRANCH  12  13
ENDBRANCH   1  12
BRANCH   4  15
ATOM     15  C   LIG    1       24.343 -12.118   3.844  0.00  0.00    +0.223 C 
BRANCH  15  16
ATOM     16  O   LIG    1       23.508 -11.448   2.892  0.00  0.00    -0.390 OA
ATOM     17  H   LIG    1       23.670 -11.888   2.038  0.00  0.00    +0.210 HD
ENDBRANCH  15  16
ENDBRANCH   4  15
TORSDOF 7
ENDMDL
