MODEL 1
REMARK VINA RESULT:      -5.8      0.000      0.000
REMARK  Name = *****
REMARK                            x       y       z     vdW  Elec       q    Type
REMARK                         _______ _______ _______ _____ _____    ______ ____
ROOT
ATOM      1  C   LIG    1       24.709 -28.988  12.861  0.00  0.00    +0.064 A 
ATOM      2  C   LIG    1       23.598 -28.133  13.144  0.00  0.00    +0.049 A 
ATOM      3  I   LIG    1       23.955 -26.188  13.993  0.00  0.00    -0.041 I 
ATOM      4  C   LIG    1       22.261 -28.495  12.742  0.00  0.00    +0.065 A 
ATOM      5  C   LIG    1       22.095 -29.548  11.821  0.00  0.00    +0.040 A 
ATOM      6  I   LIG    1       20.233 -30.587  11.600  0.00  0.00    -0.042 I 
ATOM      7  C   LIG    1       23.234 -30.137  11.245  0.00  0.00    +0.065 A 
ATOM      8  C   LIG    1       24.444 -30.047  11.971  0.00  0.00    +0.049 A 
ATOM      9  I   LIG    1       24.515 -32.102  13.156  0.00  0.00    -0.041 I 
ENDROOT
BRANCH   7  10
ATOM     10  C   LIG    1       23.297 -30.695   9.871  0.00  0.00    +0.246 C 
ATOM     11  N   LIG    1       23.928 -29.908   8.926  0.00  0.00    -0.309 N 
ATOM     12  H   LIG    1       24.263 -28.972   9.160  0.00  0.00    +0.149 HD
ATOM     13  O   LIG    1       22.762 -31.774   9.566  0.00  0.00    -0.270 OA
BRANCH  11  14
ATOM     14  C   LIG    1       24.136 -30.355   7.553  0.00  0.00    +0.132 C 
BRANCH  14  15
ATOM     15  C   LIG    1       24.178 -29.218   6.529  0.00  0.00    +0.174 C 
BRANCH  15  16
ATOM     16  O   LIG    1       23.254 -29.456   5.470  0.00  0.00    -0.394 OA
ATOM     17  H   LIG    1       22.632 -30.132   5.791  0.00  0.00    +0.209 HD
ENDBRANCH  15  16
ENDBRANCH  14  15
ENDBRANCH  11  14
ENDBRANCH   7  10
BRANCH   1  20
ATOM     18  C   LIG    1       28.168 -28.701  14.536  0.00  0.00    +0.110 C 
ATOM     19  C   LIG    1       26.671 -28.978  14.318  0.00  0.00    +0.217 C 
ATOM     20  N   LIG    1       26.108 -28.635  13.088  0.00  0.00    -0.267 N 
ATOM     21  O   LIG    1       26.031 -29.504  15.219  0.00  0.00    -0.276 OA
BRANCH  20  22
ATOM     22  C   LIG    1       26.820 -27.838  12.059  0.00  0.00    +0.147 C 
BRANCH  22  23
ATOM     23  C   LIG    1       27.573 -28.689  11.033  0.00  0.00    +0.158 C 
BRANCH  23  24
ATOM     24  O   LIG    1       27.639 -30.060  11.448  0.00  0.00    -0.388 OA
ATOM     25  H   LIG    1       27.975 -30.104  12.360  0.00  0.00    +0.210 HD
ENDBRANCH  23  24
BRANCH  23  26
ATOM     26  C   LIG    1       26.903 -28.711   9.661  0.00  0.00    +0.188 C 
BRANCH  26  27
ATOM     27  O   LIG    1       27.162 -29.973   9.043  0.00  0.00    -0.392 OA
ATOM     28  H   LIG    1       28.096 -29.950   8.746  0.00  0.00    +0.209 HD
ENDBRANCH  26  27
ENDBRANCH  23  26
ENDBRANCH  22  23
ENDBRANCH  20  22
ENDBRANCH   1  20
BRANCH   4  29
ATOM     29  C   LIG    1       21.066 -27.744  13.305  0.00  0.00    +0.246 C 
ATOM     30  N   LIG    1       20.661 -28.056  14.611  0.00  0.00    -0.309 N 
ATOM     31  H   LIG    1       21.358 -28.441  15.226  0.00  0.00    +0.149 HD
ATOM     32  O   LIG    1       20.514 -26.899  12.647  0.00  0.00    -0.270 OA
BRANCH  30  33
ATOM     33  C   LIG    1       19.577 -27.296  15.261  0.00  0.00    +0.138 C 
BRANCH  33  34
ATOM     34  C   LIG    1       18.195 -27.848  14.859  0.00  0.00    +0.157 C 
BRANCH  34  35
ATOM     35  O   LIG    1       18.335 -28.871  13.864  0.00  0.00    -0.388 OA
ATOM     36  H   LIG    1       18.409 -29.717  14.341  0.00  0.00    +0.210 HD
ENDBRANCH  34  35
BRANCH  34  37
ATOM     37  C   LIG    1       17.257 -26.769  14.305  0.00  0.00    +0.188 C 
BRANCH  37  38
ATOM     38  O   LIG    1       17.973 -25.613  13.896  0.00  0.00    -0.392 OA
ATOM     39  H   LIG    1       18.743 -25.925  13.388  0.00  0.00    +0.209 HD
ENDBRANCH  37  38
ENDBRANCH  34  37
ENDBRANCH  33  34
ENDBRANCH  30  33
ENDBRANCH   4  29
TORSDOF 16
ENDMDL
MODEL 2
REMARK VINA RESULT:      -5.1      3.117      6.094
REMARK  Name = *****
REMARK                            x       y       z     vdW  Elec       q    Type
REMARK                         _______ _______ _______ _____ _____    ______ ____
ROOT
ATOM      1  C   LIG    1       24.577 -31.182   9.898  0.00  0.00    +0.064 A 
ATOM      2  C   LIG    1       24.957 -30.064  10.703  0.00  0.00    +0.049 A 
ATOM      3  I   LIG    1       26.611 -28.833  10.086  0.00  0.00    -0.041 I 
ATOM      4  C   LIG    1       24.166 -29.666  11.842  0.00  0.00    +0.065 A 
ATOM      5  C   LIG    1       22.870 -30.201  11.984  0.00  0.00    +0.040 A 
ATOM      6  I   LIG    1       21.838 -30.203  13.863  0.00  0.00    -0.042 I 
ATOM      7  C   LIG    1       22.353 -31.017  10.963  0.00  0.00    +0.065 A 
ATOM      8  C   LIG    1       23.286 -31.689  10.140  0.00  0.00    +0.049 A 
ATOM      9  I   LIG    1       23.461 -33.825  11.160  0.00  0.00    -0.041 I 
ENDROOT
BRANCH   7  10
ATOM     10  C   LIG    1       20.920 -31.093  10.582  0.00  0.00    +0.246 C 
ATOM     11  N   LIG    1       20.362 -32.357  10.573  0.00  0.00    -0.309 N 
ATOM     12  H   LIG    1       20.933 -33.185  10.752  0.00  0.00    +0.149 HD
ATOM     13  O   LIG    1       20.272 -30.093  10.230  0.00  0.00    -0.270 OA
BRANCH  11  14
ATOM     14  C   LIG    1       18.949 -32.583  10.296  0.00  0.00    +0.132 C 
BRANCH  14  15
ATOM     15  C   LIG    1       18.013 -32.121  11.415  0.00  0.00    +0.174 C 
BRANCH  15  16
ATOM     16  O   LIG    1       17.383 -30.889  11.072  0.00  0.00    -0.394 OA
ATOM     17  H   LIG    1       17.931 -30.481  10.380  0.00  0.00    +0.209 HD
ENDBRANCH  15  16
ENDBRANCH  14  15
ENDBRANCH  11  14
ENDBRANCH   7  10
BRANCH   1  20
ATOM     18  C   LIG    1       27.104 -32.700   7.415  0.00  0.00    +0.110 C 
ATOM     19  C   LIG    1       26.458 -32.208   8.720  0.00  0.00    +0.217 C 
ATOM     20  N   LIG    1       25.223 -31.561   8.644  0.00  0.00    -0.267 N 
ATOM     21  O   LIG    1       27.034 -32.416   9.780  0.00  0.00    -0.276 OA
BRANCH  20  22
ATOM     22  C   LIG    1       24.601 -31.142   7.364  0.00  0.00    +0.147 C 
BRANCH  22  23
ATOM     23  C   LIG    1       25.137 -29.813   6.824  0.00  0.00    +0.158 C 
BRANCH  23  24
ATOM     24  O   LIG    1       25.879 -30.012   5.613  0.00  0.00    -0.388 OA
ATOM     25  H   LIG    1       26.064 -30.961   5.500  0.00  0.00    +0.210 HD
ENDBRANCH  23  24
BRANCH  23  26
ATOM     26  C   LIG    1       24.035 -28.819   6.467  0.00  0.00    +0.188 C 
BRANCH  26  27
ATOM     27  O   LIG    1       23.286 -29.339   5.366  0.00  0.00    -0.392 OA
ATOM     28  H   LIG    1       22.464 -29.718   5.745  0.00  0.00    +0.209 HD
ENDBRANCH  26  27
ENDBRANCH  23  26
ENDBRANCH  22  23
ENDBRANCH  20  22
ENDBRANCH   1  20
BRANCH   4  29
ATOM     29  C   LIG    1       24.729 -28.684  12.857  0.00  0.00    +0.246 C 
ATOM     30  N   LIG    1       25.575 -29.194  13.851  0.00  0.00    -0.309 N 
ATOM     31  H   LIG    1       26.063 -30.049  13.642  0.00  0.00    +0.149 HD
ATOM     32  O   LIG    1       24.466 -27.511  12.778  0.00  0.00    -0.270 OA
BRANCH  30  33
ATOM     33  C   LIG    1       26.242 -28.289  14.805  0.00  0.00    +0.138 C 
BRANCH  33  34
ATOM     34  C   LIG    1       27.638 -27.878  14.295  0.00  0.00    +0.157 C 
BRANCH  34  35
ATOM     35  O   LIG    1       27.523 -26.871  13.281  0.00  0.00    -0.388 OA
ATOM     36  H   LIG    1       27.855 -27.267  12.454  0.00  0.00    +0.210 HD
ENDBRANCH  34  35
BRANCH  34  37
ATOM     37  C   LIG    1       28.433 -29.053  13.713  0.00  0.00    +0.188 C 
BRANCH  37  38
ATOM     38  O   LIG    1       29.831 -28.885  13.904  0.00  0.00    -0.392 OA
ATOM     39  H   LIG    1       29.956 -28.004  14.298  0.00  0.00    +0.209 HD
ENDBRANCH  37  38
ENDBRANCH  34  37
ENDBRANCH  33  34
ENDBRANCH  30  33
ENDBRANCH   4  29
TORSDOF 16
ENDMDL
MODEL 3
REMARK VINA RESULT:      -5.1      2.456      7.415
REMARK  Name = *****
REMARK                            x       y       z     vdW  Elec       q    Type
REMARK                         _______ _______ _______ _____ _____    ______ ____
ROOT
ATOM      1  C   LIG    1       22.222 -30.121  13.222  0.00  0.00    +0.064 A 
ATOM      2  C   LIG    1       22.550 -30.473  11.876  0.00  0.00    +0.049 A 
ATOM      3  I   LIG    1       21.096 -31.508  10.674  0.00  0.00    -0.041 I 
ATOM      4  C   LIG    1       23.780 -30.026  11.269  0.00  0.00    +0.065 A 
ATOM      5  C   LIG    1       24.515 -29.006  11.907  0.00  0.00    +0.040 A 
ATOM      6  I   LIG    1       26.590 -28.669  11.493  0.00  0.00    -0.042 I 
ATOM      7  C   LIG    1       23.976 -28.388  13.048  0.00  0.00    +0.065 A 
ATOM      8  C   LIG    1       23.039 -29.131  13.803  0.00  0.00    +0.049 A 
ATOM      9  I   LIG    1       24.376 -30.115  15.500  0.00  0.00    -0.041 I 
ENDROOT
BRANCH   7  10
ATOM     10  C   LIG    1       24.188 -26.967  13.423  0.00  0.00    +0.246 C 
ATOM     11  N   LIG    1       25.380 -26.681  14.060  0.00  0.00    -0.309 N 
ATOM     12  H   LIG    1       26.034 -27.425  14.311  0.00  0.00    +0.149 HD
ATOM     13  O   LIG    1       23.324 -26.094  13.238  0.00  0.00    -0.270 OA
BRANCH  11  14
ATOM     14  C   LIG    1       25.765 -25.321  14.419  0.00  0.00    +0.132 C 
BRANCH  14  15
ATOM     15  C   LIG    1       27.277 -25.110  14.531  0.00  0.00    +0.174 C 
BRANCH  15  16
ATOM     16  O   LIG    1       27.851 -24.874  13.249  0.00  0.00    -0.394 OA
ATOM     17  H   LIG    1       28.804 -24.736  13.393  0.00  0.00    +0.209 HD
ENDBRANCH  15  16
ENDBRANCH  14  15
ENDBRANCH  11  14
ENDBRANCH   7  10
BRANCH   1  20
ATOM     18  C   LIG    1       19.501 -31.845  15.338  0.00  0.00    +0.110 C 
ATOM     19  C   LIG    1       20.811 -31.588  14.575  0.00  0.00    +0.217 C 
ATOM     20  N   LIG    1       20.939 -30.394  13.864  0.00  0.00    -0.267 N 
ATOM     21  O   LIG    1       21.703 -32.426  14.633  0.00  0.00    -0.276 OA
BRANCH  20  22
ATOM     22  C   LIG    1       19.812 -29.457  13.636  0.00  0.00    +0.147 C 
BRANCH  22  23
ATOM     23  C   LIG    1       20.171 -27.989  13.881  0.00  0.00    +0.158 C 
BRANCH  23  24
ATOM     24  O   LIG    1       20.411 -27.304  12.644  0.00  0.00    -0.388 OA
ATOM     25  H   LIG    1       20.534 -27.956  11.933  0.00  0.00    +0.210 HD
ENDBRANCH  23  24
BRANCH  23  26
ATOM     26  C   LIG    1       19.059 -27.204  14.572  0.00  0.00    +0.188 C 
BRANCH  26  27
ATOM     27  O   LIG    1       18.433 -26.351  13.611  0.00  0.00    -0.392 OA
ATOM     28  H   LIG    1       17.704 -25.893  14.081  0.00  0.00    +0.209 HD
ENDBRANCH  26  27
ENDBRANCH  23  26
ENDBRANCH  22  23
ENDBRANCH  20  22
ENDBRANCH   1  20
BRANCH   4  29
ATOM     29  C   LIG    1       24.257 -30.646   9.967  0.00  0.00    +0.246 C 
ATOM     30  N   LIG    1       24.019 -29.932   8.784  0.00  0.00    -0.309 N 
ATOM     31  H   LIG    1       23.911 -28.935   8.866  0.00  0.00    +0.149 HD
ATOM     32  O   LIG    1       24.838 -31.701   9.973  0.00  0.00    -0.270 OA
BRANCH  30  33
ATOM     33  C   LIG    1       24.546 -30.419   7.495  0.00  0.00    +0.138 C 
BRANCH  33  34
ATOM     34  C   LIG    1       25.214 -29.277   6.703  0.00  0.00    +0.157 C 
BRANCH  34  35
ATOM     35  O   LIG    1       25.703 -28.268   7.597  0.00  0.00    -0.388 OA
ATOM     36  H   LIG    1       26.339 -28.707   8.192  0.00  0.00    +0.210 HD
ENDBRANCH  34  35
BRANCH  34  37
ATOM     37  C   LIG    1       24.265 -28.607   5.702  0.00  0.00    +0.188 C 
BRANCH  37  38
ATOM     38  O   LIG    1       23.156 -29.440   5.395  0.00  0.00    -0.392 OA
ATOM     39  H   LIG    1       23.134 -29.533   4.426  0.00  0.00    +0.209 HD
ENDBRANCH  37  38
ENDBRANCH  34  37
ENDBRANCH  33  34
ENDBRANCH  30  33
ENDBRANCH   4  29
TORSDOF 16
ENDMDL
MODEL 4
REMARK VINA RESULT:      -5.1      3.118      5.790
REMARK  Name = *****
REMARK                            x       y       z     vdW  Elec       q    Type
REMARK                         _______ _______ _______ _____ _____    ______ ____
ROOT
ATOM      1  C   LIG    1       24.536 -31.231  10.048  0.00  0.00    +0.064 A 
ATOM      2  C   LIG    1       25.089 -30.154  10.808  0.00  0.00    +0.049 A 
ATOM      3  I   LIG    1       26.728 -29.022   9.992  0.00  0.00    -0.041 I 
ATOM      4  C   LIG    1       24.479 -29.726  12.043  0.00  0.00    +0.065 A 
ATOM      5  C   LIG    1       23.180 -30.180  12.347  0.00  0.00    +0.040 A 
ATOM      6  I   LIG    1       22.401 -30.149  14.343  0.00  0.00    -0.042 I 
ATOM      7  C   LIG    1       22.483 -30.943  11.394  0.00  0.00    +0.065 A 
ATOM      8  C   LIG    1       23.256 -31.659  10.451  0.00  0.00    +0.049 A 
ATOM      9  I   LIG    1       23.421 -33.819  11.421  0.00  0.00    -0.041 I 
ENDROOT
BRANCH   7  10
ATOM     10  C   LIG    1       21.011 -30.920  11.202  0.00  0.00    +0.246 C 
ATOM     11  N   LIG    1       20.399 -32.152  11.071  0.00  0.00    -0.309 N 
ATOM     12  H   LIG    1       20.949 -33.012  11.042  0.00  0.00    +0.149 HD
ATOM     13  O   LIG    1       20.371 -29.861  11.098  0.00  0.00    -0.270 OA
BRANCH  11  14
ATOM     14  C   LIG    1       18.952 -32.294  10.954  0.00  0.00    +0.132 C 
BRANCH  14  15
ATOM     15  C   LIG    1       18.407 -31.987   9.558  0.00  0.00    +0.174 C 
BRANCH  15  16
ATOM     16  O   LIG    1       17.996 -30.626   9.463  0.00  0.00    -0.394 OA
ATOM     17  H   LIG    1       17.175 -30.620   8.940  0.00  0.00    +0.209 HD
ENDBRANCH  15  16
ENDBRANCH  14  15
ENDBRANCH  11  14
ENDBRANCH   7  10
BRANCH   1  20
ATOM     18  C   LIG    1       26.545 -32.958   7.249  0.00  0.00    +0.110 C 
ATOM     19  C   LIG    1       26.114 -32.452   8.635  0.00  0.00    +0.217 C 
ATOM     20  N   LIG    1       24.989 -31.630   8.718  0.00  0.00    -0.267 N 
ATOM     21  O   LIG    1       26.756 -32.801   9.618  0.00  0.00    -0.276 OA
BRANCH  20  22
ATOM     22  C   LIG    1       24.311 -31.054   7.531  0.00  0.00    +0.147 C 
BRANCH  22  23
ATOM     23  C   LIG    1       25.011 -29.816   6.962  0.00  0.00    +0.158 C 
BRANCH  23  24
ATOM     24  O   LIG    1       25.860 -30.165   5.861  0.00  0.00    -0.388 OA
ATOM     25  H   LIG    1       26.788 -29.998   6.103  0.00  0.00    +0.210 HD
ENDBRANCH  23  24
BRANCH  23  26
ATOM     26  C   LIG    1       24.039 -28.775   6.412  0.00  0.00    +0.188 C 
BRANCH  26  27
ATOM     27  O   LIG    1       23.216 -29.393   5.420  0.00  0.00    -0.392 OA
ATOM     28  H   LIG    1       23.794 -30.014   4.929  0.00  0.00    +0.209 HD
ENDBRANCH  26  27
ENDBRANCH  23  26
ENDBRANCH  22  23
ENDBRANCH  20  22
ENDBRANCH   1  20
BRANCH   4  29
ATOM     29  C   LIG    1       25.232 -28.801  12.985  0.00  0.00    +0.246 C 
ATOM     30  N   LIG    1       24.834 -27.457  13.027  0.00  0.00    -0.309 N 
ATOM     31  H   LIG    1       23.886 -27.252  12.759  0.00  0.00    +0.149 HD
ATOM     32  O   LIG    1       26.119 -29.229  13.678  0.00  0.00    -0.270 OA
BRANCH  30  33
ATOM     33  C   LIG    1       25.446 -26.524  13.991  0.00  0.00    +0.138 C 
BRANCH  33  34
ATOM     34  C   LIG    1       26.579 -25.711  13.333  0.00  0.00    +0.157 C 
BRANCH  34  35
ATOM     35  O   LIG    1       27.519 -26.588  12.698  0.00  0.00    -0.388 OA
ATOM     36  H   LIG    1       27.150 -26.808  11.823  0.00  0.00    +0.210 HD
ENDBRANCH  34  35
BRANCH  34  37
ATOM     37  C   LIG    1       27.343 -24.832  14.330  0.00  0.00    +0.188 C 
BRANCH  37  38
ATOM     38  O   LIG    1       26.702 -23.579  14.521  0.00  0.00    -0.392 OA
ATOM     39  H   LIG    1       26.606 -23.175  13.640  0.00  0.00    +0.209 HD
ENDBRANCH  37  38
ENDBRANCH  34  37
ENDBRANCH  33  34
ENDBRANCH  30  33
ENDBRANCH   4  29
TORSDOF 16
ENDMDL
MODEL 5
REMARK VINA RESULT:      -4.5      2.469      6.387
REMARK  Name = *****
REMARK                            x       y       z     vdW  Elec       q    Type
REMARK                         _______ _______ _______ _____ _____    ______ ____
ROOT
ATOM      1  C   LIG    1       25.239 -28.448  13.110  0.00  0.00    +0.064 A 
ATOM      2  C   LIG    1       25.511 -29.139  11.888  0.00  0.00    +0.049 A 
ATOM      3  I   LIG    1       27.537 -29.257  11.173  0.00  0.00    -0.041 I 
ATOM      4  C   LIG    1       24.475 -29.875  11.205  0.00  0.00    +0.065 A 
ATOM      5  C   LIG    1       23.276 -30.149  11.893  0.00  0.00    +0.040 A 
ATOM      6  I   LIG    1       21.467 -30.664  10.866  0.00  0.00    -0.042 I 
ATOM      7  C   LIG    1       23.170 -29.792  13.248  0.00  0.00    +0.065 A 
ATOM      8  C   LIG    1       23.996 -28.739  13.705  0.00  0.00    +0.049 A 
ATOM      9  I   LIG    1       22.585 -26.838  13.542  0.00  0.00    -0.041 I 
ENDROOT
BRANCH   7  10
ATOM     10  C   LIG    1       22.384 -30.539  14.262  0.00  0.00    +0.246 C 
ATOM     11  N   LIG    1       21.089 -30.104  14.466  0.00  0.00    -0.309 N 
ATOM     12  H   LIG    1       20.731 -29.275  13.988  0.00  0.00    +0.149 HD
ATOM     13  O   LIG    1       22.875 -31.458  14.938  0.00  0.00    -0.270 OA
BRANCH  11  14
ATOM     14  C   LIG    1       20.171 -30.786  15.372  0.00  0.00    +0.132 C 
BRANCH  14  15
ATOM     15  C   LIG    1       19.066 -31.572  14.663  0.00  0.00    +0.174 C 
BRANCH  15  16
ATOM     16  O   LIG    1       18.463 -30.786  13.638  0.00  0.00    -0.394 OA
ATOM     17  H   LIG    1       18.993 -29.974  13.564  0.00  0.00    +0.209 HD
ENDBRANCH  15  16
ENDBRANCH  14  15
ENDBRANCH  11  14
ENDBRANCH   7  10
BRANCH   1  20
ATOM     18  C   LIG    1       27.684 -25.816  14.507  0.00  0.00    +0.110 C 
ATOM     19  C   LIG    1       26.691 -26.539  13.581  0.00  0.00    +0.217 C 
ATOM     20  N   LIG    1       26.252 -27.812  13.948  0.00  0.00    -0.267 N 
ATOM     21  O   LIG    1       26.304 -25.969  12.569  0.00  0.00    -0.276 OA
BRANCH  20  22
ATOM     22  C   LIG    1       26.842 -28.586  15.067  0.00  0.00    +0.147 C 
BRANCH  22  23
ATOM     23  C   LIG    1       27.943 -29.558  14.632  0.00  0.00    +0.158 C 
BRANCH  23  24
ATOM     24  O   LIG    1       29.203 -29.203  15.217  0.00  0.00    -0.388 OA
ATOM     25  H   LIG    1       29.158 -29.327  16.181  0.00  0.00    +0.210 HD
ENDBRANCH  23  24
BRANCH  23  26
ATOM     26  C   LIG    1       27.682 -30.998  15.068  0.00  0.00    +0.188 C 
BRANCH  26  27
ATOM     27  O   LIG    1       26.918 -31.654  14.054  0.00  0.00    -0.392 OA
ATOM     28  H   LIG    1       26.392 -30.955  13.609  0.00  0.00    +0.209 HD
ENDBRANCH  26  27
ENDBRANCH  23  26
ENDBRANCH  22  23
ENDBRANCH  20  22
ENDBRANCH   1  20
BRANCH   4  29
ATOM     29  C   LIG    1       24.690 -30.345   9.776  0.00  0.00    +0.246 C 
ATOM     30  N   LIG    1       24.573 -29.390   8.756  0.00  0.00    -0.309 N 
ATOM     31  H   LIG    1       24.736 -28.429   9.008  0.00  0.00    +0.149 HD
ATOM     32  O   LIG    1       24.972 -31.493   9.549  0.00  0.00    -0.270 OA
BRANCH  30  33
ATOM     33  C   LIG    1       24.870 -29.747   7.356  0.00  0.00    +0.138 C 
BRANCH  33  34
ATOM     34  C   LIG    1       24.045 -28.887   6.378  0.00  0.00    +0.157 C 
BRANCH  34  35
ATOM     35  O   LIG    1       23.263 -29.724   5.515  0.00  0.00    -0.388 OA
ATOM     36  H   LIG    1       22.411 -29.871   5.966  0.00  0.00    +0.210 HD
ENDBRANCH  34  35
BRANCH  34  37
ATOM     37  C   LIG    1       24.913 -27.977   5.501  0.00  0.00    +0.188 C 
BRANCH  37  38
ATOM     38  O   LIG    1       26.210 -28.524   5.303  0.00  0.00    -0.392 OA
ATOM     39  H   LIG    1       26.241 -29.360   5.800  0.00  0.00    +0.209 HD
ENDBRANCH  37  38
ENDBRANCH  34  37
ENDBRANCH  33  34
ENDBRANCH  30  33
ENDBRANCH   4  29
TORSDOF 16
ENDMDL
MODEL 6
REMARK VINA RESULT:      -4.4      2.532      6.450
REMARK  Name = *****
REMARK                            x       y       z     vdW  Elec       q    Type
REMARK                         _______ _______ _______ _____ _____    ______ ____
ROOT
ATOM      1  C   LIG    1       25.105 -28.760  12.867  0.00  0.00    +0.064 A 
ATOM      2  C   LIG    1       25.280 -29.439  11.621  0.00  0.00    +0.049 A 
ATOM      3  I   LIG    1       27.253 -29.599  10.777  0.00  0.00    -0.041 I 
ATOM      4  C   LIG    1       24.184 -30.137  10.995  0.00  0.00    +0.065 A 
ATOM      5  C   LIG    1       23.024 -30.390  11.754  0.00  0.00    +0.040 A 
ATOM      6  I   LIG    1       21.140 -30.842  10.837  0.00  0.00    -0.042 I 
ATOM      7  C   LIG    1       23.013 -30.051  13.118  0.00  0.00    +0.065 A 
ATOM      8  C   LIG    1       23.894 -29.027  13.535  0.00  0.00    +0.049 A 
ATOM      9  I   LIG    1       22.528 -27.087  13.488  0.00  0.00    -0.041 I 
ENDROOT
BRANCH   7  10
ATOM     10  C   LIG    1       22.273 -30.792  14.170  0.00  0.00    +0.246 C 
ATOM     11  N   LIG    1       21.050 -30.264  14.537  0.00  0.00    -0.309 N 
ATOM     12  H   LIG    1       20.721 -29.379  14.147  0.00  0.00    +0.149 HD
ATOM     13  O   LIG    1       22.746 -31.791  14.737  0.00  0.00    -0.270 OA
BRANCH  11  14
ATOM     14  C   LIG    1       20.174 -30.922  15.499  0.00  0.00    +0.132 C 
BRANCH  14  15
ATOM     15  C   LIG    1       18.745 -31.135  14.996  0.00  0.00    +0.174 C 
BRANCH  15  16
ATOM     16  O   LIG    1       18.739 -31.450  13.606  0.00  0.00    -0.394 OA
ATOM     17  H   LIG    1       18.291 -30.713  13.157  0.00  0.00    +0.209 HD
ENDBRANCH  15  16
ENDBRANCH  14  15
ENDBRANCH  11  14
ENDBRANCH   7  10
BRANCH   1  20
ATOM     18  C   LIG    1       27.963 -28.362  15.421  0.00  0.00    +0.110 C 
ATOM     19  C   LIG    1       26.761 -28.939  14.655  0.00  0.00    +0.217 C 
ATOM     20  N   LIG    1       26.185 -28.164  13.648  0.00  0.00    -0.267 N 
ATOM     21  O   LIG    1       26.364 -30.062  14.939  0.00  0.00    -0.276 OA
BRANCH  20  22
ATOM     22  C   LIG    1       26.535 -26.741  13.414  0.00  0.00    +0.147 C 
BRANCH  22  23
ATOM     23  C   LIG    1       25.875 -25.774  14.402  0.00  0.00    +0.158 C 
BRANCH  23  24
ATOM     24  O   LIG    1       26.832 -25.260  15.338  0.00  0.00    -0.388 OA
ATOM     25  H   LIG    1       27.688 -25.140  14.890  0.00  0.00    +0.210 HD
ENDBRANCH  23  24
BRANCH  23  26
ATOM     26  C   LIG    1       25.266 -24.547  13.727  0.00  0.00    +0.188 C 
BRANCH  26  27
ATOM     27  O   LIG    1       25.864 -23.373  14.283  0.00  0.00    -0.392 OA
ATOM     28  H   LIG    1       25.509 -22.615  13.773  0.00  0.00    +0.209 HD
ENDBRANCH  26  27
ENDBRANCH  23  26
ENDBRANCH  22  23
ENDBRANCH  20  22
ENDBRANCH   1  20
BRANCH   4  29
ATOM     29  C   LIG    1       24.295 -30.590   9.549  0.00  0.00    +0.246 C 
ATOM     30  N   LIG    1       24.149 -29.616   8.551  0.00  0.00    -0.309 N 
ATOM     31  H   LIG    1       24.360 -28.666   8.807  0.00  0.00    +0.149 HD
ATOM     32  O   LIG    1       24.524 -31.744   9.289  0.00  0.00    -0.270 OA
BRANCH  30  33
ATOM     33  C   LIG    1       24.348 -29.960   7.132  0.00  0.00    +0.138 C 
BRANCH  33  34
ATOM     34  C   LIG    1       24.062 -28.748   6.223  0.00  0.00    +0.157 C 
BRANCH  34  35
ATOM     35  O   LIG    1       23.320 -29.156   5.065  0.00  0.00    -0.388 OA
ATOM     36  H   LIG    1       23.970 -29.485   4.418  0.00  0.00    +0.210 HD
ENDBRANCH  34  35
BRANCH  34  37
ATOM     37  C   LIG    1       25.337 -28.041   5.747  0.00  0.00    +0.188 C 
BRANCH  37  38
ATOM     38  O   LIG    1       26.209 -27.751   6.831  0.00  0.00    -0.392 OA
ATOM     39  H   LIG    1       25.667 -27.333   7.523  0.00  0.00    +0.209 HD
ENDBRANCH  37  38
ENDBRANCH  34  37
ENDBRANCH  33  34
ENDBRANCH  30  33
ENDBRANCH   4  29
TORSDOF 16
ENDMDL
MODEL 7
REMARK VINA RESULT:      -4.4      2.820      7.477
REMARK  Name = *****
REMARK                            x       y       z     vdW  Elec       q    Type
REMARK                         _______ _______ _______ _____ _____    ______ ____
ROOT
ATOM      1  C   LIG    1       22.801 -30.062  13.257  0.00  0.00    +0.064 A 
ATOM      2  C   LIG    1       22.991 -30.303  11.861  0.00  0.00    +0.049 A 
ATOM      3  I   LIG    1       21.334 -31.000  10.678  0.00  0.00    -0.041 I 
ATOM      4  C   LIG    1       24.229 -29.955  11.209  0.00  0.00    +0.065 A 
ATOM      5  C   LIG    1       25.137 -29.116  11.886  0.00  0.00    +0.040 A 
ATOM      6  I   LIG    1       27.208 -29.009  11.348  0.00  0.00    -0.042 I 
ATOM      7  C   LIG    1       24.762 -28.564  13.123  0.00  0.00    +0.065 A 
ATOM      8  C   LIG    1       23.782 -29.258  13.870  0.00  0.00    +0.049 A 
ATOM      9  I   LIG    1       25.075 -30.589  15.349  0.00  0.00    -0.041 I 
ENDROOT
BRANCH   7  10
ATOM     10  C   LIG    1       25.192 -27.233  13.622  0.00  0.00    +0.246 C 
ATOM     11  N   LIG    1       26.200 -27.237  14.567  0.00  0.00    -0.309 N 
ATOM     12  H   LIG    1       26.568 -28.115  14.939  0.00  0.00    +0.149 HD
ATOM     13  O   LIG    1       24.639 -26.179  13.266  0.00  0.00    -0.270 OA
BRANCH  11  14
ATOM     14  C   LIG    1       26.780 -26.007  15.093  0.00  0.00    +0.132 C 
BRANCH  14  15
ATOM     15  C   LIG    1       27.705 -25.286  14.110  0.00  0.00    +0.174 C 
BRANCH  15  16
ATOM     16  O   LIG    1       27.674 -23.877  14.327  0.00  0.00    -0.394 OA
ATOM     17  H   LIG    1       28.258 -23.481  13.657  0.00  0.00    +0.209 HD
ENDBRANCH  15  16
ENDBRANCH  14  15
ENDBRANCH  11  14
ENDBRANCH   7  10
BRANCH   1  20
ATOM     18  C   LIG    1       19.205 -29.441  14.498  0.00  0.00    +0.110 C 
ATOM     19  C   LIG    1       20.577 -29.229  13.837  0.00  0.00    +0.217 C 
ATOM     20  N   LIG    1       21.536 -30.235  13.967  0.00  0.00    -0.267 N 
ATOM     21  O   LIG    1       20.775 -28.199  13.205  0.00  0.00    -0.276 OA
BRANCH  20  22
ATOM     22  C   LIG    1       21.378 -31.399  14.873  0.00  0.00    +0.147 C 
BRANCH  22  23
ATOM     23  C   LIG    1       21.590 -32.750  14.183  0.00  0.00    +0.158 C 
BRANCH  23  24
ATOM     24  O   LIG    1       22.546 -33.548  14.894  0.00  0.00    -0.388 OA
ATOM     25  H   LIG    1       23.359 -33.625  14.364  0.00  0.00    +0.210 HD
ENDBRANCH  23  24
BRANCH  23  26
ATOM     26  C   LIG    1       20.321 -33.598  14.118  0.00  0.00    +0.188 C 
BRANCH  26  27
ATOM     27  O   LIG    1       19.318 -32.870  13.405  0.00  0.00    -0.392 OA
ATOM     28  H   LIG    1       19.323 -33.218  12.488  0.00  0.00    +0.209 HD
ENDBRANCH  26  27
ENDBRANCH  23  26
ENDBRANCH  22  23
ENDBRANCH  20  22
ENDBRANCH   1  20
BRANCH   4  29
ATOM     29  C   LIG    1       24.533 -30.484   9.817  0.00  0.00    +0.246 C 
ATOM     30  N   LIG    1       24.345 -29.610   8.736  0.00  0.00    -0.309 N 
ATOM     31  H   LIG    1       24.398 -28.625   8.931  0.00  0.00    +0.149 HD
ATOM     32  O   LIG    1       24.941 -31.607   9.669  0.00  0.00    -0.270 OA
BRANCH  30  33
ATOM     33  C   LIG    1       24.718 -30.017   7.369  0.00  0.00    +0.138 C 
BRANCH  33  34
ATOM     34  C   LIG    1       24.187 -29.012   6.328  0.00  0.00    +0.157 C 
BRANCH  34  35
ATOM     35  O   LIG    1       23.158 -29.614   5.532  0.00  0.00    -0.388 OA
ATOM     36  H   LIG    1       23.336 -29.362   4.607  0.00  0.00    +0.210 HD
ENDBRANCH  34  35
BRANCH  34  37
ATOM     37  C   LIG    1       25.279 -28.494   5.384  0.00  0.00    +0.188 C 
BRANCH  37  38
ATOM     38  O   LIG    1       26.243 -27.714   6.077  0.00  0.00    -0.392 OA
ATOM     39  H   LIG    1       25.998 -26.782   5.944  0.00  0.00    +0.209 HD
ENDBRANCH  37  38
ENDBRANCH  34  37
ENDBRANCH  33  34
ENDBRANCH  30  33
ENDBRANCH   4  29
TORSDOF 16
ENDMDL
MODEL 8
REMARK VINA RESULT:      -4.4      2.361      3.067
REMARK  Name = *****
REMARK                            x       y       z     vdW  Elec       q    Type
REMARK                         _______ _______ _______ _____ _____    ______ ____
ROOT
ATOM      1  C   LIG    1       23.767 -30.639  11.997  0.00  0.00    +0.064 A 
ATOM      2  C   LIG    1       22.356 -30.419  11.920  0.00  0.00    +0.049 A 
ATOM      3  I   LIG    1       21.507 -28.688  12.875  0.00  0.00    -0.041 I 
ATOM      4  C   LIG    1       21.518 -31.256  11.098  0.00  0.00    +0.065 A 
ATOM      5  C   LIG    1       22.129 -32.104  10.153  0.00  0.00    +0.040 A 
ATOM      6  I   LIG    1       21.116 -33.799   9.319  0.00  0.00    -0.042 I 
ATOM      7  C   LIG    1       23.521 -32.028   9.968  0.00  0.00    +0.065 A 
ATOM      8  C   LIG    1       24.290 -31.541  11.050  0.00  0.00    +0.049 A 
ATOM      9  I   LIG    1       24.981 -33.525  12.155  0.00  0.00    -0.041 I 
ENDROOT
BRANCH   7  10
ATOM     10  C   LIG    1       24.219 -32.262   8.679  0.00  0.00    +0.246 C 
ATOM     11  N   LIG    1       24.059 -31.284   7.717  0.00  0.00    -0.309 N 
ATOM     12  H   LIG    1       23.439 -30.487   7.876  0.00  0.00    +0.149 HD
ATOM     13  O   LIG    1       24.856 -33.303   8.448  0.00  0.00    -0.270 OA
BRANCH  11  14
ATOM     14  C   LIG    1       24.744 -31.335   6.431  0.00  0.00    +0.132 C 
BRANCH  14  15
ATOM     15  C   LIG    1       24.662 -30.035   5.629  0.00  0.00    +0.174 C 
BRANCH  15  16
ATOM     16  O   LIG    1       23.304 -29.643   5.439  0.00  0.00    -0.394 OA
ATOM     17  H   LIG    1       23.324 -28.814   4.930  0.00  0.00    +0.209 HD
ENDBRANCH  15  16
ENDBRANCH  14  15
ENDBRANCH  11  14
ENDBRANCH   7  10
BRANCH   1  20
ATOM     18  C   LIG    1       25.988 -29.096  14.743  0.00  0.00    +0.110 C 
ATOM     19  C   LIG    1       24.926 -29.956  14.038  0.00  0.00    +0.217 C 
ATOM     20  N   LIG    1       24.711 -29.754  12.674  0.00  0.00    -0.267 N 
ATOM     21  O   LIG    1       24.322 -30.799  14.688  0.00  0.00    -0.276 OA
BRANCH  20  22
ATOM     22  C   LIG    1       25.299 -28.624  11.915  0.00  0.00    +0.147 C 
BRANCH  22  23
ATOM     23  C   LIG    1       26.469 -29.029  11.012  0.00  0.00    +0.158 C 
BRANCH  23  24
ATOM     24  O   LIG    1       26.456 -28.284   9.787  0.00  0.00    -0.388 OA
ATOM     25  H   LIG    1       26.844 -28.825   9.077  0.00  0.00    +0.210 HD
ENDBRANCH  23  24
BRANCH  23  26
ATOM     26  C   LIG    1       27.835 -28.760  11.639  0.00  0.00    +0.188 C 
BRANCH  26  27
ATOM     27  O   LIG    1       28.726 -29.814  11.269  0.00  0.00    -0.392 OA
ATOM     28  H   LIG    1       28.337 -30.239  10.476  0.00  0.00    +0.209 HD
ENDBRANCH  26  27
ENDBRANCH  23  26
ENDBRANCH  22  23
ENDBRANCH  20  22
ENDBRANCH   1  20
BRANCH   4  29
ATOM     29  C   LIG    1       20.006 -31.211  11.255  0.00  0.00    +0.246 C 
ATOM     30  N   LIG    1       19.459 -31.768  12.419  0.00  0.00    -0.309 N 
ATOM     31  H   LIG    1       20.056 -31.814  13.228  0.00  0.00    +0.149 HD
ATOM     32  O   LIG    1       19.323 -30.690  10.411  0.00  0.00    -0.270 OA
BRANCH  30  33
ATOM     33  C   LIG    1       18.013 -31.667  12.690  0.00  0.00    +0.138 C 
BRANCH  33  34
ATOM     34  C   LIG    1       17.740 -30.765  13.910  0.00  0.00    +0.157 C 
BRANCH  34  35
ATOM     35  O   LIG    1       17.772 -29.383  13.527  0.00  0.00    -0.388 OA
ATOM     36  H   LIG    1       18.696 -29.089  13.620  0.00  0.00    +0.210 HD
ENDBRANCH  34  35
BRANCH  34  37
ATOM     37  C   LIG    1       18.751 -30.968  15.045  0.00  0.00    +0.188 C 
BRANCH  37  38
ATOM     38  O   LIG    1       19.018 -32.346  15.267  0.00  0.00    -0.392 OA
ATOM     39  H   LIG    1       19.231 -32.734  14.400  0.00  0.00    +0.209 HD
ENDBRANCH  37  38
ENDBRANCH  34  37
ENDBRANCH  33  34
ENDBRANCH  30  33
ENDBRANCH   4  29
TORSDOF 16
ENDMDL
MODEL 9
REMARK VINA RESULT:      -4.2      2.603      7.597
REMARK  Name = *****
REMARK                            x       y       z     vdW  Elec       q    Type
REMARK                         _______ _______ _______ _____ _____    ______ ____
ROOT
ATOM      1  C   LIG    1       22.706 -31.414  12.552  0.00  0.00    +0.064 A 
ATOM      2  C   LIG    1       23.025 -31.620  11.174  0.00  0.00    +0.049 A 
ATOM      3  I   LIG    1       21.665 -32.736   9.934  0.00  0.00    -0.041 I 
ATOM      4  C   LIG    1       24.167 -30.978  10.571  0.00  0.00    +0.065 A 
ATOM      5  C   LIG    1       24.794 -29.925  11.266  0.00  0.00    +0.040 A 
ATOM      6  I   LIG    1       26.796 -29.301  10.824  0.00  0.00    -0.042 I 
ATOM      7  C   LIG    1       24.226 -29.467  12.467  0.00  0.00    +0.065 A 
ATOM      8  C   LIG    1       23.416 -30.376  13.186  0.00  0.00    +0.049 A 
ATOM      9  I   LIG    1       24.925 -31.309  14.763  0.00  0.00    -0.041 I 
ENDROOT
BRANCH   7  10
ATOM     10  C   LIG    1       24.276 -28.063  12.947  0.00  0.00    +0.246 C 
ATOM     11  N   LIG    1       23.056 -27.465  13.200  0.00  0.00    -0.309 N 
ATOM     12  H   LIG    1       22.181 -27.951  12.999  0.00  0.00    +0.149 HD
ATOM     13  O   LIG    1       25.343 -27.435  13.055  0.00  0.00    -0.270 OA
BRANCH  11  14
ATOM     14  C   LIG    1       22.947 -26.118  13.749  0.00  0.00    +0.132 C 
BRANCH  14  15
ATOM     15  C   LIG    1       22.362 -26.068  15.162  0.00  0.00    +0.174 C 
BRANCH  15  16
ATOM     16  O   LIG    1       21.053 -26.632  15.189  0.00  0.00    -0.394 OA
ATOM     17  H   LIG    1       20.563 -26.230  14.450  0.00  0.00    +0.209 HD
ENDBRANCH  15  16
ENDBRANCH  14  15
ENDBRANCH  11  14
ENDBRANCH   7  10
BRANCH   1  20
ATOM     18  C   LIG    1       20.309 -33.592  14.640  0.00  0.00    +0.110 C 
ATOM     19  C   LIG    1       21.550 -33.121  13.865  0.00  0.00    +0.217 C 
ATOM     20  N   LIG    1       21.490 -31.892  13.205  0.00  0.00    -0.267 N 
ATOM     21  O   LIG    1       22.552 -33.825  13.870  0.00  0.00    -0.276 OA
BRANCH  20  22
ATOM     22  C   LIG    1       20.237 -31.117  13.039  0.00  0.00    +0.147 C 
BRANCH  22  23
ATOM     23  C   LIG    1       20.207 -29.813  13.843  0.00  0.00    +0.158 C 
BRANCH  23  24
ATOM     24  O   LIG    1       20.311 -28.674  12.979  0.00  0.00    -0.388 OA
ATOM     25  H   LIG    1       20.231 -28.962  12.053  0.00  0.00    +0.210 HD
ENDBRANCH  23  24
BRANCH  23  26
ATOM     26  C   LIG    1       18.910 -29.616  14.623  0.00  0.00    +0.188 C 
BRANCH  26  27
ATOM     27  O   LIG    1       18.578 -28.226  14.619  0.00  0.00    -0.392 OA
ATOM     28  H   LIG    1       18.575 -27.940  15.557  0.00  0.00    +0.209 HD
ENDBRANCH  26  27
ENDBRANCH  23  26
ENDBRANCH  22  23
ENDBRANCH  20  22
ENDBRANCH   1  20
BRANCH   4  29
ATOM     29  C   LIG    1       24.668 -31.434   9.211  0.00  0.00    +0.246 C 
ATOM     30  N   LIG    1       24.325 -30.653   8.098  0.00  0.00    -0.309 N 
ATOM     31  H   LIG    1       24.118 -29.683   8.267  0.00  0.00    +0.149 HD
ATOM     32  O   LIG    1       25.354 -32.420   9.115  0.00  0.00    -0.270 OA
BRANCH  30  33
ATOM     33  C   LIG    1       24.862 -30.973   6.763  0.00  0.00    +0.138 C 
BRANCH  33  34
ATOM     34  C   LIG    1       24.825 -29.738   5.840  0.00  0.00    +0.157 C 
BRANCH  34  35
ATOM     35  O   LIG    1       26.030 -29.657   5.066  0.00  0.00    -0.388 OA
ATOM     36  H   LIG    1       25.796 -29.922   4.157  0.00  0.00    +0.210 HD
ENDBRANCH  34  35
BRANCH  34  37
ATOM     37  C   LIG    1       24.663 -28.421   6.608  0.00  0.00    +0.188 C 
BRANCH  37  38
ATOM     38  O   LIG    1       25.822 -28.113   7.370  0.00  0.00    -0.392 OA
ATOM     39  H   LIG    1       25.684 -28.490   8.256  0.00  0.00    +0.209 HD
ENDBRANCH  37  38
ENDBRANCH  34  37
ENDBRANCH  33  34
ENDBRANCH  30  33
ENDBRANCH   4  29
TORSDOF 16
ENDMDL
