MODEL 1
REMARK VINA RESULT:      -5.7      0.000      0.000
REMARK  Name = *****
REMARK                            x       y       z     vdW  Elec       q    Type
REMARK                         _______ _______ _______ _____ _____    ______ ____
ROOT
ATOM      1  C   LIG    1       24.152 -30.575  12.319  0.00  0.00    +0.176 C 
ATOM      2  C   LIG    1       25.317 -30.636  11.249  0.00  0.00    +0.018 C 
ATOM      3  C   LIG    1       26.639 -30.068  11.796  0.00  0.00    +0.016 C 
ATOM      4  C   LIG    1       24.770 -29.789  10.078  0.00  0.00    +0.007 C 
ATOM      5  C   LIG    1       25.564 -29.907   8.745  0.00  0.00    +0.021 C 
ATOM      6  C   LIG    1       26.132 -31.300   8.347  0.00  0.00    +0.007 C 
ATOM      7  C   LIG    1       26.463 -32.207   9.546  0.00  0.00    +0.006 C 
ATOM      8  C   LIG    1       25.430 -32.001   7.116  0.00  0.00    +0.001 C 
ATOM      9  C   LIG    1       23.976 -32.451   7.397  0.00  0.00    +0.017 C 
ATOM     10  C   LIG    1       25.371 -30.977   5.960  0.00  0.00    -0.020 C 
ATOM     11  C   LIG    1       25.789 -31.246   4.706  0.00  0.00    +0.052 C 
ATOM     12  C   LIG    1       26.383 -32.533   4.292  0.00  0.00    +0.160 C 
ATOM     13  O   LIG    1       26.710 -32.747   3.131  0.00  0.00    -0.292 OA
ATOM     14  C   LIG    1       26.607 -33.548   5.339  0.00  0.00    +0.064 C 
ATOM     15  C   LIG    1       27.660 -33.303   6.394  0.00  0.00    +0.016 C 
ATOM     16  C   LIG    1       24.849 -29.661   6.332  0.00  0.00    +0.041 C 
ATOM     17 CL   LIG    1       24.075 -28.675   5.128  0.00  0.00    -0.084 Cl
ATOM     18  C   LIG    1       26.195 -33.288   6.762  0.00  0.00    +0.011 C 
ATOM     19  C   LIG    1       24.907 -29.192   7.589  0.00  0.00    -0.003 C 
ATOM     20  C   LIG    1       23.265 -30.097  10.057  0.00  0.00    +0.009 C 
ATOM     21  C   LIG    1       25.545 -32.088  10.754  0.00  0.00    +0.011 C 
ATOM     22  C   LIG    1       22.904 -30.710  11.419  0.00  0.00    +0.057 C 
ENDROOT
BRANCH   1  23
ATOM     23  C   LIG    1       24.106 -29.219  13.101  0.00  0.00    +0.174 C 
ATOM     24  O   LIG    1       24.960 -28.921  13.940  0.00  0.00    -0.293 OA
ATOM     25  C   LIG    1       22.941 -28.278  12.857  0.00  0.00    +0.090 C 
ENDBRANCH   1  23
BRANCH   1  26
ATOM     26  O   LIG    1       24.289 -31.698  13.222  0.00  0.00    -0.450 OA
BRANCH  26  28
ATOM     27  C   LIG    1       23.002 -33.680  13.115  0.00  0.00    +0.136 C 
ATOM     28  C   LIG    1       23.155 -32.299  13.684  0.00  0.00    +0.305 C 
ATOM     29  O   LIG    1       22.393 -31.821  14.502  0.00  0.00    -0.251 OA
ENDBRANCH  26  28
ENDBRANCH   1  26
TORSDOF 3
ENDMDL
MODEL 2
REMARK VINA RESULT:      -5.2      4.728      8.540
REMARK  Name = *****
REMARK                            x       y       z     vdW  Elec       q    Type
REMARK                         _______ _______ _______ _____ _____    ______ ____
ROOT
ATOM      1  C   LIG    1       26.331 -29.551  13.156  0.00  0.00    +0.176 C 
ATOM      2  C   LIG    1       25.274 -28.855  14.106  0.00  0.00    +0.018 C 
ATOM      3  C   LIG    1       25.924 -28.281  15.378  0.00  0.00    +0.016 C 
ATOM      4  C   LIG    1       24.283 -29.995  14.433  0.00  0.00    +0.007 C 
ATOM      5  C   LIG    1       22.956 -29.548  15.110  0.00  0.00    +0.021 C 
ATOM      6  C   LIG    1       22.302 -28.215  14.642  0.00  0.00    +0.007 C 
ATOM      7  C   LIG    1       23.308 -27.176  14.114  0.00  0.00    +0.006 C 
ATOM      8  C   LIG    1       20.958 -28.361  13.822  0.00  0.00    +0.001 C 
ATOM      9  C   LIG    1       21.142 -28.997  12.423  0.00  0.00    +0.017 C 
ATOM     10  C   LIG    1       20.017 -29.292  14.622  0.00  0.00    -0.020 C 
ATOM     11  C   LIG    1       18.736 -28.982  14.912  0.00  0.00    +0.052 C 
ATOM     12  C   LIG    1       18.088 -27.711  14.536  0.00  0.00    +0.160 C 
ATOM     13  O   LIG    1       16.909 -27.491  14.786  0.00  0.00    -0.292 OA
ATOM     14  C   LIG    1       18.923 -26.689  13.877  0.00  0.00    +0.064 C 
ATOM     15  C   LIG    1       20.010 -26.000  14.668  0.00  0.00    +0.016 C 
ATOM     16  C   LIG    1       20.630 -30.541  15.076  0.00  0.00    +0.041 C 
ATOM     17 CL   LIG    1       19.632 -31.940  15.336  0.00  0.00    -0.084 Cl
ATOM     18  C   LIG    1       20.369 -26.964  13.562  0.00  0.00    +0.011 C 
ATOM     19  C   LIG    1       21.953 -30.665  15.266  0.00  0.00    -0.003 C 
ATOM     20  C   LIG    1       24.198 -30.808  13.133  0.00  0.00    +0.009 C 
ATOM     21  C   LIG    1       24.513 -27.726  13.363  0.00  0.00    +0.011 C 
ATOM     22  C   LIG    1       25.416 -30.432  12.276  0.00  0.00    +0.057 C 
ENDROOT
BRANCH   1  23
ATOM     23  C   LIG    1       27.356 -30.447  13.929  0.00  0.00    +0.174 C 
ATOM     24  O   LIG    1       27.133 -31.638  14.163  0.00  0.00    -0.293 OA
ATOM     25  C   LIG    1       28.629 -29.811  14.454  0.00  0.00    +0.090 C 
ENDBRANCH   1  23
BRANCH   1  26
ATOM     26  O   LIG    1       27.005 -28.530  12.381  0.00  0.00    -0.450 OA
BRANCH  26  28
ATOM     27  C   LIG    1       26.694 -28.297  10.048  0.00  0.00    +0.136 C 
ATOM     28  C   LIG    1       27.515 -28.875  11.164  0.00  0.00    +0.305 C 
ATOM     29  O   LIG    1       28.539 -29.507  10.988  0.00  0.00    -0.251 OA
ENDBRANCH  26  28
ENDBRANCH   1  26
TORSDOF 3
ENDMDL
MODEL 3
REMARK VINA RESULT:      -5.1      4.555      7.868
REMARK  Name = *****
REMARK                            x       y       z     vdW  Elec       q    Type
REMARK                         _______ _______ _______ _____ _____    ______ ____
ROOT
ATOM      1  C   LIG    1       25.809 -28.983  12.879  0.00  0.00    +0.176 C 
ATOM      2  C   LIG    1       24.409 -29.449  12.307  0.00  0.00    +0.018 C 
ATOM      3  C   LIG    1       24.454 -29.695  10.788  0.00  0.00    +0.016 C 
ATOM      4  C   LIG    1       23.467 -28.279  12.671  0.00  0.00    +0.007 C 
ATOM      5  C   LIG    1       21.948 -28.573  12.506  0.00  0.00    +0.021 C 
ATOM      6  C   LIG    1       21.425 -29.988  12.888  0.00  0.00    +0.007 C 
ATOM      7  C   LIG    1       22.469 -31.107  12.720  0.00  0.00    +0.006 C 
ATOM      8  C   LIG    1       20.531 -30.060  14.190  0.00  0.00    +0.001 C 
ATOM      9  C   LIG    1       21.305 -29.772  15.499  0.00  0.00    +0.017 C 
ATOM     10  C   LIG    1       19.432 -28.981  14.068  0.00  0.00    -0.020 C 
ATOM     11  C   LIG    1       18.120 -29.231  14.257  0.00  0.00    +0.052 C 
ATOM     12  C   LIG    1       17.570 -30.566  14.570  0.00  0.00    +0.160 C 
ATOM     13  O   LIG    1       16.375 -30.737  14.775  0.00  0.00    -0.292 OA
ATOM     14  C   LIG    1       18.510 -31.702  14.590  0.00  0.00    +0.064 C 
ATOM     15  C   LIG    1       19.135 -32.168  13.296  0.00  0.00    +0.016 C 
ATOM     16  C   LIG    1       19.916 -27.651  13.695  0.00  0.00    +0.041 C 
ATOM     17 CL   LIG    1       19.016 -26.245  14.179  0.00  0.00    -0.084 Cl
ATOM     18  C   LIG    1       19.980 -31.488  14.347  0.00  0.00    +0.011 C 
ATOM     19  C   LIG    1       21.061 -27.465  13.021  0.00  0.00    -0.003 C 
ATOM     20  C   LIG    1       23.970 -27.798  14.041  0.00  0.00    +0.009 C 
ATOM     21  C   LIG    1       23.913 -30.733  13.022  0.00  0.00    +0.011 C 
ATOM     22  C   LIG    1       25.392 -28.349  14.225  0.00  0.00    +0.057 C 
ENDROOT
BRANCH   1  23
ATOM     23  C   LIG    1       26.515 -27.913  11.979  0.00  0.00    +0.174 C 
ATOM     24  O   LIG    1       27.006 -28.204  10.884  0.00  0.00    -0.293 OA
ATOM     25  C   LIG    1       26.649 -26.495  12.502  0.00  0.00    +0.090 C 
ENDBRANCH   1  23
BRANCH   1  26
ATOM     26  O   LIG    1       26.647 -30.147  13.067  0.00  0.00    -0.450 OA
BRANCH  26  28
ATOM     27  C   LIG    1       27.412 -31.053  15.115  0.00  0.00    +0.136 C 
ATOM     28  C   LIG    1       27.646 -30.081  13.994  0.00  0.00    +0.305 C 
ATOM     29  O   LIG    1       28.638 -29.384  13.906  0.00  0.00    -0.251 OA
ENDBRANCH  26  28
ENDBRANCH   1  26
TORSDOF 3
ENDMDL
MODEL 4
REMARK VINA RESULT:      -5.0      2.691      3.969
REMARK  Name = *****
REMARK                            x       y       z     vdW  Elec       q    Type
REMARK                         _______ _______ _______ _____ _____    ______ ____
ROOT
ATOM      1  C   LIG    1       27.188 -29.318  13.355  0.00  0.00    +0.176 C 
ATOM      2  C   LIG    1       26.711 -29.155  11.855  0.00  0.00    +0.018 C 
ATOM      3  C   LIG    1       26.773 -27.692  11.381  0.00  0.00    +0.016 C 
ATOM      4  C   LIG    1       25.261 -29.688  11.881  0.00  0.00    +0.007 C 
ATOM      5  C   LIG    1       24.620 -29.939  10.485  0.00  0.00    +0.021 C 
ATOM      6  C   LIG    1       25.519 -30.519   9.355  0.00  0.00    +0.007 C 
ATOM      7  C   LIG    1       27.007 -30.145   9.485  0.00  0.00    +0.006 C 
ATOM      8  C   LIG    1       25.211 -32.010   8.930  0.00  0.00    +0.001 C 
ATOM      9  C   LIG    1       25.556 -33.056  10.017  0.00  0.00    +0.017 C 
ATOM     10  C   LIG    1       23.693 -32.120   8.663  0.00  0.00    -0.020 C 
ATOM     11  C   LIG    1       23.172 -32.657   7.540  0.00  0.00    +0.052 C 
ATOM     12  C   LIG    1       23.982 -33.172   6.418  0.00  0.00    +0.160 C 
ATOM     13  O   LIG    1       23.466 -33.689   5.435  0.00  0.00    -0.292 OA
ATOM     14  C   LIG    1       25.446 -33.007   6.503  0.00  0.00    +0.064 C 
ATOM     15  C   LIG    1       26.041 -31.622   6.410  0.00  0.00    +0.016 C 
ATOM     16  C   LIG    1       22.842 -31.565   9.717  0.00  0.00    +0.041 C 
ATOM     17 CL   LIG    1       21.236 -32.190   9.940  0.00  0.00    -0.084 Cl
ATOM     18  C   LIG    1       26.080 -32.381   7.715  0.00  0.00    +0.011 C 
ATOM     19  C   LIG    1       23.268 -30.607  10.555  0.00  0.00    -0.003 C 
ATOM     20  C   LIG    1       25.302 -30.853  12.881  0.00  0.00    +0.009 C 
ATOM     21  C   LIG    1       27.555 -30.041  10.901  0.00  0.00    +0.011 C 
ATOM     22  C   LIG    1       26.580 -30.691  13.720  0.00  0.00    +0.057 C 
ENDROOT
BRANCH   1  23
ATOM     23  C   LIG    1       26.619 -28.211  14.304  0.00  0.00    +0.174 C 
ATOM     24  O   LIG    1       26.978 -27.032  14.219  0.00  0.00    -0.293 OA
ATOM     25  C   LIG    1       25.647 -28.616  15.396  0.00  0.00    +0.090 C 
ENDBRANCH   1  23
BRANCH   1  26
ATOM     26  O   LIG    1       28.635 -29.344  13.385  0.00  0.00    -0.450 OA
BRANCH  26  28
ATOM     27  C   LIG    1       30.031 -28.576  15.134  0.00  0.00    +0.136 C 
ATOM     28  C   LIG    1       29.250 -29.716  14.544  0.00  0.00    +0.305 C 
ATOM     29  O   LIG    1       29.137 -30.801  15.080  0.00  0.00    -0.251 OA
ENDBRANCH  26  28
ENDBRANCH   1  26
TORSDOF 3
ENDMDL
MODEL 5
REMARK VINA RESULT:      -5.0      3.340      7.545
REMARK  Name = *****
REMARK                            x       y       z     vdW  Elec       q    Type
REMARK                         _______ _______ _______ _____ _____    ______ ____
ROOT
ATOM      1  C   LIG    1       25.513 -31.180  10.459  0.00  0.00    +0.176 C 
ATOM      2  C   LIG    1       24.405 -31.921  11.312  0.00  0.00    +0.018 C 
ATOM      3  C   LIG    1       24.769 -33.391  11.587  0.00  0.00    +0.016 C 
ATOM      4  C   LIG    1       23.138 -31.798  10.436  0.00  0.00    +0.007 C 
ATOM      5  C   LIG    1       21.803 -32.169  11.143  0.00  0.00    +0.021 C 
ATOM      6  C   LIG    1       21.619 -31.761  12.634  0.00  0.00    +0.007 C 
ATOM      7  C   LIG    1       22.937 -31.680  13.426  0.00  0.00    +0.006 C 
ATOM      8  C   LIG    1       20.571 -30.609  12.906  0.00  0.00    +0.001 C 
ATOM      9  C   LIG    1       21.008 -29.224  12.371  0.00  0.00    +0.017 C 
ATOM     10  C   LIG    1       19.261 -30.983  12.177  0.00  0.00    -0.020 C 
ATOM     11  C   LIG    1       18.050 -30.976  12.773  0.00  0.00    +0.052 C 
ATOM     12  C   LIG    1       17.832 -30.647  14.196  0.00  0.00    +0.160 C 
ATOM     13  O   LIG    1       16.709 -30.615  14.683  0.00  0.00    -0.292 OA
ATOM     14  C   LIG    1       19.024 -30.396  15.027  0.00  0.00    +0.064 C 
ATOM     15  C   LIG    1       19.959 -31.539  15.346  0.00  0.00    +0.016 C 
ATOM     16  C   LIG    1       19.428 -31.379  10.778  0.00  0.00    +0.041 C 
ATOM     17 CL   LIG    1       18.117 -31.150   9.660  0.00  0.00    -0.084 Cl
ATOM     18  C   LIG    1       20.402 -30.427  14.424  0.00  0.00    +0.011 C 
ATOM     19  C   LIG    1       20.579 -31.884  10.306  0.00  0.00    -0.003 C 
ATOM     20  C   LIG    1       23.256 -30.409   9.790  0.00  0.00    +0.009 C 
ATOM     21  C   LIG    1       24.157 -31.191  12.659  0.00  0.00    +0.011 C 
ATOM     22  C   LIG    1       24.722 -29.967   9.920  0.00  0.00    +0.057 C 
ENDROOT
BRANCH   1  23
ATOM     23  C   LIG    1       26.049 -32.042   9.267  0.00  0.00    +0.174 C 
ATOM     24  O   LIG    1       26.838 -32.976   9.441  0.00  0.00    -0.293 OA
ATOM     25  C   LIG    1       25.630 -31.676   7.856  0.00  0.00    +0.090 C 
ENDBRANCH   1  23
BRANCH   1  26
ATOM     26  O   LIG    1       26.587 -30.775  11.340  0.00  0.00    -0.450 OA
BRANCH  26  28
ATOM     27  C   LIG    1       27.109 -28.676  12.298  0.00  0.00    +0.136 C 
ATOM     28  C   LIG    1       27.202 -29.581  11.103  0.00  0.00    +0.305 C 
ATOM     29  O   LIG    1       27.810 -29.295  10.090  0.00  0.00    -0.251 OA
ENDBRANCH  26  28
ENDBRANCH   1  26
TORSDOF 3
ENDMDL
MODEL 6
REMARK VINA RESULT:      -4.8      2.935      7.544
REMARK  Name = *****
REMARK                            x       y       z     vdW  Elec       q    Type
REMARK                         _______ _______ _______ _____ _____    ______ ____
ROOT
ATOM      1  C   LIG    1       25.828 -32.112   8.146  0.00  0.00    +0.176 C 
ATOM      2  C   LIG    1       25.732 -31.189   9.428  0.00  0.00    +0.018 C 
ATOM      3  C   LIG    1       27.077 -30.522   9.767  0.00  0.00    +0.016 C 
ATOM      4  C   LIG    1       25.281 -32.166  10.539  0.00  0.00    +0.007 C 
ATOM      5  C   LIG    1       24.806 -31.496  11.860  0.00  0.00    +0.021 C 
ATOM      6  C   LIG    1       23.985 -30.177  11.764  0.00  0.00    +0.007 C 
ATOM      7  C   LIG    1       24.307 -29.329  10.520  0.00  0.00    +0.006 C 
ATOM      8  C   LIG    1       22.457 -30.290  12.153  0.00  0.00    +0.001 C 
ATOM      9  C   LIG    1       21.616 -31.123  11.156  0.00  0.00    +0.017 C 
ATOM     10  C   LIG    1       22.371 -31.002  13.523  0.00  0.00    -0.020 C 
ATOM     11  C   LIG    1       21.660 -30.525  14.565  0.00  0.00    +0.052 C 
ATOM     12  C   LIG    1       20.908 -29.254  14.540  0.00  0.00    +0.160 C 
ATOM     13  O   LIG    1       20.243 -28.881  15.498  0.00  0.00    -0.292 OA
ATOM     14  C   LIG    1       21.018 -28.422  13.327  0.00  0.00    +0.064 C 
ATOM     15  C   LIG    1       22.332 -27.751  13.006  0.00  0.00    +0.016 C 
ATOM     16  C   LIG    1       23.151 -32.236  13.623  0.00  0.00    +0.041 C 
ATOM     17 CL   LIG    1       22.654 -33.476  14.735  0.00  0.00    -0.084 Cl
ATOM     18  C   LIG    1       21.828 -28.886  12.147  0.00  0.00    +0.011 C 
ATOM     19  C   LIG    1       24.227 -32.472  12.855  0.00  0.00    -0.003 C 
ATOM     20  C   LIG    1       24.321 -33.132   9.828  0.00  0.00    +0.009 C 
ATOM     21  C   LIG    1       24.646 -30.096   9.250  0.00  0.00    +0.011 C 
ATOM     22  C   LIG    1       24.576 -33.003   8.318  0.00  0.00    +0.057 C 
ENDROOT
BRANCH   1  23
ATOM     23  C   LIG    1       27.117 -32.999   8.123  0.00  0.00    +0.174 C 
ATOM     24  O   LIG    1       27.498 -33.623   9.118  0.00  0.00    -0.293 OA
ATOM     25  C   LIG    1       27.950 -33.041   6.855  0.00  0.00    +0.090 C 
ENDBRANCH   1  23
BRANCH   1  26
ATOM     26  O   LIG    1       25.740 -31.281   6.965  0.00  0.00    -0.450 OA
BRANCH  26  28
ATOM     27  C   LIG    1       25.115 -32.438   4.999  0.00  0.00    +0.136 C 
ATOM     28  C   LIG    1       24.710 -31.498   6.097  0.00  0.00    +0.305 C 
ATOM     29  O   LIG    1       23.586 -31.052   6.220  0.00  0.00    -0.251 OA
ENDBRANCH  26  28
ENDBRANCH   1  26
TORSDOF 3
ENDMDL
MODEL 7
REMARK VINA RESULT:      -4.7      1.965      3.755
REMARK  Name = *****
REMARK                            x       y       z     vdW  Elec       q    Type
REMARK                         _______ _______ _______ _____ _____    ______ ____
ROOT
ATOM      1  C   LIG    1       23.776 -30.073  13.546  0.00  0.00    +0.176 C 
ATOM      2  C   LIG    1       23.385 -30.759  12.174  0.00  0.00    +0.018 C 
ATOM      3  C   LIG    1       22.090 -31.585  12.285  0.00  0.00    +0.016 C 
ATOM      4  C   LIG    1       24.608 -31.649  11.858  0.00  0.00    +0.007 C 
ATOM      5  C   LIG    1       24.655 -32.225  10.413  0.00  0.00    +0.021 C 
ATOM      6  C   LIG    1       24.174 -31.318   9.243  0.00  0.00    +0.007 C 
ATOM      7  C   LIG    1       23.105 -30.288   9.647  0.00  0.00    +0.006 C 
ATOM      8  C   LIG    1       25.306 -30.801   8.267  0.00  0.00    +0.001 C 
ATOM      9  C   LIG    1       26.280 -29.789   8.917  0.00  0.00    +0.017 C 
ATOM     10  C   LIG    1       26.146 -32.022   7.831  0.00  0.00    -0.020 C 
ATOM     11  C   LIG    1       26.436 -32.303   6.543  0.00  0.00    +0.052 C 
ATOM     12  C   LIG    1       25.961 -31.504   5.396  0.00  0.00    +0.160 C 
ATOM     13  O   LIG    1       26.284 -31.775   4.246  0.00  0.00    -0.292 OA
ATOM     14  C   LIG    1       25.044 -30.384   5.679  0.00  0.00    +0.064 C 
ATOM     15  C   LIG    1       23.645 -30.678   6.165  0.00  0.00    +0.016 C 
ATOM     16  C   LIG    1       26.590 -32.885   8.926  0.00  0.00    +0.041 C 
ATOM     17 CL   LIG    1       28.041 -33.825   8.742  0.00  0.00    -0.084 Cl
ATOM     18  C   LIG    1       24.656 -30.047   7.094  0.00  0.00    +0.011 C 
ATOM     19  C   LIG    1       25.938 -32.954  10.097  0.00  0.00    -0.003 C 
ATOM     20  C   LIG    1       25.811 -30.832  12.354  0.00  0.00    +0.009 C 
ATOM     21  C   LIG    1       23.227 -29.704  11.048  0.00  0.00    +0.011 C 
ATOM     22  C   LIG    1       25.272 -29.760  13.314  0.00  0.00    +0.057 C 
ENDROOT
BRANCH   1  23
ATOM     23  C   LIG    1       23.613 -31.026  14.778  0.00  0.00    +0.174 C 
ATOM     24  O   LIG    1       24.519 -31.781  15.143  0.00  0.00    -0.293 OA
ATOM     25  C   LIG    1       22.279 -31.060  15.500  0.00  0.00    +0.090 C 
ENDBRANCH   1  23
BRANCH   1  26
ATOM     26  O   LIG    1       22.991 -28.868  13.706  0.00  0.00    -0.450 OA
BRANCH  26  28
ATOM     27  C   LIG    1       23.397 -26.539  13.619  0.00  0.00    +0.136 C 
ATOM     28  C   LIG    1       23.545 -27.822  14.385  0.00  0.00    +0.305 C 
ATOM     29  O   LIG    1       24.035 -27.889  15.495  0.00  0.00    -0.251 OA
ENDBRANCH  26  28
ENDBRANCH   1  26
TORSDOF 3
ENDMDL
MODEL 8
REMARK VINA RESULT:      -4.7      2.449      7.242
REMARK  Name = *****
REMARK                            x       y       z     vdW  Elec       q    Type
REMARK                         _______ _______ _______ _____ _____    ______ ____
ROOT
ATOM      1  C   LIG    1       25.708 -32.703   7.273  0.00  0.00    +0.176 C 
ATOM      2  C   LIG    1       24.836 -31.491   7.795  0.00  0.00    +0.018 C 
ATOM      3  C   LIG    1       24.182 -30.706   6.643  0.00  0.00    +0.016 C 
ATOM      4  C   LIG    1       25.854 -30.626   8.572  0.00  0.00    +0.007 C 
ATOM      5  C   LIG    1       25.236 -29.509   9.462  0.00  0.00    +0.021 C 
ATOM      6  C   LIG    1       23.914 -29.820  10.222  0.00  0.00    +0.007 C 
ATOM      7  C   LIG    1       23.019 -30.858   9.522  0.00  0.00    +0.006 C 
ATOM      8  C   LIG    1       24.042 -29.958  11.792  0.00  0.00    +0.001 C 
ATOM      9  C   LIG    1       24.835 -31.205  12.250  0.00  0.00    +0.017 C 
ATOM     10  C   LIG    1       24.807 -28.719  12.313  0.00  0.00    -0.020 C 
ATOM     11  C   LIG    1       24.370 -27.950  13.332  0.00  0.00    +0.052 C 
ATOM     12  C   LIG    1       23.099 -28.174  14.050  0.00  0.00    +0.160 C 
ATOM     13  O   LIG    1       22.763 -27.473  14.997  0.00  0.00    -0.292 OA
ATOM     14  C   LIG    1       22.221 -29.253  13.560  0.00  0.00    +0.064 C 
ATOM     15  C   LIG    1       21.538 -29.100  12.221  0.00  0.00    +0.016 C 
ATOM     16  C   LIG    1       26.044 -28.414  11.593  0.00  0.00    +0.041 C 
ATOM     17 CL   LIG    1       27.326 -27.573  12.412  0.00  0.00    -0.084 Cl
ATOM     18  C   LIG    1       22.639 -30.118  12.402  0.00  0.00    +0.011 C 
ATOM     19  C   LIG    1       26.250 -28.795  10.322  0.00  0.00    -0.003 C 
ATOM     20  C   LIG    1       26.792 -31.647   9.234  0.00  0.00    +0.009 C 
ATOM     21  C   LIG    1       23.737 -31.975   8.777  0.00  0.00    +0.011 C 
ATOM     22  C   LIG    1       26.604 -32.984   8.501  0.00  0.00    +0.057 C 
ENDROOT
BRANCH   1  23
ATOM     23  C   LIG    1       26.594 -32.336   6.036  0.00  0.00    +0.174 C 
ATOM     24  O   LIG    1       26.304 -31.404   5.280  0.00  0.00    -0.293 OA
ATOM     25  C   LIG    1       27.809 -33.192   5.729  0.00  0.00    +0.090 C 
ENDBRANCH   1  23
BRANCH   1  26
ATOM     26  O   LIG    1       24.832 -33.817   6.980  0.00  0.00    -0.450 OA
BRANCH  26  28
ATOM     27  C   LIG    1       22.687 -33.825   5.980  0.00  0.00    +0.136 C 
ATOM     28  C   LIG    1       24.176 -33.825   5.784  0.00  0.00    +0.305 C 
ATOM     29  O   LIG    1       24.709 -33.769   4.693  0.00  0.00    -0.251 OA
ENDBRANCH  26  28
ENDBRANCH   1  26
TORSDOF 3
ENDMDL
MODEL 9
REMARK VINA RESULT:      -4.5      4.786      7.169
REMARK  Name = *****
REMARK                            x       y       z     vdW  Elec       q    Type
REMARK                         _______ _______ _______ _____ _____    ______ ____
ROOT
ATOM      1  C   LIG    1       21.112 -31.647  13.399  0.00  0.00    +0.176 C 
ATOM      2  C   LIG    1       21.550 -30.225  12.859  0.00  0.00    +0.018 C 
ATOM      3  C   LIG    1       20.567 -29.673  11.810  0.00  0.00    +0.016 C 
ATOM      4  C   LIG    1       22.947 -30.487  12.254  0.00  0.00    +0.007 C 
ATOM      5  C   LIG    1       23.772 -29.213  11.909  0.00  0.00    +0.021 C 
ATOM      6  C   LIG    1       23.686 -27.995  12.875  0.00  0.00    +0.007 C 
ATOM      7  C   LIG    1       22.349 -27.890  13.631  0.00  0.00    +0.006 C 
ATOM      8  C   LIG    1       24.988 -27.696  13.719  0.00  0.00    +0.001 C 
ATOM      9  C   LIG    1       25.308 -28.773  14.783  0.00  0.00    +0.017 C 
ATOM     10  C   LIG    1       26.185 -27.656  12.741  0.00  0.00    -0.020 C 
ATOM     11  C   LIG    1       27.081 -26.649  12.704  0.00  0.00    +0.052 C 
ATOM     12  C   LIG    1       27.013 -25.450  13.562  0.00  0.00    +0.160 C 
ATOM     13  O   LIG    1       27.873 -24.579  13.521  0.00  0.00    -0.292 OA
ATOM     14  C   LIG    1       25.843 -25.314  14.451  0.00  0.00    +0.064 C 
ATOM     15  C   LIG    1       24.481 -25.066  13.847  0.00  0.00    +0.016 C 
ATOM     16  C   LIG    1       26.264 -28.793  11.822  0.00  0.00    +0.041 C 
ATOM     17 CL   LIG    1       27.809 -29.277  11.189  0.00  0.00    -0.084 Cl
ATOM     18  C   LIG    1       24.792 -26.389  14.506  0.00  0.00    +0.011 C 
ATOM     19  C   LIG    1       25.185 -29.511  11.472  0.00  0.00    -0.003 C 
ATOM     20  C   LIG    1       23.578 -31.529  13.191  0.00  0.00    +0.009 C 
ATOM     21  C   LIG    1       21.689 -29.205  14.020  0.00  0.00    +0.011 C 
ATOM     22  C   LIG    1       22.438 -32.165  14.001  0.00  0.00    +0.057 C 
ENDROOT
BRANCH   1  23
ATOM     23  C   LIG    1       20.626 -32.611  12.265  0.00  0.00    +0.174 C 
ATOM     24  O   LIG    1       19.554 -32.437  11.677  0.00  0.00    -0.293 OA
ATOM     25  C   LIG    1       21.472 -33.824  11.928  0.00  0.00    +0.090 C 
ENDBRANCH   1  23
BRANCH   1  26
ATOM     26  O   LIG    1       20.093 -31.469  14.411  0.00  0.00    -0.450 OA
BRANCH  26  28
ATOM     27  C   LIG    1       18.103 -32.596  15.016  0.00  0.00    +0.136 C 
ATOM     28  C   LIG    1       19.605 -32.577  15.038  0.00  0.00    +0.305 C 
ATOM     29  O   LIG    1       20.281 -33.477  15.497  0.00  0.00    -0.251 OA
ENDBRANCH  26  28
ENDBRANCH   1  26
TORSDOF 3
ENDMDL
