MODEL 1
REMARK VINA RESULT:       0.2      0.000      0.000
REMARK  Name = *****
REMARK                            x       y       z     vdW  Elec       q    Type
REMARK                         _______ _______ _______ _____ _____    ______ ____
ROOT
ATOM      1  C   LIG    1       24.836 -18.682   3.908  0.00  0.00    +0.120 C 
ATOM      2  C   LIG    1       24.860 -17.179   3.693  0.00  0.00    -0.006 A 
ATOM      3  C   LIG    1       23.834 -16.586   4.419  0.00  0.00    -0.014 A 
ATOM      4  C   LIG    1       23.619 -15.210   4.417  0.00  0.00    +0.025 A 
ATOM      5  C   LIG    1       24.468 -14.406   3.650  0.00  0.00    +0.052 A 
ATOM      6  C   LIG    1       25.510 -14.994   2.913  0.00  0.00    +0.019 A 
ATOM      7  C   LIG    1       23.093 -17.628   5.167  0.00  0.00    +0.197 C 
ATOM      8  C   LIG    1       25.707 -16.387   2.929  0.00  0.00    +0.008 A 
ATOM      9  O   LIG    1       23.575 -18.876   4.627  0.00  0.00    -0.359 OA
ENDROOT
BRANCH   1  10
ATOM     10  C   LIG    1       26.014 -19.174   4.771  0.00  0.00    -0.011 A 
ATOM     11  C   LIG    1       27.325 -18.704   4.548  0.00  0.00    +0.009 A 
ATOM     12  C   LIG    1       28.400 -19.160   5.320  0.00  0.00    +0.039 A 
ATOM     13  C   LIG    1       28.178 -20.089   6.326  0.00  0.00    +0.123 A 
ATOM     14  F   LIG    1       29.207 -20.529   7.062  0.00  0.00    -0.205 F 
ATOM     15  C   LIG    1       26.903 -20.573   6.574  0.00  0.00    +0.039 A 
ATOM     16  C   LIG    1       25.829 -20.120   5.801  0.00  0.00    +0.009 A 
ENDBRANCH   1  10
BRANCH   5  17
ATOM     17  C   LIG    1       24.277 -12.979   3.620  0.00  0.00    +0.099 C 
ATOM     18  N   LIG    1       24.117 -11.833   3.593  0.00  0.00    -0.191 NA
ENDBRANCH   5  17
BRANCH   1  19
ATOM     19  C   LIG    1       24.705 -19.474   2.569  0.00  0.00    +0.046 C 
BRANCH  19  20
ATOM     20  C   LIG    1       23.734 -20.672   2.630  0.00  0.00    +0.019 C 
BRANCH  20  21
ATOM     21  C   LIG    1       23.698 -21.398   3.994  0.00  0.00    +0.084 C 
BRANCH  21  23
ATOM     22  C   LIG    1       22.846 -21.571   6.249  0.00  0.00    +0.104 C 
ATOM     23  N   LIG    1       22.629 -20.979   4.923  0.00  0.00    -0.308 NA
ATOM     24  C   LIG    1       21.300 -21.337   4.424  0.00  0.00    +0.104 C 
ENDBRANCH  21  23
ENDBRANCH  20  21
ENDBRANCH  19  20
ENDBRANCH   1  19
TORSDOF 6
ENDMDL
MODEL 2
REMARK VINA RESULT:       2.7      3.104      6.529
REMARK  Name = *****
REMARK                            x       y       z     vdW  Elec       q    Type
REMARK                         _______ _______ _______ _____ _____    ______ ____
ROOT
ATOM      1  C   LIG    1       25.910 -14.636   2.919  0.00  0.00    +0.120 C 
ATOM      2  C   LIG    1       24.920 -15.587   3.568  0.00  0.00    -0.006 A 
ATOM      3  C   LIG    1       25.283 -16.900   3.295  0.00  0.00    -0.014 A 
ATOM      4  C   LIG    1       24.557 -17.988   3.771  0.00  0.00    +0.025 A 
ATOM      5  C   LIG    1       23.421 -17.740   4.548  0.00  0.00    +0.052 A 
ATOM      6  C   LIG    1       23.045 -16.416   4.833  0.00  0.00    +0.019 A 
ATOM      7  C   LIG    1       26.524 -16.910   2.486  0.00  0.00    +0.197 C 
ATOM      8  C   LIG    1       23.793 -15.333   4.339  0.00  0.00    +0.008 A 
ATOM      9  O   LIG    1       26.707 -15.537   2.083  0.00  0.00    -0.359 OA
ENDROOT
BRANCH   1  10
ATOM     10  C   LIG    1       26.818 -13.935   3.948  0.00  0.00    -0.011 A 
ATOM     11  C   LIG    1       27.895 -13.124   3.535  0.00  0.00    +0.009 A 
ATOM     12  C   LIG    1       28.732 -12.498   4.467  0.00  0.00    +0.039 A 
ATOM     13  C   LIG    1       28.499 -12.672   5.824  0.00  0.00    +0.123 A 
ATOM     14  F   LIG    1       29.302 -12.077   6.716  0.00  0.00    -0.205 F 
ATOM     15  C   LIG    1       27.450 -13.461   6.267  0.00  0.00    +0.039 A 
ATOM     16  C   LIG    1       26.616 -14.090   5.336  0.00  0.00    +0.009 A 
ENDBRANCH   1  10
BRANCH   5  17
ATOM     17  C   LIG    1       22.642 -18.839   5.057  0.00  0.00    +0.099 C 
ATOM     18  N   LIG    1       22.021 -19.725   5.469  0.00  0.00    -0.191 NA
ENDBRANCH   5  17
BRANCH   1  19
ATOM     19  C   LIG    1       25.221 -13.629   1.947  0.00  0.00    +0.046 C 
BRANCH  19  20
ATOM     20  C   LIG    1       24.890 -12.259   2.578  0.00  0.00    +0.019 C 
BRANCH  20  21
ATOM     21  C   LIG    1       23.629 -12.255   3.473  0.00  0.00    +0.084 C 
BRANCH  21  23
ATOM     22  C   LIG    1       24.800 -11.936   5.562  0.00  0.00    +0.104 C 
ATOM     23  N   LIG    1       23.712 -11.447   4.706  0.00  0.00    -0.308 NA
ATOM     24  C   LIG    1       22.449 -11.449   5.447  0.00  0.00    +0.104 C 
ENDBRANCH  21  23
ENDBRANCH  20  21
ENDBRANCH  19  20
ENDBRANCH   1  19
TORSDOF 6
ENDMDL
