MODEL 1
REMARK VINA RESULT:      -9.1      0.000      0.000
REMARK  Name = *****
REMARK                            x       y       z     vdW  Elec       q    Type
REMARK                         _______ _______ _______ _____ _____    ______ ____
ROOT
ATOM      1  C   LIG    1       27.914 -19.679   5.421  0.00  0.00    +0.138 C 
ATOM      2  N   LIG    1       27.017 -20.435   6.285  0.00  0.00    -0.270 N 
ATOM      3  C   LIG    1       27.494 -20.750   7.563  0.00  0.00    +0.271 C 
ATOM      4  O   LIG    1       28.664 -20.526   7.897  0.00  0.00    -0.270 OA
ATOM      5  C   LIG    1       26.489 -21.352   8.588  0.00  0.00    +0.320 C 
ATOM      6  N   LIG    1       26.174 -22.716   8.174  0.00  0.00    -0.243 NA
ATOM      7  C   LIG    1       25.496 -22.889   7.090  0.00  0.00    +0.078 C 
ATOM      8  C   LIG    1       24.916 -21.781   6.273  0.00  0.00    +0.023 A 
ATOM      9  C   LIG    1       23.572 -21.921   5.878  0.00  0.00    +0.032 A 
ATOM     10  C   LIG    1       22.991 -20.984   5.033  0.00  0.00    +0.042 A 
ATOM     11 CL   LIG    1       21.354 -21.171   4.542  0.00  0.00    -0.084 Cl
ATOM     12  C   LIG    1       23.733 -19.905   4.573  0.00  0.00    +0.022 A 
ATOM     13  C   LIG    1       25.062 -19.751   4.983  0.00  0.00    +0.025 A 
ATOM     14  C   LIG    1       25.673 -20.667   5.861  0.00  0.00    +0.045 A 
ENDROOT
BRANCH   7  15
ATOM     15  C   LIG    1       25.268 -24.302   6.645  0.00  0.00    +0.001 A 
ATOM     16  C   LIG    1       23.976 -24.791   6.415  0.00  0.00    +0.010 A 
ATOM     17  C   LIG    1       23.793 -26.112   5.999  0.00  0.00    +0.001 A 
ATOM     18  C   LIG    1       24.896 -26.942   5.801  0.00  0.00    +0.000 A 
ATOM     19  C   LIG    1       26.184 -26.453   6.010  0.00  0.00    +0.001 A 
ATOM     20  C   LIG    1       26.372 -25.134   6.426  0.00  0.00    +0.010 A 
ENDBRANCH   7  15
BRANCH   5  21
ATOM     21  O   LIG    1       25.364 -20.553   8.893  0.00  0.00    -0.364 OA
ATOM     22  H   LIG    1       25.750 -19.785   9.347  0.00  0.00    +0.212 HD
ENDBRANCH   5  21
TORSDOF 2
ENDMDL
MODEL 2
REMARK VINA RESULT:      -7.9      2.630      5.056
REMARK  Name = *****
REMARK                            x       y       z     vdW  Elec       q    Type
REMARK                         _______ _______ _______ _____ _____    ______ ____
ROOT
ATOM      1  C   LIG    1       23.471 -21.337   3.491  0.00  0.00    +0.138 C 
ATOM      2  N   LIG    1       23.908 -21.421   4.878  0.00  0.00    -0.270 N 
ATOM      3  C   LIG    1       23.445 -20.421   5.742  0.00  0.00    +0.271 C 
ATOM      4  O   LIG    1       22.817 -19.439   5.327  0.00  0.00    -0.270 OA
ATOM      5  C   LIG    1       23.699 -20.602   7.267  0.00  0.00    +0.320 C 
ATOM      6  N   LIG    1       25.124 -20.411   7.520  0.00  0.00    -0.243 NA
ATOM      7  C   LIG    1       25.953 -21.289   7.064  0.00  0.00    +0.078 C 
ATOM      8  C   LIG    1       25.549 -22.553   6.378  0.00  0.00    +0.023 A 
ATOM      9  C   LIG    1       26.176 -23.737   6.809  0.00  0.00    +0.032 A 
ATOM     10  C   LIG    1       25.930 -24.937   6.153  0.00  0.00    +0.042 A 
ATOM     11 CL   LIG    1       26.713 -26.376   6.675  0.00  0.00    -0.084 Cl
ATOM     12  C   LIG    1       25.064 -24.974   5.069  0.00  0.00    +0.022 A 
ATOM     13  C   LIG    1       24.421 -23.803   4.654  0.00  0.00    +0.025 A 
ATOM     14  C   LIG    1       24.626 -22.575   5.313  0.00  0.00    +0.045 A 
ENDROOT
BRANCH   7  15
ATOM     15  C   LIG    1       27.413 -21.018   7.262  0.00  0.00    +0.001 A 
ATOM     16  C   LIG    1       28.135 -21.639   8.289  0.00  0.00    +0.010 A 
ATOM     17  C   LIG    1       29.496 -21.368   8.450  0.00  0.00    +0.001 A 
ATOM     18  C   LIG    1       30.141 -20.489   7.581  0.00  0.00    +0.000 A 
ATOM     19  C   LIG    1       29.431 -19.883   6.545  0.00  0.00    +0.001 A 
ATOM     20  C   LIG    1       28.071 -20.150   6.382  0.00  0.00    +0.010 A 
ENDBRANCH   7  15
BRANCH   5  21
ATOM     21  O   LIG    1       23.146 -21.762   7.853  0.00  0.00    -0.364 OA
ATOM     22  H   LIG    1       22.725 -21.427   8.662  0.00  0.00    +0.212 HD
ENDBRANCH   5  21
TORSDOF 2
ENDMDL
MODEL 3
REMARK VINA RESULT:      -7.4      6.445      9.330
REMARK  Name = *****
REMARK                            x       y       z     vdW  Elec       q    Type
REMARK                         _______ _______ _______ _____ _____    ______ ____
ROOT
ATOM      1  C   LIG    1       27.241 -33.073   6.732  0.00  0.00    +0.138 C 
ATOM      2  N   LIG    1       26.119 -32.171   6.952  0.00  0.00    -0.270 N 
ATOM      3  C   LIG    1       24.928 -32.476   6.282  0.00  0.00    +0.271 C 
ATOM      4  O   LIG    1       24.866 -33.379   5.439  0.00  0.00    -0.270 OA
ATOM      5  C   LIG    1       23.651 -31.674   6.666  0.00  0.00    +0.320 C 
ATOM      6  N   LIG    1       23.795 -30.312   6.161  0.00  0.00    -0.243 NA
ATOM      7  C   LIG    1       24.689 -29.549   6.695  0.00  0.00    +0.078 C 
ATOM      8  C   LIG    1       25.526 -29.928   7.873  0.00  0.00    +0.023 A 
ATOM      9  C   LIG    1       25.625 -28.983   8.911  0.00  0.00    +0.032 A 
ATOM     10  C   LIG    1       26.465 -29.219   9.993  0.00  0.00    +0.042 A 
ATOM     11 CL   LIG    1       26.592 -28.052  11.249  0.00  0.00    -0.084 Cl
ATOM     12  C   LIG    1       27.211 -30.387  10.055  0.00  0.00    +0.022 A 
ATOM     13  C   LIG    1       27.096 -31.339   9.035  0.00  0.00    +0.025 A 
ATOM     14  C   LIG    1       26.234 -31.145   7.939  0.00  0.00    +0.045 A 
ENDROOT
BRANCH   7  15
ATOM     15  C   LIG    1       24.873 -28.189   6.094  0.00  0.00    +0.001 A 
ATOM     16  C   LIG    1       24.113 -27.095   6.525  0.00  0.00    +0.010 A 
ATOM     17  C   LIG    1       24.307 -25.838   5.948  0.00  0.00    +0.001 A 
ATOM     18  C   LIG    1       25.267 -25.667   4.951  0.00  0.00    +0.000 A 
ATOM     19  C   LIG    1       26.040 -26.749   4.532  0.00  0.00    +0.001 A 
ATOM     20  C   LIG    1       25.848 -28.008   5.105  0.00  0.00    +0.010 A 
ENDBRANCH   7  15
BRANCH   5  21
ATOM     21  O   LIG    1       23.248 -31.763   8.018  0.00  0.00    -0.364 OA
ATOM     22  H   LIG    1       22.717 -32.576   8.042  0.00  0.00    +0.212 HD
ENDBRANCH   5  21
TORSDOF 2
ENDMDL
MODEL 4
REMARK VINA RESULT:      -6.8      2.958      4.157
REMARK  Name = *****
REMARK                            x       y       z     vdW  Elec       q    Type
REMARK                         _______ _______ _______ _____ _____    ______ ____
ROOT
ATOM      1  C   LIG    1       22.899 -20.147   7.652  0.00  0.00    +0.138 C 
ATOM      2  N   LIG    1       23.769 -20.795   6.681  0.00  0.00    -0.270 N 
ATOM      3  C   LIG    1       23.268 -20.929   5.379  0.00  0.00    +0.271 C 
ATOM      4  O   LIG    1       22.098 -20.643   5.099  0.00  0.00    -0.270 OA
ATOM      5  C   LIG    1       24.247 -21.404   4.267  0.00  0.00    +0.320 C 
ATOM      6  N   LIG    1       24.544 -22.815   4.490  0.00  0.00    -0.243 NA
ATOM      7  C   LIG    1       25.234 -23.143   5.530  0.00  0.00    +0.078 C 
ATOM      8  C   LIG    1       25.846 -22.164   6.478  0.00  0.00    +0.023 A 
ATOM      9  C   LIG    1       27.192 -22.377   6.827  0.00  0.00    +0.032 A 
ATOM     10  C   LIG    1       27.802 -21.571   7.781  0.00  0.00    +0.042 A 
ATOM     11 CL   LIG    1       29.443 -21.848   8.215  0.00  0.00    -0.084 Cl
ATOM     12  C   LIG    1       27.087 -20.552   8.393  0.00  0.00    +0.022 A 
ATOM     13  C   LIG    1       25.755 -20.323   8.029  0.00  0.00    +0.025 A 
ATOM     14  C   LIG    1       25.115 -21.103   7.047  0.00  0.00    +0.045 A 
ENDROOT
BRANCH   7  15
ATOM     15  C   LIG    1       25.443 -24.606   5.778  0.00  0.00    +0.001 A 
ATOM     16  C   LIG    1       25.765 -25.088   7.053  0.00  0.00    +0.010 A 
ATOM     17  C   LIG    1       25.954 -26.458   7.255  0.00  0.00    +0.001 A 
ATOM     18  C   LIG    1       25.809 -27.348   6.192  0.00  0.00    +0.000 A 
ATOM     19  C   LIG    1       25.469 -26.875   4.925  0.00  0.00    +0.001 A 
ATOM     20  C   LIG    1       25.281 -25.507   4.718  0.00  0.00    +0.010 A 
ENDBRANCH   7  15
BRANCH   5  21
ATOM     21  O   LIG    1       25.382 -20.589   4.053  0.00  0.00    -0.364 OA
ATOM     22  H   LIG    1       25.969 -20.822   4.792  0.00  0.00    +0.212 HD
ENDBRANCH   5  21
TORSDOF 2
ENDMDL
MODEL 5
REMARK VINA RESULT:      -6.8      6.537      9.578
REMARK  Name = *****
REMARK                            x       y       z     vdW  Elec       q    Type
REMARK                         _______ _______ _______ _____ _____    ______ ____
ROOT
ATOM      1  C   LIG    1       27.695 -32.907   7.791  0.00  0.00    +0.138 C 
ATOM      2  N   LIG    1       26.512 -32.228   7.280  0.00  0.00    -0.270 N 
ATOM      3  C   LIG    1       26.235 -32.390   5.917  0.00  0.00    +0.271 C 
ATOM      4  O   LIG    1       27.025 -32.959   5.154  0.00  0.00    -0.270 OA
ATOM      5  C   LIG    1       24.866 -31.875   5.386  0.00  0.00    +0.320 C 
ATOM      6  N   LIG    1       24.892 -30.416   5.390  0.00  0.00    -0.243 NA
ATOM      7  C   LIG    1       24.919 -29.804   6.526  0.00  0.00    +0.078 C 
ATOM      8  C   LIG    1       24.821 -30.484   7.852  0.00  0.00    +0.023 A 
ATOM      9  C   LIG    1       23.914 -29.938   8.779  0.00  0.00    +0.032 A 
ATOM     10  C   LIG    1       23.838 -30.452  10.069  0.00  0.00    +0.042 A 
ATOM     11 CL   LIG    1       22.739 -29.768  11.201  0.00  0.00    -0.084 Cl
ATOM     12  C   LIG    1       24.657 -31.506  10.449  0.00  0.00    +0.022 A 
ATOM     13  C   LIG    1       25.542 -32.066   9.521  0.00  0.00    +0.025 A 
ATOM     14  C   LIG    1       25.625 -31.589   8.199  0.00  0.00    +0.045 A 
ENDROOT
BRANCH   7  15
ATOM     15  C   LIG    1       25.037 -28.311   6.496  0.00  0.00    +0.001 A 
ATOM     16  C   LIG    1       25.994 -27.641   7.269  0.00  0.00    +0.010 A 
ATOM     17  C   LIG    1       26.082 -26.247   7.220  0.00  0.00    +0.001 A 
ATOM     18  C   LIG    1       25.227 -25.522   6.391  0.00  0.00    +0.000 A 
ATOM     19  C   LIG    1       24.286 -26.185   5.605  0.00  0.00    +0.001 A 
ATOM     20  C   LIG    1       24.194 -27.578   5.652  0.00  0.00    +0.010 A 
ENDBRANCH   7  15
BRANCH   5  21
ATOM     21  O   LIG    1       23.717 -32.446   5.979  0.00  0.00    -0.364 OA
ATOM     22  H   LIG    1       23.450 -33.129   5.341  0.00  0.00    +0.212 HD
ENDBRANCH   5  21
TORSDOF 2
ENDMDL
MODEL 6
REMARK VINA RESULT:      -6.7      5.830      8.951
REMARK  Name = *****
REMARK                            x       y       z     vdW  Elec       q    Type
REMARK                         _______ _______ _______ _____ _____    ______ ____
ROOT
ATOM      1  C   LIG    1       22.559 -31.375   9.887  0.00  0.00    +0.138 C 
ATOM      2  N   LIG    1       23.825 -30.832   9.412  0.00  0.00    -0.270 N 
ATOM      3  C   LIG    1       24.636 -30.204  10.366  0.00  0.00    +0.271 C 
ATOM      4  O   LIG    1       24.242 -29.994  11.520  0.00  0.00    -0.270 OA
ATOM      5  C   LIG    1       26.084 -29.818   9.949  0.00  0.00    +0.320 C 
ATOM      6  N   LIG    1       26.009 -28.699   9.015  0.00  0.00    -0.243 NA
ATOM      7  C   LIG    1       25.504 -28.905   7.846  0.00  0.00    +0.078 C 
ATOM      8  C   LIG    1       25.079 -30.244   7.337  0.00  0.00    +0.023 A 
ATOM      9  C   LIG    1       25.513 -30.598   6.046  0.00  0.00    +0.032 A 
ATOM     10  C   LIG    1       25.077 -31.781   5.461  0.00  0.00    +0.042 A 
ATOM     11 CL   LIG    1       25.599 -32.198   3.877  0.00  0.00    -0.084 Cl
ATOM     12  C   LIG    1       24.210 -32.619   6.148  0.00  0.00    +0.022 A 
ATOM     13  C   LIG    1       23.796 -32.281   7.441  0.00  0.00    +0.025 A 
ATOM     14  C   LIG    1       24.241 -31.104   8.074  0.00  0.00    +0.045 A 
ENDROOT
BRANCH   7  15
ATOM     15  C   LIG    1       25.358 -27.717   6.944  0.00  0.00    +0.001 A 
ATOM     16  C   LIG    1       24.292 -27.617   6.041  0.00  0.00    +0.010 A 
ATOM     17  C   LIG    1       24.181 -26.497   5.213  0.00  0.00    +0.001 A 
ATOM     18  C   LIG    1       25.123 -25.472   5.294  0.00  0.00    +0.000 A 
ATOM     19  C   LIG    1       26.174 -25.559   6.205  0.00  0.00    +0.001 A 
ATOM     20  C   LIG    1       26.290 -26.676   7.034  0.00  0.00    +0.010 A 
ENDBRANCH   7  15
BRANCH   5  21
ATOM     21  O   LIG    1       26.912 -30.883   9.529  0.00  0.00    -0.364 OA
ATOM     22  H   LIG    1       26.845 -31.522  10.258  0.00  0.00    +0.212 HD
ENDBRANCH   5  21
TORSDOF 2
ENDMDL
MODEL 7
REMARK VINA RESULT:      -6.6      2.574      4.925
REMARK  Name = *****
REMARK                            x       y       z     vdW  Elec       q    Type
REMARK                         _______ _______ _______ _____ _____    ______ ____
ROOT
ATOM      1  C   LIG    1       21.822 -22.955   7.048  0.00  0.00    +0.138 C 
ATOM      2  N   LIG    1       23.134 -22.947   6.416  0.00  0.00    -0.270 N 
ATOM      3  C   LIG    1       23.826 -24.164   6.390  0.00  0.00    +0.271 C 
ATOM      4  O   LIG    1       23.414 -25.162   6.994  0.00  0.00    -0.270 OA
ATOM      5  C   LIG    1       25.119 -24.249   5.528  0.00  0.00    +0.320 C 
ATOM      6  N   LIG    1       26.161 -23.466   6.186  0.00  0.00    -0.243 NA
ATOM      7  C   LIG    1       26.027 -22.184   6.237  0.00  0.00    +0.078 C 
ATOM      8  C   LIG    1       24.924 -21.424   5.575  0.00  0.00    +0.023 A 
ATOM      9  C   LIG    1       25.294 -20.293   4.824  0.00  0.00    +0.032 A 
ATOM     10  C   LIG    1       24.319 -19.477   4.263  0.00  0.00    +0.042 A 
ATOM     11 CL   LIG    1       24.780 -18.087   3.361  0.00  0.00    -0.084 Cl
ATOM     12  C   LIG    1       22.976 -19.773   4.441  0.00  0.00    +0.022 A 
ATOM     13  C   LIG    1       22.605 -20.910   5.167  0.00  0.00    +0.025 A 
ATOM     14  C   LIG    1       23.567 -21.774   5.725  0.00  0.00    +0.045 A 
ENDROOT
BRANCH   7  15
ATOM     15  C   LIG    1       27.067 -21.418   6.997  0.00  0.00    +0.001 A 
ATOM     16  C   LIG    1       28.418 -21.469   6.633  0.00  0.00    +0.010 A 
ATOM     17  C   LIG    1       29.366 -20.743   7.360  0.00  0.00    +0.001 A 
ATOM     18  C   LIG    1       28.966 -19.958   8.440  0.00  0.00    +0.000 A 
ATOM     19  C   LIG    1       27.620 -19.889   8.794  0.00  0.00    +0.001 A 
ATOM     20  C   LIG    1       26.670 -20.613   8.072  0.00  0.00    +0.010 A 
ENDBRANCH   7  15
BRANCH   5  21
ATOM     21  O   LIG    1       24.962 -23.981   4.149  0.00  0.00    -0.364 OA
ATOM     22  H   LIG    1       24.722 -24.847   3.778  0.00  0.00    +0.212 HD
ENDBRANCH   5  21
TORSDOF 2
ENDMDL
MODEL 8
REMARK VINA RESULT:      -6.5      7.215      9.401
REMARK  Name = *****
REMARK                            x       y       z     vdW  Elec       q    Type
REMARK                         _______ _______ _______ _____ _____    ______ ____
ROOT
ATOM      1  C   LIG    1       23.141 -32.475   7.910  0.00  0.00    +0.138 C 
ATOM      2  N   LIG    1       24.399 -31.851   8.300  0.00  0.00    -0.270 N 
ATOM      3  C   LIG    1       25.332 -32.672   8.947  0.00  0.00    +0.271 C 
ATOM      4  O   LIG    1       25.053 -33.825   9.299  0.00  0.00    -0.270 OA
ATOM      5  C   LIG    1       26.765 -32.108   9.171  0.00  0.00    +0.320 C 
ATOM      6  N   LIG    1       26.695 -31.073  10.198  0.00  0.00    -0.243 NA
ATOM      7  C   LIG    1       26.078 -29.973   9.923  0.00  0.00    +0.078 C 
ATOM      8  C   LIG    1       25.514 -29.637   8.581  0.00  0.00    +0.023 A 
ATOM      9  C   LIG    1       25.811 -28.359   8.070  0.00  0.00    +0.032 A 
ATOM     10  C   LIG    1       25.240 -27.934   6.876  0.00  0.00    +0.042 A 
ATOM     11 CL   LIG    1       25.595 -26.366   6.268  0.00  0.00    -0.084 Cl
ATOM     12  C   LIG    1       24.375 -28.767   6.182  0.00  0.00    +0.022 A 
ATOM     13  C   LIG    1       24.097 -30.047   6.675  0.00  0.00    +0.025 A 
ATOM     14  C   LIG    1       24.680 -30.520   7.867  0.00  0.00    +0.045 A 
ENDROOT
BRANCH   7  15
ATOM     15  C   LIG    1       25.946 -28.969  11.026  0.00  0.00    +0.001 A 
ATOM     16  C   LIG    1       26.940 -28.010  11.260  0.00  0.00    +0.010 A 
ATOM     17  C   LIG    1       26.789 -27.085  12.296  0.00  0.00    +0.001 A 
ATOM     18  C   LIG    1       25.644 -27.106  13.091  0.00  0.00    +0.000 A 
ATOM     19  C   LIG    1       24.643 -28.046  12.849  0.00  0.00    +0.001 A 
ATOM     20  C   LIG    1       24.790 -28.973  11.816  0.00  0.00    +0.010 A 
ENDBRANCH   7  15
BRANCH   5  21
ATOM     21  O   LIG    1       27.473 -31.736   8.006  0.00  0.00    -0.364 OA
ATOM     22  H   LIG    1       26.858 -31.138   7.550  0.00  0.00    +0.212 HD
ENDBRANCH   5  21
TORSDOF 2
ENDMDL
MODEL 9
REMARK VINA RESULT:      -6.3      6.496      8.770
REMARK  Name = *****
REMARK                            x       y       z     vdW  Elec       q    Type
REMARK                         _______ _______ _______ _____ _____    ______ ____
ROOT
ATOM      1  C   LIG    1       26.774 -28.194  12.835  0.00  0.00    +0.138 C 
ATOM      2  N   LIG    1       26.527 -29.068  11.698  0.00  0.00    -0.270 N 
ATOM      3  C   LIG    1       27.649 -29.670  11.113  0.00  0.00    +0.271 C 
ATOM      4  O   LIG    1       28.800 -29.369  11.450  0.00  0.00    -0.270 OA
ATOM      5  C   LIG    1       27.408 -30.781  10.051  0.00  0.00    +0.320 C 
ATOM      6  N   LIG    1       26.891 -30.153   8.839  0.00  0.00    -0.243 NA
ATOM      7  C   LIG    1       25.710 -29.634   8.870  0.00  0.00    +0.078 C 
ATOM      8  C   LIG    1       24.782 -29.721  10.037  0.00  0.00    +0.023 A 
ATOM      9  C   LIG    1       23.454 -30.101   9.765  0.00  0.00    +0.032 A 
ATOM     10  C   LIG    1       22.507 -30.106  10.782  0.00  0.00    +0.042 A 
ATOM     11 CL   LIG    1       20.883 -30.555  10.438  0.00  0.00    -0.084 Cl
ATOM     12  C   LIG    1       22.864 -29.737  12.070  0.00  0.00    +0.022 A 
ATOM     13  C   LIG    1       24.189 -29.383  12.349  0.00  0.00    +0.025 A 
ATOM     14  C   LIG    1       25.181 -29.393  11.349  0.00  0.00    +0.045 A 
ENDROOT
BRANCH   7  15
ATOM     15  C   LIG    1       25.245 -28.918   7.639  0.00  0.00    +0.001 A 
ATOM     16  C   LIG    1       24.412 -29.545   6.704  0.00  0.00    +0.010 A 
ATOM     17  C   LIG    1       23.994 -28.852   5.565  0.00  0.00    +0.001 A 
ATOM     18  C   LIG    1       24.394 -27.532   5.364  0.00  0.00    +0.000 A 
ATOM     19  C   LIG    1       25.207 -26.897   6.302  0.00  0.00    +0.001 A 
ATOM     20  C   LIG    1       25.628 -27.586   7.440  0.00  0.00    +0.010 A 
ENDBRANCH   7  15
BRANCH   5  21
ATOM     21  O   LIG    1       26.676 -31.909  10.489  0.00  0.00    -0.364 OA
ATOM     22  H   LIG    1       25.752 -31.614  10.427  0.00  0.00    +0.212 HD
ENDBRANCH   5  21
TORSDOF 2
ENDMDL
