MODEL 1
REMARK VINA RESULT:      -6.9      0.000      0.000
REMARK  Name = *****
REMARK                            x       y       z     vdW  Elec       q    Type
REMARK                         _______ _______ _______ _____ _____    ______ ____
ROOT
ATOM      1  C   LIG    1       25.100 -17.948   3.580  0.00  0.00    +0.341 C 
ATOM      2  O   LIG    1       23.915 -17.650   3.676  0.00  0.00    -0.247 OA
ENDROOT
BRANCH   1   3
ATOM      3  O   LIG    1       26.102 -17.104   3.199  0.00  0.00    -0.459 OA
BRANCH   3  11
ATOM      4  C   LIG    1       24.360 -12.698   1.861  0.00  0.00    +0.007 C 
ATOM      5  C   LIG    1       25.156 -13.444   2.933  0.00  0.00    -0.010 C 
ATOM      6  C   LIG    1       26.592 -12.905   3.009  0.00  0.00    +0.010 C 
ATOM      7  C   LIG    1       27.481 -13.659   4.025  0.00  0.00    -0.031 C 
ATOM      8  C   LIG    1       28.937 -13.178   3.868  0.00  0.00    +0.011 C 
ATOM      9  C   LIG    1       27.038 -13.351   5.468  0.00  0.00    +0.011 C 
ATOM     10  C   LIG    1       27.420 -15.176   3.743  0.00  0.00    +0.051 C 
ATOM     11  C   LIG    1       25.995 -15.737   3.649  0.00  0.00    +0.177 C 
ATOM     12  C   LIG    1       25.152 -14.948   2.645  0.00  0.00    +0.048 C 
ENDBRANCH   3  11
ENDBRANCH   1   3
BRANCH   1  13
ATOM     13  C   LIG    1       25.648 -19.339   3.926  0.00  0.00    +0.253 C 
BRANCH  13  14
ATOM     14  C   LIG    1       24.751 -20.089   4.891  0.00  0.00    -0.008 A 
ATOM     15  C   LIG    1       23.438 -20.451   4.547  0.00  0.00    +0.007 A 
ATOM     16  C   LIG    1       22.621 -21.130   5.452  0.00  0.00    +0.000 A 
ATOM     17  C   LIG    1       23.110 -21.470   6.711  0.00  0.00    +0.000 A 
ATOM     18  C   LIG    1       24.416 -21.139   7.062  0.00  0.00    +0.000 A 
ATOM     19  C   LIG    1       25.233 -20.455   6.159  0.00  0.00    +0.007 A 
ENDBRANCH  13  14
BRANCH  13  20
ATOM     20  O   LIG    1       26.967 -19.244   4.476  0.00  0.00    -0.376 OA
ATOM     21  H   LIG    1       26.867 -18.783   5.331  0.00  0.00    +0.211 HD
ENDBRANCH  13  20
ENDBRANCH   1  13
TORSDOF 5
ENDMDL
MODEL 2
REMARK VINA RESULT:      -6.3      1.816      2.693
REMARK  Name = *****
REMARK                            x       y       z     vdW  Elec       q    Type
REMARK                         _______ _______ _______ _____ _____    ______ ____
ROOT
ATOM      1  C   LIG    1       22.355 -16.509   4.815  0.00  0.00    +0.341 C 
ATOM      2  O   LIG    1       21.992 -15.833   5.771  0.00  0.00    -0.247 OA
ENDROOT
BRANCH   1   3
ATOM      3  O   LIG    1       23.283 -16.138   3.887  0.00  0.00    -0.459 OA
BRANCH   3  11
ATOM      4  C   LIG    1       23.821 -11.447   2.494  0.00  0.00    +0.007 C 
ATOM      5  C   LIG    1       24.367 -12.537   3.418  0.00  0.00    -0.010 C 
ATOM      6  C   LIG    1       25.828 -12.858   3.066  0.00  0.00    +0.010 C 
ATOM      7  C   LIG    1       26.428 -14.003   3.914  0.00  0.00    -0.031 C 
ATOM      8  C   LIG    1       27.810 -14.375   3.341  0.00  0.00    +0.011 C 
ATOM      9  C   LIG    1       26.632 -13.550   5.372  0.00  0.00    +0.011 C 
ATOM     10  C   LIG    1       25.506 -15.240   3.844  0.00  0.00    +0.051 C 
ATOM     11  C   LIG    1       24.038 -14.942   4.179  0.00  0.00    +0.177 C 
ATOM     12  C   LIG    1       23.495 -13.793   3.327  0.00  0.00    +0.048 C 
ENDBRANCH   3  11
ENDBRANCH   1   3
BRANCH   1  13
ATOM     13  C   LIG    1       21.836 -17.928   4.543  0.00  0.00    +0.253 C 
BRANCH  13  14
ATOM     14  C   LIG    1       22.929 -18.973   4.649  0.00  0.00    -0.008 A 
ATOM     15  C   LIG    1       22.956 -19.906   5.699  0.00  0.00    +0.007 A 
ATOM     16  C   LIG    1       23.978 -20.854   5.789  0.00  0.00    +0.000 A 
ATOM     17  C   LIG    1       24.979 -20.891   4.822  0.00  0.00    +0.000 A 
ATOM     18  C   LIG    1       24.956 -19.987   3.762  0.00  0.00    +0.000 A 
ATOM     19  C   LIG    1       23.937 -19.036   3.674  0.00  0.00    +0.007 A 
ENDBRANCH  13  14
BRANCH  13  20
ATOM     20  O   LIG    1       21.222 -18.007   3.251  0.00  0.00    -0.376 OA
ATOM     21  H   LIG    1       20.739 -17.167   3.134  0.00  0.00    +0.211 HD
ENDBRANCH  13  20
ENDBRANCH   1  13
TORSDOF 5
ENDMDL
MODEL 3
REMARK VINA RESULT:      -6.3      1.189      2.456
REMARK  Name = *****
REMARK                            x       y       z     vdW  Elec       q    Type
REMARK                         _______ _______ _______ _____ _____    ______ ____
ROOT
ATOM      1  C   LIG    1       25.641 -17.759   3.456  0.00  0.00    +0.341 C 
ATOM      2  O   LIG    1       26.852 -17.671   3.293  0.00  0.00    -0.247 OA
ENDROOT
BRANCH   1   3
ATOM      3  O   LIG    1       24.806 -16.729   3.778  0.00  0.00    -0.459 OA
BRANCH   3  11
ATOM      4  C   LIG    1       28.522 -13.500   3.761  0.00  0.00    +0.007 C 
ATOM      5  C   LIG    1       27.072 -13.724   3.331  0.00  0.00    -0.010 C 
ATOM      6  C   LIG    1       26.142 -12.722   4.033  0.00  0.00    +0.010 C 
ATOM      7  C   LIG    1       24.647 -12.932   3.701  0.00  0.00    -0.031 C 
ATOM      8  C   LIG    1       23.801 -12.018   4.609  0.00  0.00    +0.011 C 
ATOM      9  C   LIG    1       24.354 -12.541   2.240  0.00  0.00    +0.011 C 
ATOM     10  C   LIG    1       24.257 -14.402   3.966  0.00  0.00    +0.051 C 
ATOM     11  C   LIG    1       25.179 -15.424   3.287  0.00  0.00    +0.177 C 
ATOM     12  C   LIG    1       26.646 -15.165   3.632  0.00  0.00    +0.048 C 
ENDBRANCH   3  11
ENDBRANCH   1   3
BRANCH   1  13
ATOM     13  C   LIG    1       24.861 -19.069   3.273  0.00  0.00    +0.253 C 
BRANCH  13  14
ATOM     14  C   LIG    1       24.522 -19.729   4.595  0.00  0.00    -0.008 A 
ATOM     15  C   LIG    1       23.195 -19.846   5.040  0.00  0.00    +0.007 A 
ATOM     16  C   LIG    1       22.901 -20.446   6.266  0.00  0.00    +0.000 A 
ATOM     17  C   LIG    1       23.929 -20.950   7.059  0.00  0.00    +0.000 A 
ATOM     18  C   LIG    1       25.249 -20.861   6.623  0.00  0.00    +0.000 A 
ATOM     19  C   LIG    1       25.545 -20.258   5.399  0.00  0.00    +0.007 A 
ENDBRANCH  13  14
BRANCH  13  20
ATOM     20  O   LIG    1       25.594 -19.987   2.454  0.00  0.00    -0.376 OA
ATOM     21  H   LIG    1       26.536 -19.828   2.653  0.00  0.00    +0.211 HD
ENDBRANCH  13  20
ENDBRANCH   1  13
TORSDOF 5
ENDMDL
MODEL 4
REMARK VINA RESULT:      -6.1      0.705      2.430
REMARK  Name = *****
REMARK                            x       y       z     vdW  Elec       q    Type
REMARK                         _______ _______ _______ _____ _____    ______ ____
ROOT
ATOM      1  C   LIG    1       25.389 -18.094   3.624  0.00  0.00    +0.341 C 
ATOM      2  O   LIG    1       24.272 -17.708   3.301  0.00  0.00    -0.247 OA
ENDROOT
BRANCH   1   3
ATOM      3  O   LIG    1       26.481 -17.298   3.810  0.00  0.00    -0.459 OA
BRANCH   3  11
ATOM      4  C   LIG    1       28.814 -12.963   3.822  0.00  0.00    +0.007 C 
ATOM      5  C   LIG    1       27.558 -13.694   3.347  0.00  0.00    -0.010 C 
ATOM      6  C   LIG    1       26.303 -13.073   3.980  0.00  0.00    +0.010 C 
ATOM      7  C   LIG    1       24.995 -13.805   3.600  0.00  0.00    -0.031 C 
ATOM      8  C   LIG    1       23.840 -13.234   4.446  0.00  0.00    +0.011 C 
ATOM      9  C   LIG    1       24.651 -13.570   2.117  0.00  0.00    +0.011 C 
ATOM     10  C   LIG    1       25.137 -15.314   3.900  0.00  0.00    +0.051 C 
ATOM     11  C   LIG    1       26.391 -15.955   3.289  0.00  0.00    +0.177 C 
ATOM     12  C   LIG    1       27.655 -15.186   3.679  0.00  0.00    +0.048 C 
ENDBRANCH   3  11
ENDBRANCH   1   3
BRANCH   1  13
ATOM     13  C   LIG    1       25.718 -19.565   3.918  0.00  0.00    +0.253 C 
BRANCH  13  14
ATOM     14  C   LIG    1       24.734 -20.195   4.883  0.00  0.00    -0.008 A 
ATOM     15  C   LIG    1       25.109 -20.550   6.190  0.00  0.00    +0.007 A 
ATOM     16  C   LIG    1       24.193 -21.142   7.062  0.00  0.00    +0.000 A 
ATOM     17  C   LIG    1       22.886 -21.376   6.645  0.00  0.00    +0.000 A 
ATOM     18  C   LIG    1       22.491 -21.011   5.360  0.00  0.00    +0.000 A 
ATOM     19  C   LIG    1       23.407 -20.423   4.485  0.00  0.00    +0.007 A 
ENDBRANCH  13  14
BRANCH  13  20
ATOM     20  O   LIG    1       27.047 -19.695   4.437  0.00  0.00    -0.376 OA
ATOM     21  H   LIG    1       27.618 -19.173   3.841  0.00  0.00    +0.211 HD
ENDBRANCH  13  20
ENDBRANCH   1  13
TORSDOF 5
ENDMDL
MODEL 5
REMARK VINA RESULT:      -5.8      1.469      3.002
REMARK  Name = *****
REMARK                            x       y       z     vdW  Elec       q    Type
REMARK                         _______ _______ _______ _____ _____    ______ ____
ROOT
ATOM      1  C   LIG    1       25.350 -18.042   3.394  0.00  0.00    +0.341 C 
ATOM      2  O   LIG    1       26.196 -18.056   2.507  0.00  0.00    -0.247 OA
ENDROOT
BRANCH   1   3
ATOM      3  O   LIG    1       24.781 -16.924   3.930  0.00  0.00    -0.459 OA
BRANCH   3  11
ATOM      4  C   LIG    1       28.542 -13.752   3.746  0.00  0.00    +0.007 C 
ATOM      5  C   LIG    1       27.095 -13.988   3.309  0.00  0.00    -0.010 C 
ATOM      6  C   LIG    1       26.169 -12.926   3.922  0.00  0.00    +0.010 C 
ATOM      7  C   LIG    1       24.676 -13.140   3.582  0.00  0.00    -0.031 C 
ATOM      8  C   LIG    1       23.829 -12.153   4.409  0.00  0.00    +0.011 C 
ATOM      9  C   LIG    1       24.412 -12.850   2.092  0.00  0.00    +0.011 C 
ATOM     10  C   LIG    1       24.261 -14.582   3.944  0.00  0.00    +0.051 C 
ATOM     11  C   LIG    1       25.180 -15.662   3.354  0.00  0.00    +0.177 C 
ATOM     12  C   LIG    1       26.645 -15.397   3.704  0.00  0.00    +0.048 C 
ENDBRANCH   3  11
ENDBRANCH   1   3
BRANCH   1  13
ATOM     13  C   LIG    1       24.758 -19.316   4.012  0.00  0.00    +0.253 C 
BRANCH  13  14
ATOM     14  C   LIG    1       25.669 -19.927   5.059  0.00  0.00    -0.008 A 
ATOM     15  C   LIG    1       27.034 -19.601   5.128  0.00  0.00    +0.007 A 
ATOM     16  C   LIG    1       27.862 -20.183   6.090  0.00  0.00    +0.000 A 
ATOM     17  C   LIG    1       27.334 -21.090   7.005  0.00  0.00    +0.000 A 
ATOM     18  C   LIG    1       25.979 -21.409   6.964  0.00  0.00    +0.000 A 
ATOM     19  C   LIG    1       25.151 -20.831   6.000  0.00  0.00    +0.007 A 
ENDBRANCH  13  14
BRANCH  13  20
ATOM     20  O   LIG    1       24.473 -20.289   3.000  0.00  0.00    -0.376 OA
ATOM     21  H   LIG    1       24.895 -19.956   2.185  0.00  0.00    +0.211 HD
ENDBRANCH  13  20
ENDBRANCH   1  13
TORSDOF 5
ENDMDL
MODEL 6
REMARK VINA RESULT:      -4.8      1.955      6.876
REMARK  Name = *****
REMARK                            x       y       z     vdW  Elec       q    Type
REMARK                         _______ _______ _______ _____ _____    ______ ____
ROOT
ATOM      1  C   LIG    1       22.960 -15.387   4.541  0.00  0.00    +0.341 C 
ATOM      2  O   LIG    1       22.730 -14.936   5.657  0.00  0.00    -0.247 OA
ENDROOT
BRANCH   1   3
ATOM      3  O   LIG    1       22.502 -16.577   4.056  0.00  0.00    -0.459 OA
BRANCH   3  11
ATOM      4  C   LIG    1       25.980 -19.907   3.032  0.00  0.00    +0.007 C 
ATOM      5  C   LIG    1       24.879 -19.528   4.024  0.00  0.00    -0.010 C 
ATOM      6  C   LIG    1       23.788 -20.609   4.054  0.00  0.00    +0.010 C 
ATOM      7  C   LIG    1       22.602 -20.262   4.984  0.00  0.00    -0.031 C 
ATOM      8  C   LIG    1       21.485 -21.304   4.778  0.00  0.00    +0.011 C 
ATOM      9  C   LIG    1       23.035 -20.325   6.462  0.00  0.00    +0.011 C 
ATOM     10  C   LIG    1       22.055 -18.863   4.629  0.00  0.00    +0.051 C 
ATOM     11  C   LIG    1       23.129 -17.767   4.580  0.00  0.00    +0.177 C 
ATOM     12  C   LIG    1       24.286 -18.164   3.661  0.00  0.00    +0.048 C 
ENDBRANCH   3  11
ENDBRANCH   1   3
BRANCH   1  13
ATOM     13  C   LIG    1       23.781 -14.637   3.483  0.00  0.00    +0.253 C 
BRANCH  13  14
ATOM     14  C   LIG    1       25.221 -14.429   3.909  0.00  0.00    -0.008 A 
ATOM     15  C   LIG    1       25.576 -13.451   4.853  0.00  0.00    +0.007 A 
ATOM     16  C   LIG    1       26.909 -13.265   5.225  0.00  0.00    +0.000 A 
ATOM     17  C   LIG    1       27.905 -14.062   4.668  0.00  0.00    +0.000 A 
ATOM     18  C   LIG    1       27.569 -15.051   3.747  0.00  0.00    +0.000 A 
ATOM     19  C   LIG    1       26.236 -15.236   3.371  0.00  0.00    +0.007 A 
ENDBRANCH  13  14
BRANCH  13  20
ATOM     20  O   LIG    1       23.185 -13.370   3.180  0.00  0.00    -0.376 OA
ATOM     21  H   LIG    1       23.034 -12.934   4.041  0.00  0.00    +0.211 HD
ENDBRANCH  13  20
ENDBRANCH   1  13
TORSDOF 5
ENDMDL
MODEL 7
REMARK VINA RESULT:      -4.7      1.515      6.315
REMARK  Name = *****
REMARK                            x       y       z     vdW  Elec       q    Type
REMARK                         _______ _______ _______ _____ _____    ______ ____
ROOT
ATOM      1  C   LIG    1       27.117 -16.901   3.840  0.00  0.00    +0.341 C 
ATOM      2  O   LIG    1       27.873 -17.769   4.260  0.00  0.00    -0.247 OA
ENDROOT
BRANCH   1   3
ATOM      3  O   LIG    1       26.090 -17.099   2.964  0.00  0.00    -0.459 OA
BRANCH   3  11
ATOM      4  C   LIG    1       21.571 -18.346   4.468  0.00  0.00    +0.007 C 
ATOM      5  C   LIG    1       22.936 -18.896   4.052  0.00  0.00    -0.010 C 
ATOM      6  C   LIG    1       23.585 -19.660   5.216  0.00  0.00    +0.010 C 
ATOM      7  C   LIG    1       25.001 -20.188   4.894  0.00  0.00    -0.031 C 
ATOM      8  C   LIG    1       25.631 -20.748   6.184  0.00  0.00    +0.011 C 
ATOM      9  C   LIG    1       24.933 -21.336   3.869  0.00  0.00    +0.011 C 
ATOM     10  C   LIG    1       25.880 -19.032   4.368  0.00  0.00    +0.051 C 
ATOM     11  C   LIG    1       25.247 -18.245   3.212  0.00  0.00    +0.177 C 
ATOM     12  C   LIG    1       23.843 -17.759   3.573  0.00  0.00    +0.048 C 
ENDBRANCH   3  11
ENDBRANCH   1   3
BRANCH   1  13
ATOM     13  C   LIG    1       27.189 -15.434   4.287  0.00  0.00    +0.253 C 
BRANCH  13  14
ATOM     14  C   LIG    1       26.060 -14.600   3.716  0.00  0.00    -0.008 A 
ATOM     15  C   LIG    1       24.825 -14.483   4.376  0.00  0.00    +0.007 A 
ATOM     16  C   LIG    1       23.790 -13.721   3.829  0.00  0.00    +0.000 A 
ATOM     17  C   LIG    1       23.980 -13.053   2.622  0.00  0.00    +0.000 A 
ATOM     18  C   LIG    1       25.205 -13.141   1.965  0.00  0.00    +0.000 A 
ATOM     19  C   LIG    1       26.240 -13.906   2.508  0.00  0.00    +0.007 A 
ENDBRANCH  13  14
BRANCH  13  20
ATOM     20  O   LIG    1       28.446 -14.852   3.920  0.00  0.00    -0.376 OA
ATOM     21  H   LIG    1       28.262 -14.290   3.143  0.00  0.00    +0.211 HD
ENDBRANCH  13  20
ENDBRANCH   1  13
TORSDOF 5
ENDMDL
MODEL 8
REMARK VINA RESULT:      -4.7      1.810      3.165
REMARK  Name = *****
REMARK                            x       y       z     vdW  Elec       q    Type
REMARK                         _______ _______ _______ _____ _____    ______ ____
ROOT
ATOM      1  C   LIG    1       22.718 -16.633   4.668  0.00  0.00    +0.341 C 
ATOM      2  O   LIG    1       22.235 -15.665   5.243  0.00  0.00    -0.247 OA
ENDROOT
BRANCH   1   3
ATOM      3  O   LIG    1       23.955 -16.680   4.094  0.00  0.00    -0.459 OA
BRANCH   3  11
ATOM      4  C   LIG    1       28.100 -14.073   3.591  0.00  0.00    +0.007 C 
ATOM      5  C   LIG    1       26.589 -14.057   3.357  0.00  0.00    -0.010 C 
ATOM      6  C   LIG    1       25.929 -12.938   4.178  0.00  0.00    +0.010 C 
ATOM      7  C   LIG    1       24.389 -12.904   4.047  0.00  0.00    -0.031 C 
ATOM      8  C   LIG    1       23.825 -11.890   5.061  0.00  0.00    +0.011 C 
ATOM      9  C   LIG    1       23.974 -12.438   2.638  0.00  0.00    +0.011 C 
ATOM     10  C   LIG    1       23.810 -14.301   4.359  0.00  0.00    +0.051 C 
ATOM     11  C   LIG    1       24.462 -15.438   3.560  0.00  0.00    +0.177 C 
ATOM     12  C   LIG    1       25.984 -15.420   3.708  0.00  0.00    +0.048 C 
ENDBRANCH   3  11
ENDBRANCH   1   3
BRANCH   1  13
ATOM     13  C   LIG    1       21.998 -17.984   4.546  0.00  0.00    +0.253 C 
BRANCH  13  14
ATOM     14  C   LIG    1       22.947 -19.158   4.683  0.00  0.00    -0.008 A 
ATOM     15  C   LIG    1       23.925 -19.432   3.712  0.00  0.00    +0.007 A 
ATOM     16  C   LIG    1       24.782 -20.525   3.847  0.00  0.00    +0.000 A 
ATOM     17  C   LIG    1       24.683 -21.354   4.961  0.00  0.00    +0.000 A 
ATOM     18  C   LIG    1       23.733 -21.086   5.944  0.00  0.00    +0.000 A 
ATOM     19  C   LIG    1       22.872 -19.994   5.808  0.00  0.00    +0.007 A 
ENDBRANCH  13  14
BRANCH  13  20
ATOM     20  O   LIG    1       21.298 -18.077   3.300  0.00  0.00    -0.376 OA
ATOM     21  H   LIG    1       21.714 -18.817   2.816  0.00  0.00    +0.211 HD
ENDBRANCH  13  20
ENDBRANCH   1  13
TORSDOF 5
ENDMDL
MODEL 9
REMARK VINA RESULT:      -4.5      1.627      7.051
REMARK  Name = *****
REMARK                            x       y       z     vdW  Elec       q    Type
REMARK                         _______ _______ _______ _____ _____    ______ ____
ROOT
ATOM      1  C   LIG    1       26.525 -16.792   3.448  0.00  0.00    +0.341 C 
ATOM      2  O   LIG    1       25.688 -16.923   2.563  0.00  0.00    -0.247 OA
ENDROOT
BRANCH   1   3
ATOM      3  O   LIG    1       27.268 -17.799   3.993  0.00  0.00    -0.459 OA
BRANCH   3  11
ATOM      4  C   LIG    1       28.029 -21.572   7.062  0.00  0.00    +0.007 C 
ATOM      5  C   LIG    1       26.957 -20.677   6.438  0.00  0.00    -0.010 C 
ATOM      6  C   LIG    1       25.996 -21.511   5.577  0.00  0.00    +0.010 C 
ATOM      7  C   LIG    1       24.923 -20.663   4.855  0.00  0.00    -0.031 C 
ATOM      8  C   LIG    1       24.155 -21.566   3.869  0.00  0.00    +0.011 C 
ATOM      9  C   LIG    1       23.905 -20.100   5.865  0.00  0.00    +0.011 C 
ATOM     10  C   LIG    1       25.604 -19.524   4.066  0.00  0.00    +0.051 C 
ATOM     11  C   LIG    1       26.580 -18.684   4.901  0.00  0.00    +0.177 C 
ATOM     12  C   LIG    1       27.610 -19.568   5.608  0.00  0.00    +0.048 C 
ENDBRANCH   3  11
ENDBRANCH   1   3
BRANCH   1  13
ATOM     13  C   LIG    1       26.901 -15.434   4.057  0.00  0.00    +0.253 C 
BRANCH  13  14
ATOM     14  C   LIG    1       25.939 -14.334   3.654  0.00  0.00    -0.008 A 
ATOM     15  C   LIG    1       26.186 -13.510   2.543  0.00  0.00    +0.007 A 
ATOM     16  C   LIG    1       25.295 -12.493   2.194  0.00  0.00    +0.000 A 
ATOM     17  C   LIG    1       24.138 -12.293   2.942  0.00  0.00    +0.000 A 
ATOM     18  C   LIG    1       23.867 -13.115   4.034  0.00  0.00    +0.000 A 
ATOM     19  C   LIG    1       24.759 -14.130   4.388  0.00  0.00    +0.007 A 
ENDBRANCH  13  14
BRANCH  13  20
ATOM     20  O   LIG    1       28.234 -15.062   3.687  0.00  0.00    -0.376 OA
ATOM     21  H   LIG    1       28.148 -14.226   3.189  0.00  0.00    +0.211 HD
ENDBRANCH  13  20
ENDBRANCH   1  13
TORSDOF 5
ENDMDL
