MODEL 1
REMARK VINA RESULT:       9.3      0.000      0.000
REMARK  Name = *****
REMARK                            x       y       z     vdW  Elec       q    Type
REMARK                         _______ _______ _______ _____ _____    ______ ____
ROOT
ATOM      1  C   LIG    1       23.846 -18.143   4.527  0.00  0.00    +0.061 C 
ATOM      2  C   LIG    1       23.122 -16.774   4.423  0.00  0.00    -0.019 C 
ATOM      3  C   LIG    1       21.598 -16.919   4.263  0.00  0.00    +0.012 C 
ATOM      4  C   LIG    1       23.770 -16.142   3.172  0.00  0.00    +0.003 C 
ATOM      5  C   LIG    1       23.527 -14.625   3.031  0.00  0.00    +0.019 C 
ATOM      6  C   LIG    1       23.704 -13.771   4.310  0.00  0.00    +0.006 C 
ATOM      7  C   LIG    1       23.074 -14.451   5.539  0.00  0.00    +0.005 C 
ATOM      8  C   LIG    1       25.118 -13.073   4.520  0.00  0.00    -0.003 C 
ATOM      9  C   LIG    1       24.815 -11.590   4.899  0.00  0.00    +0.016 C 
ATOM     10  C   LIG    1       25.982 -13.041   3.253  0.00  0.00    -0.038 C 
ATOM     11  C   LIG    1       27.316 -12.867   3.286  0.00  0.00    +0.050 C 
ATOM     12  C   LIG    1       28.054 -12.757   4.565  0.00  0.00    +0.156 C 
ATOM     13  O   LIG    1       29.245 -12.456   4.544  0.00  0.00    -0.293 OA
ATOM     14  C   LIG    1       27.321 -13.002   5.861  0.00  0.00    +0.080 C 
ATOM     15  C   LIG    1       25.355 -13.285   1.972  0.00  0.00    +0.000 C 
ATOM     16  C   LIG    1       25.972 -13.694   5.657  0.00  0.00    +0.019 C 
ATOM     17  C   LIG    1       24.249 -14.028   1.856  0.00  0.00    -0.023 C 
ATOM     18  C   LIG    1       25.235 -16.603   3.208  0.00  0.00    +0.005 C 
ATOM     19  C   LIG    1       23.425 -15.931   5.688  0.00  0.00    +0.008 C 
ATOM     20  C   LIG    1       25.285 -17.860   4.081  0.00  0.00    +0.012 C 
ENDROOT
BRANCH   1  22
ATOM     21  C   LIG    1       22.253 -20.169   4.327  0.00  0.00    +0.086 C 
ATOM     22  C   LIG    1       23.247 -19.253   3.660  0.00  0.00    +0.134 C 
ATOM     23  O   LIG    1       23.546 -19.401   2.475  0.00  0.00    -0.297 OA
ENDBRANCH   1  22
TORSDOF 1
ENDMDL
MODEL 2
REMARK VINA RESULT:       9.8      2.479      6.419
REMARK  Name = *****
REMARK                            x       y       z     vdW  Elec       q    Type
REMARK                         _______ _______ _______ _____ _____    ______ ____
ROOT
ATOM      1  C   LIG    1       25.264 -14.516   4.266  0.00  0.00    +0.061 C 
ATOM      2  C   LIG    1       26.247 -15.569   3.688  0.00  0.00    -0.019 C 
ATOM      3  C   LIG    1       27.249 -14.961   2.690  0.00  0.00    +0.012 C 
ATOM      4  C   LIG    1       25.299 -16.578   3.003  0.00  0.00    +0.003 C 
ATOM      5  C   LIG    1       25.955 -17.932   2.663  0.00  0.00    +0.019 C 
ATOM      6  C   LIG    1       26.839 -18.571   3.761  0.00  0.00    +0.006 C 
ATOM      7  C   LIG    1       27.744 -17.527   4.441  0.00  0.00    +0.005 C 
ATOM      8  C   LIG    1       26.148 -19.649   4.706  0.00  0.00    -0.003 C 
ATOM      9  C   LIG    1       27.124 -20.865   4.758  0.00  0.00    +0.016 C 
ATOM     10  C   LIG    1       24.812 -20.172   4.166  0.00  0.00    -0.038 C 
ATOM     11  C   LIG    1       23.893 -20.766   4.950  0.00  0.00    +0.050 C 
ATOM     12  C   LIG    1       24.086 -20.898   6.411  0.00  0.00    +0.156 C 
ATOM     13  O   LIG    1       23.290 -21.572   7.062  0.00  0.00    -0.293 OA
ATOM     14  C   LIG    1       25.263 -20.213   7.062  0.00  0.00    +0.080 C 
ATOM     15  C   LIG    1       24.485 -19.954   2.773  0.00  0.00    +0.000 C 
ATOM     16  C   LIG    1       25.911 -19.162   6.160  0.00  0.00    +0.019 C 
ATOM     17  C   LIG    1       24.981 -18.919   2.085  0.00  0.00    -0.023 C 
ATOM     18  C   LIG    1       24.053 -16.623   3.900  0.00  0.00    +0.005 C 
ATOM     19  C   LIG    1       27.026 -16.242   4.848  0.00  0.00    +0.008 C 
ATOM     20  C   LIG    1       24.041 -15.325   4.712  0.00  0.00    +0.012 C 
ENDROOT
BRANCH   1  22
ATOM     21  C   LIG    1       23.854 -12.403   3.786  0.00  0.00    +0.086 C 
ATOM     22  C   LIG    1       24.831 -13.431   3.276  0.00  0.00    +0.134 C 
ATOM     23  O   LIG    1       25.254 -13.383   2.121  0.00  0.00    -0.297 OA
ENDBRANCH   1  22
TORSDOF 1
ENDMDL
MODEL 3
REMARK VINA RESULT:      10.2      4.377      7.079
REMARK  Name = *****
REMARK                            x       y       z     vdW  Elec       q    Type
REMARK                         _______ _______ _______ _____ _____    ______ ____
ROOT
ATOM      1  C   LIG    1       27.316 -19.073   6.015  0.00  0.00    +0.061 C 
ATOM      2  C   LIG    1       26.415 -20.335   6.042  0.00  0.00    -0.019 C 
ATOM      3  C   LIG    1       27.136 -21.567   6.620  0.00  0.00    +0.012 C 
ATOM      4  C   LIG    1       26.058 -20.529   4.552  0.00  0.00    +0.003 C 
ATOM      5  C   LIG    1       24.870 -21.482   4.303  0.00  0.00    +0.019 C 
ATOM      6  C   LIG    1       23.630 -21.296   5.210  0.00  0.00    +0.006 C 
ATOM      7  C   LIG    1       24.029 -21.072   6.681  0.00  0.00    +0.005 C 
ATOM      8  C   LIG    1       22.449 -20.394   4.641  0.00  0.00    -0.003 C 
ATOM      9  C   LIG    1       21.136 -21.201   4.880  0.00  0.00    +0.016 C 
ATOM     10  C   LIG    1       22.546 -20.138   3.132  0.00  0.00    -0.038 C 
ATOM     11  C   LIG    1       21.910 -19.118   2.525  0.00  0.00    +0.050 C 
ATOM     12  C   LIG    1       21.119 -18.129   3.291  0.00  0.00    +0.156 C 
ATOM     13  O   LIG    1       20.442 -17.304   2.682  0.00  0.00    -0.293 OA
ATOM     14  C   LIG    1       21.153 -18.170   4.799  0.00  0.00    +0.080 C 
ATOM     15  C   LIG    1       23.415 -20.975   2.333  0.00  0.00    +0.000 C 
ATOM     16  C   LIG    1       22.303 -19.018   5.344  0.00  0.00    +0.019 C 
ATOM     17  C   LIG    1       24.493 -21.572   2.852  0.00  0.00    -0.023 C 
ATOM     18  C   LIG    1       25.930 -19.107   3.986  0.00  0.00    +0.005 C 
ATOM     19  C   LIG    1       25.144 -20.047   6.881  0.00  0.00    +0.008 C 
ATOM     20  C   LIG    1       26.711 -18.183   4.924  0.00  0.00    +0.012 C 
ENDROOT
BRANCH   1  22
ATOM     21  C   LIG    1       29.427 -20.513   6.406  0.00  0.00    +0.086 C 
ATOM     22  C   LIG    1       28.790 -19.342   5.702  0.00  0.00    +0.134 C 
ATOM     23  O   LIG    1       29.435 -18.652   4.913  0.00  0.00    -0.297 OA
ENDBRANCH   1  22
TORSDOF 1
ENDMDL
MODEL 4
REMARK VINA RESULT:      11.4      2.224      6.318
REMARK  Name = *****
REMARK                            x       y       z     vdW  Elec       q    Type
REMARK                         _______ _______ _______ _____ _____    ______ ____
ROOT
ATOM      1  C   LIG    1       24.690 -14.078   4.983  0.00  0.00    +0.061 C 
ATOM      2  C   LIG    1       24.786 -14.981   3.725  0.00  0.00    -0.019 C 
ATOM      3  C   LIG    1       25.091 -14.183   2.444  0.00  0.00    +0.012 C 
ATOM      4  C   LIG    1       23.389 -15.637   3.670  0.00  0.00    +0.003 C 
ATOM      5  C   LIG    1       23.304 -16.870   2.746  0.00  0.00    +0.019 C 
ATOM      6  C   LIG    1       24.458 -17.896   2.849  0.00  0.00    +0.006 C 
ATOM      7  C   LIG    1       25.830 -17.201   2.935  0.00  0.00    +0.005 C 
ATOM      8  C   LIG    1       24.226 -19.149   3.801  0.00  0.00    -0.003 C 
ATOM      9  C   LIG    1       24.655 -20.402   2.978  0.00  0.00    +0.016 C 
ATOM     10  C   LIG    1       22.758 -19.357   4.196  0.00  0.00    -0.038 C 
ATOM     11  C   LIG    1       22.389 -20.081   5.268  0.00  0.00    +0.050 C 
ATOM     12  C   LIG    1       23.387 -20.680   6.183  0.00  0.00    +0.156 C 
ATOM     13  O   LIG    1       23.006 -21.450   7.062  0.00  0.00    -0.293 OA
ATOM     14  C   LIG    1       24.846 -20.341   6.003  0.00  0.00    +0.080 C 
ATOM     15  C   LIG    1       21.727 -18.686   3.434  0.00  0.00    +0.000 C 
ATOM     16  C   LIG    1       25.065 -19.121   5.106  0.00  0.00    +0.019 C 
ATOM     17  C   LIG    1       21.958 -17.536   2.791  0.00  0.00    -0.023 C 
ATOM     18  C   LIG    1       22.992 -15.849   5.139  0.00  0.00    +0.005 C 
ATOM     19  C   LIG    1       25.890 -16.049   3.936  0.00  0.00    +0.008 C 
ATOM     20  C   LIG    1       23.830 -14.875   5.971  0.00  0.00    +0.012 C 
ENDROOT
BRANCH   1  22
ATOM     21  C   LIG    1       24.181 -11.699   5.857  0.00  0.00    +0.086 C 
ATOM     22  C   LIG    1       24.059 -12.705   4.742  0.00  0.00    +0.134 C 
ATOM     23  O   LIG    1       23.482 -12.418   3.693  0.00  0.00    -0.297 OA
ENDBRANCH   1  22
TORSDOF 1
ENDMDL
