MODEL 1
REMARK VINA RESULT:      -4.1      0.000      0.000
REMARK  Name = *****
REMARK                            x       y       z     vdW  Elec       q    Type
REMARK                         _______ _______ _______ _____ _____    ______ ____
ROOT
ATOM      1  CA  GLY A  1       31.076 -20.481   8.536  0.00  0.00    +0.199 C 
ENDROOT
BRANCH   1   2
ATOM      2  N   GLY A  1       31.954 -19.471   9.186  0.00  0.00    -0.321 NA
ATOM      3  H1  GLY A  1       31.716 -19.450  10.184  0.00  0.00    +0.119 HD
ATOM      4  H2  GLY A  1       32.910 -19.838   9.168  0.00  0.00    +0.119 HD
ENDBRANCH   1   2
BRANCH   1   5
ATOM      5  C   GLY A  1       31.278 -21.836   9.210  0.00  0.00    +0.319 C 
ATOM      6  O   GLY A  1       30.733 -22.194  10.241  0.00  0.00    -0.250 OA
BRANCH   5   7
ATOM      7  OXT GLY A  1       32.179 -22.594   8.531  0.00  0.00    -0.480 OA
ATOM      8  HXT GLY A  1       33.031 -22.091   8.566  0.00  0.00    +0.295 HD
ENDBRANCH   5   7
ENDBRANCH   1   5
TORSDOF 3
ENDMDL
MODEL 2
REMARK VINA RESULT:      -3.8      3.400      3.698
REMARK  Name = *****
REMARK                            x       y       z     vdW  Elec       q    Type
REMARK                         _______ _______ _______ _____ _____    ______ ____
ROOT
ATOM      1  CA  GLY A  1       31.919 -17.233   9.554  0.00  0.00    +0.199 C 
ENDROOT
BRANCH   1   2
ATOM      2  N   GLY A  1       32.660 -16.151   8.852  0.00  0.00    -0.321 NA
ATOM      3  H1  GLY A  1       32.752 -15.364   9.503  0.00  0.00    +0.119 HD
ATOM      4  H2  GLY A  1       33.623 -16.474   8.718  0.00  0.00    +0.119 HD
ENDBRANCH   1   2
BRANCH   1   5
ATOM      5  C   GLY A  1       31.763 -18.429   8.617  0.00  0.00    +0.319 C 
ATOM      6  O   GLY A  1       31.359 -18.369   7.467  0.00  0.00    -0.250 OA
BRANCH   5   7
ATOM      7  OXT GLY A  1       32.100 -19.589   9.239  0.00  0.00    -0.480 OA
ATOM      8  HXT GLY A  1       31.533 -20.287   8.827  0.00  0.00    +0.295 HD
ENDBRANCH   5   7
ENDBRANCH   1   5
TORSDOF 3
ENDMDL
MODEL 3
REMARK VINA RESULT:      -3.8      3.989      4.205
REMARK  Name = *****
REMARK                            x       y       z     vdW  Elec       q    Type
REMARK                         _______ _______ _______ _____ _____    ______ ____
ROOT
ATOM      1  CA  GLY A  1       31.624 -18.533   8.558  0.00  0.00    +0.199 C 
ENDROOT
BRANCH   1   2
ATOM      2  N   GLY A  1       31.953 -19.873   9.116  0.00  0.00    -0.321 NA
ATOM      3  H1  GLY A  1       31.806 -20.563   8.372  0.00  0.00    +0.119 HD
ATOM      4  H2  GLY A  1       32.964 -19.898   9.279  0.00  0.00    +0.119 HD
ENDBRANCH   1   2
BRANCH   1   5
ATOM      5  C   GLY A  1       32.248 -17.453   9.439  0.00  0.00    +0.319 C 
ATOM      6  O   GLY A  1       32.440 -17.552  10.639  0.00  0.00    -0.250 OA
BRANCH   5   7
ATOM      7  OXT GLY A  1       32.536 -16.337   8.719  0.00  0.00    -0.480 OA
ATOM      8  HXT GLY A  1       32.828 -16.661   7.830  0.00  0.00    +0.295 HD
ENDBRANCH   5   7
ENDBRANCH   1   5
TORSDOF 3
ENDMDL
MODEL 4
REMARK VINA RESULT:      -3.7      2.470      2.623
REMARK  Name = *****
REMARK                            x       y       z     vdW  Elec       q    Type
REMARK                         _______ _______ _______ _____ _____    ______ ____
ROOT
ATOM      1  CA  GLY A  1       30.955 -21.457   8.923  0.00  0.00    +0.199 C 
ENDROOT
BRANCH   1   2
ATOM      2  N   GLY A  1       31.970 -22.535   8.772  0.00  0.00    -0.321 NA
ATOM      3  H1  GLY A  1       32.838 -22.100   8.439  0.00  0.00    +0.119 HD
ATOM      4  H2  GLY A  1       32.206 -22.868   9.711  0.00  0.00    +0.119 HD
ENDBRANCH   1   2
BRANCH   1   5
ATOM      5  C   GLY A  1       31.582 -20.117   8.545  0.00  0.00    +0.319 C 
ATOM      6  O   GLY A  1       32.046 -19.312   9.336  0.00  0.00    -0.250 OA
BRANCH   5   7
ATOM      7  OXT GLY A  1       31.529 -19.910   7.203  0.00  0.00    -0.480 OA
ATOM      8  HXT GLY A  1       30.679 -19.429   7.040  0.00  0.00    +0.295 HD
ENDBRANCH   5   7
ENDBRANCH   1   5
TORSDOF 3
ENDMDL
MODEL 5
REMARK VINA RESULT:      -3.7      3.342      3.555
REMARK  Name = *****
REMARK                            x       y       z     vdW  Elec       q    Type
REMARK                         _______ _______ _______ _____ _____    ______ ____
ROOT
ATOM      1  CA  GLY A  1       30.487 -17.855   9.734  0.00  0.00    +0.199 C 
ENDROOT
BRANCH   1   2
ATOM      2  N   GLY A  1       30.546 -18.238  11.171  0.00  0.00    -0.321 NA
ATOM      3  H1  GLY A  1       30.273 -19.224  11.241  0.00  0.00    +0.119 HD
ATOM      4  H2  GLY A  1       31.531 -18.233  11.450  0.00  0.00    +0.119 HD
ENDBRANCH   1   2
BRANCH   1   5
ATOM      5  C   GLY A  1       31.686 -18.454   9.002  0.00  0.00    +0.319 C 
ATOM      6  O   GLY A  1       32.125 -19.579   9.180  0.00  0.00    -0.250 OA
BRANCH   5   7
ATOM      7  OXT GLY A  1       32.234 -17.558   8.141  0.00  0.00    -0.480 OA
ATOM      8  HXT GLY A  1       32.365 -18.050   7.292  0.00  0.00    +0.295 HD
ENDBRANCH   5   7
ENDBRANCH   1   5
TORSDOF 3
ENDMDL
MODEL 6
REMARK VINA RESULT:      -3.7      2.793      3.181
REMARK  Name = *****
REMARK                            x       y       z     vdW  Elec       q    Type
REMARK                         _______ _______ _______ _____ _____    ______ ____
ROOT
ATOM      1  CA  GLY A  1       31.080 -20.531   8.710  0.00  0.00    +0.199 C 
ENDROOT
BRANCH   1   2
ATOM      2  N   GLY A  1       32.099 -21.368   9.399  0.00  0.00    -0.321 NA
ATOM      3  H1  GLY A  1       32.747 -21.718   8.685  0.00  0.00    +0.119 HD
ATOM      4  H2  GLY A  1       32.675 -20.743   9.971  0.00  0.00    +0.119 HD
ENDBRANCH   1   2
BRANCH   1   5
ATOM      5  C   GLY A  1       31.569 -19.086   8.652  0.00  0.00    +0.319 C 
ATOM      6  O   GLY A  1       31.557 -18.383   7.655  0.00  0.00    -0.250 OA
BRANCH   5   7
ATOM      7  OXT GLY A  1       32.057 -18.683   9.854  0.00  0.00    -0.480 OA
ATOM      8  HXT GLY A  1       31.712 -17.765   9.987  0.00  0.00    +0.295 HD
ENDBRANCH   5   7
ENDBRANCH   1   5
TORSDOF 3
ENDMDL
MODEL 7
REMARK VINA RESULT:      -3.6      3.388      3.610
REMARK  Name = *****
REMARK                            x       y       z     vdW  Elec       q    Type
REMARK                         _______ _______ _______ _____ _____    ______ ____
ROOT
ATOM      1  CA  GLY A  1       31.299 -18.985   7.521  0.00  0.00    +0.199 C 
ENDROOT
BRANCH   1   2
ATOM      2  N   GLY A  1       31.464 -20.452   7.706  0.00  0.00    -0.321 NA
ATOM      3  H1  GLY A  1       32.468 -20.645   7.782  0.00  0.00    +0.119 HD
ATOM      4  H2  GLY A  1       31.097 -20.688   8.633  0.00  0.00    +0.119 HD
ENDBRANCH   1   2
BRANCH   1   5
ATOM      5  C   GLY A  1       31.885 -18.255   8.727  0.00  0.00    +0.319 C 
ATOM      6  O   GLY A  1       31.952 -18.711   9.857  0.00  0.00    -0.250 OA
BRANCH   5   7
ATOM      7  OXT GLY A  1       32.299 -17.005   8.393  0.00  0.00    -0.480 OA
ATOM      8  HXT GLY A  1       32.959 -17.128   7.665  0.00  0.00    +0.295 HD
ENDBRANCH   5   7
ENDBRANCH   1   5
TORSDOF 3
ENDMDL
MODEL 8
REMARK VINA RESULT:      -3.5      3.327      3.579
REMARK  Name = *****
REMARK                            x       y       z     vdW  Elec       q    Type
REMARK                         _______ _______ _______ _____ _____    ______ ____
ROOT
ATOM      1  CA  GLY A  1       30.974 -19.409   7.105  0.00  0.00    +0.199 C 
ENDROOT
BRANCH   1   2
ATOM      2  N   GLY A  1       30.191 -18.425   6.310  0.00  0.00    -0.321 NA
ATOM      3  H1  GLY A  1       30.818 -18.030   5.601  0.00  0.00    +0.119 HD
ATOM      4  H2  GLY A  1       29.500 -18.950   5.766  0.00  0.00    +0.119 HD
ENDBRANCH   1   2
BRANCH   1   5
ATOM      5  C   GLY A  1       31.699 -18.683   8.236  0.00  0.00    +0.319 C 
ATOM      6  O   GLY A  1       31.944 -17.488   8.258  0.00  0.00    -0.250 OA
BRANCH   5   7
ATOM      7  OXT GLY A  1       32.074 -19.548   9.215  0.00  0.00    -0.480 OA
ATOM      8  HXT GLY A  1       32.479 -20.321   8.747  0.00  0.00    +0.295 HD
ENDBRANCH   5   7
ENDBRANCH   1   5
TORSDOF 3
ENDMDL
MODEL 9
REMARK VINA RESULT:      -3.5      2.864      3.226
REMARK  Name = *****
REMARK                            x       y       z     vdW  Elec       q    Type
REMARK                         _______ _______ _______ _____ _____    ______ ____
ROOT
ATOM      1  CA  GLY A  1       30.490 -18.145   9.515  0.00  0.00    +0.199 C 
ENDROOT
BRANCH   1   2
ATOM      2  N   GLY A  1       30.681 -18.377  10.973  0.00  0.00    -0.321 NA
ATOM      3  H1  GLY A  1       31.613 -18.785  11.102  0.00  0.00    +0.119 HD
ATOM      4  H2  GLY A  1       30.749 -17.459  11.423  0.00  0.00    +0.119 HD
ENDBRANCH   1   2
BRANCH   1   5
ATOM      5  C   GLY A  1       31.610 -18.838   8.743  0.00  0.00    +0.319 C 
ATOM      6  O   GLY A  1       32.073 -18.451   7.682  0.00  0.00    -0.250 OA
BRANCH   5   7
ATOM      7  OXT GLY A  1       32.012 -19.973   9.371  0.00  0.00    -0.480 OA
ATOM      8  HXT GLY A  1       32.999 -19.917   9.418  0.00  0.00    +0.295 HD
ENDBRANCH   5   7
ENDBRANCH   1   5
TORSDOF 3
ENDMDL
