MODEL 1
REMARK VINA RESULT:      12.2      0.000      0.000
REMARK  Name = *****
REMARK                            x       y       z     vdW  Elec       q    Type
REMARK                         _______ _______ _______ _____ _____    ______ ____
ROOT
ATOM      1  N   LIG    1       27.665 -14.932   3.362  0.00  0.00    -0.297 NA
ATOM      2  C   LIG    1       28.541 -15.937   4.002  0.00  0.00    +0.089 C 
ATOM      3  C   LIG    1       27.841 -16.807   5.057  0.00  0.00    +0.047 C 
ATOM      4  C   LIG    1       26.627 -17.518   4.472  0.00  0.00    -0.057 C 
ATOM      5  C   LIG    1       26.382 -18.852   4.597  0.00  0.00    +0.007 C 
ATOM      6  C   LIG    1       27.322 -19.741   5.332  0.00  0.00    +0.075 A 
ATOM      7  C   LIG    1       26.933 -20.490   6.451  0.00  0.00    -0.021 A 
ATOM      8  C   LIG    1       27.912 -21.313   7.037  0.00  0.00    +0.007 A 
ATOM      9  C   LIG    1       29.196 -21.371   6.509  0.00  0.00    +0.020 A 
ATOM     10  C   LIG    1       29.474 -20.609   5.392  0.00  0.00    +0.111 A 
ATOM     11  C   LIG    1       25.546 -20.535   7.062  0.00  0.00    +0.042 C 
ATOM     12  C   LIG    1       24.464 -19.556   6.584  0.00  0.00    +0.040 C 
ATOM     13  C   LIG    1       24.130 -19.742   5.123  0.00  0.00    -0.038 A 
ATOM     14  C   LIG    1       22.898 -20.280   4.725  0.00  0.00    +0.024 A 
ATOM     15  C   LIG    1       22.637 -20.494   3.370  0.00  0.00    +0.041 A 
ATOM     16 CL   LIG    1       21.124 -21.158   2.892  0.00  0.00    -0.084 Cl
ATOM     17  C   LIG    1       23.594 -20.186   2.405  0.00  0.00    +0.020 A 
ATOM     18  C   LIG    1       24.823 -19.649   2.792  0.00  0.00    +0.010 A 
ATOM     19  N   LIG    1       28.571 -19.807   4.795  0.00  0.00    -0.255 NA
ATOM     20  C   LIG    1       25.086 -19.407   4.146  0.00  0.00    -0.013 A 
ATOM     21  C   LIG    1       25.712 -16.520   3.770  0.00  0.00    +0.047 C 
ATOM     22  C   LIG    1       26.492 -15.622   2.785  0.00  0.00    +0.089 C 
ENDROOT
BRANCH   1  23
ATOM     23  C   LIG    1       27.247 -13.849   4.272  0.00  0.00    +0.121 C 
BRANCH  23  27
ATOM     24  C   LIG    1       22.890 -11.491   5.304  0.00  0.00    +0.045 C 
ATOM     25  C   LIG    1       23.918 -11.978   4.333  0.00  0.00    -0.032 A 
ATOM     26  C   LIG    1       25.065 -12.644   4.772  0.00  0.00    +0.011 A 
ATOM     27  C   LIG    1       25.994 -13.127   3.845  0.00  0.00    -0.015 A 
ATOM     28  C   LIG    1       25.722 -12.910   2.498  0.00  0.00    +0.115 A 
ATOM     29  N   LIG    1       24.622 -12.277   2.034  0.00  0.00    -0.263 NA
ATOM     30  C   LIG    1       23.745 -11.833   2.961  0.00  0.00    +0.114 A 
ENDBRANCH  23  27
ENDBRANCH   1  23
TORSDOF 2
ENDMDL
