MODEL 1
REMARK VINA RESULT:       4.2      0.000      0.000
REMARK  Name = *****
REMARK                            x       y       z     vdW  Elec       q    Type
REMARK                         _______ _______ _______ _____ _____    ______ ____
ROOT
ATOM      1  P   LIG    1       25.331 -18.988   3.911  0.00  0.00    +0.216 P 
ATOM      2  O   LIG    1       24.376 -18.865   5.061  0.00  0.00    -0.290 OA
ENDROOT
BRANCH   1   3
ATOM      3  C   LIG    1       25.556 -17.478   2.997  0.00  0.00    +0.193 C 
BRANCH   3   4
ATOM      4  C   LIG    1       25.121 -16.194   3.680  0.00  0.00    +0.226 C 
ATOM      5  N   LIG    1       25.615 -15.010   3.183  0.00  0.00    -0.287 N 
ATOM      6  C   LIG    1       25.129 -13.683   3.560  0.00  0.00    +0.185 C 
ATOM      7  C   LIG    1       26.279 -12.729   3.169  0.00  0.00    +0.039 C 
ATOM      8  C   LIG    1       27.370 -13.598   2.504  0.00  0.00    +0.012 C 
ATOM      9  C   LIG    1       26.616 -14.879   2.157  0.00  0.00    +0.112 C 
ATOM     10  O   LIG    1       24.280 -16.197   4.586  0.00  0.00    -0.275 OA
BRANCH   8  11
ATOM     11  C   LIG    1       28.580 -13.826   3.454  0.00  0.00    -0.006 C 
ATOM     12  C   LIG    1       29.332 -12.541   3.814  0.00  0.00    +0.004 C 
ATOM     13  C   LIG    1       28.631 -11.635   4.813  0.00  0.00    +0.000 C 
ATOM     14  C   LIG    1       28.351 -12.397   6.095  0.00  0.00    +0.000 C 
ATOM     15  C   LIG    1       27.540 -13.656   5.811  0.00  0.00    +0.000 C 
ATOM     16  C   LIG    1       28.203 -14.552   4.762  0.00  0.00    +0.004 C 
ENDBRANCH   8  11
BRANCH   6  17
ATOM     17  C   LIG    1       23.876 -13.305   2.733  0.00  0.00    +0.326 C 
ATOM     18  O   LIG    1       22.795 -13.856   2.822  0.00  0.00    -0.249 OA
BRANCH  17  19
ATOM     19  O   LIG    1       24.064 -12.229   1.926  0.00  0.00    -0.479 OA
ATOM     20  H   LIG    1       24.998 -11.989   1.789  0.00  0.00    +0.295 HD
ENDBRANCH  17  19
ENDBRANCH   6  17
ENDBRANCH   3   4
ENDBRANCH   1   3
BRANCH   1  21
ATOM     21  O   LIG    1       26.836 -19.455   4.341  0.00  0.00    -0.286 OA
BRANCH  21  22
ATOM     22  C   LIG    1       27.328 -19.165   5.660  0.00  0.00    +0.320 C 
BRANCH  22  23
ATOM     23  C   LIG    1       28.887 -19.096   5.715  0.00  0.00    +0.052 C 
ATOM     24  C   LIG    1       29.458 -20.283   6.502  0.00  0.00    +0.013 C 
ATOM     25  C   LIG    1       29.474 -17.782   6.253  0.00  0.00    +0.013 C 
ENDBRANCH  22  23
BRANCH  22  26
ATOM     26  O   LIG    1       26.872 -20.159   6.574  0.00  0.00    -0.434 OA
BRANCH  26  27
ATOM     27  C   LIG    1       26.034 -21.101   6.007  0.00  0.00    +0.309 C 
ATOM     28  O   LIG    1       26.124 -21.544   4.878  0.00  0.00    -0.251 OA
BRANCH  27  30
ATOM     29  C   LIG    1       23.705 -20.915   6.932  0.00  0.00    +0.015 C 
ATOM     30  C   LIG    1       25.046 -21.571   7.061  0.00  0.00    +0.117 C 
ENDBRANCH  27  30
ENDBRANCH  26  27
ENDBRANCH  22  26
ENDBRANCH  21  22
ENDBRANCH   1  21
BRANCH   1  31
ATOM     31  C   LIG    1       24.786 -20.164   2.687  0.00  0.00    +0.098 C 
BRANCH  31  32
ATOM     32  C   LIG    1       23.356 -20.667   2.753  0.00  0.00    +0.010 C 
BRANCH  32  33
ATOM     33  C   LIG    1       23.179 -21.461   4.055  0.00  0.00    +0.005 C 
BRANCH  33  34
ATOM     34  C   LIG    1       21.860 -21.159   4.766  0.00  0.00    +0.035 C 
BRANCH  34  35
ATOM     35  C   LIG    1       21.188 -19.912   4.231  0.00  0.00    -0.047 A 
ATOM     36  C   LIG    1       21.754 -18.646   4.441  0.00  0.00    +0.003 A 
ATOM     37  C   LIG    1       21.134 -17.496   3.944  0.00  0.00    +0.000 A 
ATOM     38  C   LIG    1       19.942 -17.597   3.230  0.00  0.00    +0.000 A 
ATOM     39  C   LIG    1       19.368 -18.848   3.015  0.00  0.00    +0.000 A 
ATOM     40  C   LIG    1       19.989 -19.999   3.510  0.00  0.00    +0.003 A 
ENDBRANCH  34  35
ENDBRANCH  33  34
ENDBRANCH  32  33
ENDBRANCH  31  32
ENDBRANCH   1  31
TORSDOF 16
ENDMDL
MODEL 2
REMARK VINA RESULT:       6.7      0.859      2.002
REMARK  Name = *****
REMARK                            x       y       z     vdW  Elec       q    Type
REMARK                         _______ _______ _______ _____ _____    ______ ____
ROOT
ATOM      1  P   LIG    1       25.193 -18.741   4.100  0.00  0.00    +0.216 P 
ATOM      2  O   LIG    1       24.415 -18.591   5.374  0.00  0.00    -0.290 OA
ENDROOT
BRANCH   1   3
ATOM      3  C   LIG    1       25.236 -17.266   3.105  0.00  0.00    +0.193 C 
BRANCH   3   4
ATOM      4  C   LIG    1       24.897 -15.961   3.802  0.00  0.00    +0.226 C 
ATOM      5  N   LIG    1       25.424 -14.804   3.276  0.00  0.00    -0.287 N 
ATOM      6  C   LIG    1       25.022 -13.454   3.669  0.00  0.00    +0.185 C 
ATOM      7  C   LIG    1       26.198 -12.558   3.220  0.00  0.00    +0.039 C 
ATOM      8  C   LIG    1       27.212 -13.482   2.509  0.00  0.00    +0.012 C 
ATOM      9  C   LIG    1       26.381 -14.725   2.203  0.00  0.00    +0.112 C 
ATOM     10  O   LIG    1       24.101 -15.920   4.747  0.00  0.00    -0.275 OA
BRANCH   8  11
ATOM     11  C   LIG    1       28.453 -13.766   3.401  0.00  0.00    -0.006 C 
ATOM     12  C   LIG    1       29.150 -12.501   3.911  0.00  0.00    +0.004 C 
ATOM     13  C   LIG    1       28.429 -11.766   5.029  0.00  0.00    +0.000 C 
ATOM     14  C   LIG    1       28.216 -12.699   6.207  0.00  0.00    +0.000 C 
ATOM     15  C   LIG    1       27.461 -13.952   5.777  0.00  0.00    +0.000 C 
ATOM     16  C   LIG    1       28.142 -14.671   4.611  0.00  0.00    +0.004 C 
ENDBRANCH   8  11
BRANCH   6  17
ATOM     17  C   LIG    1       23.752 -13.016   2.900  0.00  0.00    +0.326 C 
ATOM     18  O   LIG    1       23.452 -11.862   2.660  0.00  0.00    -0.249 OA
BRANCH  17  19
ATOM     19  O   LIG    1       23.012 -14.056   2.438  0.00  0.00    -0.479 OA
ATOM     20  H   LIG    1       22.109 -14.098   2.804  0.00  0.00    +0.295 HD
ENDBRANCH  17  19
ENDBRANCH   6  17
ENDBRANCH   3   4
ENDBRANCH   1   3
BRANCH   1  21
ATOM     21  O   LIG    1       26.758 -19.153   4.320  0.00  0.00    -0.286 OA
BRANCH  21  22
ATOM     22  C   LIG    1       27.091 -20.428   4.895  0.00  0.00    +0.320 C 
BRANCH  22  23
ATOM     23  C   LIG    1       26.530 -20.597   6.342  0.00  0.00    +0.052 C 
ATOM     24  C   LIG    1       25.342 -21.569   6.358  0.00  0.00    +0.013 C 
ATOM     25  C   LIG    1       26.146 -19.293   7.061  0.00  0.00    +0.013 C 
ENDBRANCH  22  23
BRANCH  22  26
ATOM     26  O   LIG    1       28.506 -20.592   4.920  0.00  0.00    -0.434 OA
BRANCH  26  27
ATOM     27  C   LIG    1       29.062 -20.473   6.181  0.00  0.00    +0.309 C 
ATOM     28  O   LIG    1       29.267 -21.387   6.956  0.00  0.00    -0.251 OA
BRANCH  27  30
ATOM     29  C   LIG    1       29.308 -18.186   5.168  0.00  0.00    +0.015 C 
ATOM     30  C   LIG    1       29.473 -19.027   6.398  0.00  0.00    +0.117 C 
ENDBRANCH  27  30
ENDBRANCH  26  27
ENDBRANCH  22  26
ENDBRANCH  21  22
ENDBRANCH   1  21
BRANCH   1  31
ATOM     31  C   LIG    1       24.510 -19.980   3.017  0.00  0.00    +0.098 C 
BRANCH  31  32
ATOM     32  C   LIG    1       24.133 -21.328   3.606  0.00  0.00    +0.010 C 
BRANCH  32  33
ATOM     33  C   LIG    1       23.661 -21.114   5.051  0.00  0.00    +0.005 C 
BRANCH  33  34
ATOM     34  C   LIG    1       22.144 -21.217   5.206  0.00  0.00    +0.035 C 
BRANCH  34  35
ATOM     35  C   LIG    1       21.414 -20.088   4.509  0.00  0.00    -0.047 A 
ATOM     36  C   LIG    1       21.961 -18.797   4.469  0.00  0.00    +0.003 A 
ATOM     37  C   LIG    1       21.287 -17.757   3.823  0.00  0.00    +0.000 A 
ATOM     38  C   LIG    1       20.060 -17.994   3.207  0.00  0.00    +0.000 A 
ATOM     39  C   LIG    1       19.505 -19.271   3.240  0.00  0.00    +0.000 A 
ATOM     40  C   LIG    1       20.179 -20.313   3.884  0.00  0.00    +0.003 A 
ENDBRANCH  34  35
ENDBRANCH  33  34
ENDBRANCH  32  33
ENDBRANCH  31  32
ENDBRANCH   1  31
TORSDOF 16
ENDMDL
