MODEL 1
REMARK VINA RESULT:      -1.6      0.000      0.000
REMARK  Name = *****
REMARK                            x       y       z     vdW  Elec       q    Type
REMARK                         _______ _______ _______ _____ _____    ______ ____
ROOT
ATOM      1  C   LIG    1       25.433 -19.635   3.335  0.00  0.00    +0.112 C 
ATOM      2  C   LIG    1       23.904 -19.574   3.518  0.00  0.00    +0.101 C 
ATOM      3  N   LIG    1       23.535 -18.703   4.649  0.00  0.00    -0.297 NA
ATOM      4  C   LIG    1       22.118 -18.830   4.976  0.00  0.00    +0.105 C 
ATOM      5  C   LIG    1       23.982 -17.295   4.439  0.00  0.00    +0.091 C 
ATOM      6  C   LIG    1       25.412 -17.204   3.829  0.00  0.00    -0.025 C 
ATOM      7  C   LIG    1       25.964 -15.841   3.674  0.00  0.00    -0.011 C 
ATOM      8  C   LIG    1       24.975 -14.858   3.507  0.00  0.00    +0.011 C 
ATOM      9  C   LIG    1       23.566 -14.998   3.498  0.00  0.00    -0.020 C 
ATOM     10  C   LIG    1       23.035 -13.746   3.296  0.00  0.00    +0.090 C 
ATOM     11  N   LIG    1       24.088 -12.863   3.172  0.00  0.00    -0.349 NA
ATOM     12  C   LIG    1       23.945 -11.447   2.924  0.00  0.00    +0.149 C 
ATOM     13  C   LIG    1       25.293 -13.524   3.307  0.00  0.00    +0.050 C 
ATOM     14  C   LIG    1       26.629 -13.102   3.269  0.00  0.00    +0.026 C 
ATOM     15  C   LIG    1       27.620 -14.084   3.439  0.00  0.00    +0.003 C 
ATOM     16  C   LIG    1       27.299 -15.435   3.635  0.00  0.00    +0.009 C 
ATOM     17  C   LIG    1       22.961 -16.349   3.699  0.00  0.00    +0.060 C 
ATOM     18  C   LIG    1       26.074 -18.278   3.359  0.00  0.00    -0.007 C 
ENDROOT
BRANCH   1  21
ATOM     19  N   LIG    1       27.362 -20.161   4.769  0.00  0.00    -0.310 N 
ATOM     20  H   LIG    1       27.751 -19.329   4.324  0.00  0.00    +0.149 HD
ATOM     21  C   LIG    1       26.107 -20.553   4.360  0.00  0.00    +0.221 C 
ATOM     22  O   LIG    1       25.559 -21.554   4.798  0.00  0.00    -0.275 OA
BRANCH  19  23
ATOM     23  CA  LIG    1       28.122 -20.845   5.812  0.00  0.00    +0.098 C 
BRANCH  23  25
ATOM     24  C   LIG    1       29.276 -18.565   5.726  0.00  0.00    +0.005 C 
ATOM     25  C   LIG    1       29.348 -20.007   6.212  0.00  0.00    +0.021 C 
ENDBRANCH  23  25
BRANCH  23  26
ATOM     26  C   LIG    1       27.243 -21.100   7.062  0.00  0.00    +0.177 C 
BRANCH  26  27
ATOM     27  O   LIG    1       26.016 -20.375   7.062  0.00  0.00    -0.393 OA
ATOM     28  H   LIG    1       25.311 -20.982   7.354  0.00  0.00    +0.209 HD
ENDBRANCH  26  27
ENDBRANCH  23  26
ENDBRANCH  19  23
ENDBRANCH   1  21
TORSDOF 5
ENDMDL
