MODEL 1
REMARK VINA RESULT:      -8.0      0.000      0.000
REMARK  Name = *****
REMARK                            x       y       z     vdW  Elec       q    Type
REMARK                         _______ _______ _______ _____ _____    ______ ____
ROOT
ATOM      1  C   LIG    1       30.496 -20.177   7.684  0.00  0.00    +0.121 C 
ATOM      2  C   LIG    1       29.284 -20.869   7.824  0.00  0.00    +0.056 C 
ATOM      3  C   LIG    1       28.220 -20.597   6.935  0.00  0.00    +0.006 C 
ATOM      4  C   LIG    1       28.447 -19.714   5.880  0.00  0.00    +0.047 C 
ATOM      5  N   LIG    1       27.303 -19.675   5.123  0.00  0.00    -0.360 NA
ATOM      6  H   LIG    1       27.203 -19.139   4.271  0.00  0.00    +0.165 HD
ATOM      7  C   LIG    1       26.325 -20.428   5.711  0.00  0.00    +0.087 C 
ATOM      8  C   LIG    1       29.652 -19.037   5.703  0.00  0.00    +0.030 C 
ATOM      9  C   LIG    1       26.845 -20.997   6.860  0.00  0.00    -0.021 C 
ATOM     10  C   LIG    1       30.659 -19.265   6.639  0.00  0.00    +0.048 C 
ENDROOT
BRANCH   1  12
ATOM     11  C   LIG    1       31.437 -21.769   9.153  0.00  0.00    +0.277 C 
ATOM     12  O   LIG    1       31.454 -20.442   8.631  0.00  0.00    -0.495 OA
ENDBRANCH   1  12
BRANCH   9  13
ATOM     13  C   LIG    1       26.106 -21.852   7.847  0.00  0.00    +0.056 C 
BRANCH  13  14
ATOM     14  C   LIG    1       24.800 -22.445   7.295  0.00  0.00    +0.109 C 
BRANCH  14  15
ATOM     15  N   LIG    1       24.921 -23.787   6.752  0.00  0.00    -0.315 N 
ATOM     16  H   LIG    1       25.824 -24.063   6.386  0.00  0.00    +0.149 HD
ATOM     17  C   LIG    1       23.829 -24.591   6.517  0.00  0.00    +0.210 C 
ATOM     18  O   LIG    1       22.679 -24.261   6.750  0.00  0.00    -0.276 OA
ATOM     19  C   LIG    1       24.185 -25.965   6.000  0.00  0.00    +0.109 C 
ENDBRANCH  14  15
ENDBRANCH  13  14
ENDBRANCH   9  13
TORSDOF 4
ENDMDL
MODEL 2
REMARK VINA RESULT:      -7.9      2.559      7.082
REMARK  Name = *****
REMARK                            x       y       z     vdW  Elec       q    Type
REMARK                         _______ _______ _______ _____ _____    ______ ____
ROOT
ATOM      1  C   LIG    1       24.010 -20.274   5.317  0.00  0.00    +0.121 C 
ATOM      2  C   LIG    1       25.409 -20.267   5.420  0.00  0.00    +0.056 C 
ATOM      3  C   LIG    1       26.022 -20.710   6.614  0.00  0.00    +0.006 C 
ATOM      4  C   LIG    1       25.212 -21.235   7.620  0.00  0.00    +0.047 C 
ATOM      5  N   LIG    1       26.035 -21.662   8.631  0.00  0.00    -0.360 NA
ATOM      6  H   LIG    1       25.712 -22.120   9.472  0.00  0.00    +0.165 HD
ATOM      7  C   LIG    1       27.334 -21.342   8.345  0.00  0.00    +0.087 C 
ATOM      8  C   LIG    1       23.822 -21.280   7.528  0.00  0.00    +0.030 C 
ATOM      9  C   LIG    1       27.367 -20.719   7.110  0.00  0.00    -0.021 C 
ATOM     10  C   LIG    1       23.239 -20.765   6.372  0.00  0.00    +0.048 C 
ENDROOT
BRANCH   1  12
ATOM     11  C   LIG    1       22.508 -18.738   4.334  0.00  0.00    +0.277 C 
ATOM     12  O   LIG    1       23.489 -19.758   4.156  0.00  0.00    -0.495 OA
ENDBRANCH   1  12
BRANCH   9  13
ATOM     13  C   LIG    1       28.577 -20.147   6.430  0.00  0.00    +0.056 C 
BRANCH  13  14
ATOM     14  C   LIG    1       29.866 -20.268   7.257  0.00  0.00    +0.109 C 
BRANCH  14  15
ATOM     15  N   LIG    1       30.428 -19.003   7.698  0.00  0.00    -0.315 N 
ATOM     16  H   LIG    1       30.160 -18.170   7.189  0.00  0.00    +0.149 HD
ATOM     17  C   LIG    1       31.458 -18.929   8.609  0.00  0.00    +0.210 C 
ATOM     18  O   LIG    1       31.975 -19.901   9.131  0.00  0.00    -0.276 OA
ATOM     19  C   LIG    1       31.853 -17.515   8.966  0.00  0.00    +0.109 C 
ENDBRANCH  14  15
ENDBRANCH  13  14
ENDBRANCH   9  13
TORSDOF 4
ENDMDL
MODEL 3
REMARK VINA RESULT:      -7.9      1.957      6.725
REMARK  Name = *****
REMARK                            x       y       z     vdW  Elec       q    Type
REMARK                         _______ _______ _______ _____ _____    ______ ____
ROOT
ATOM      1  C   LIG    1       24.630 -24.505   6.545  0.00  0.00    +0.121 C 
ATOM      2  C   LIG    1       25.819 -23.863   6.922  0.00  0.00    +0.056 C 
ATOM      3  C   LIG    1       25.773 -22.530   7.387  0.00  0.00    +0.006 C 
ATOM      4  C   LIG    1       24.527 -21.926   7.550  0.00  0.00    +0.047 C 
ATOM      5  N   LIG    1       24.739 -20.678   8.080  0.00  0.00    -0.360 NA
ATOM      6  H   LIG    1       24.002 -20.035   8.334  0.00  0.00    +0.165 HD
ATOM      7  C   LIG    1       26.081 -20.430   8.171  0.00  0.00    +0.087 C 
ATOM      8  C   LIG    1       23.330 -22.555   7.211  0.00  0.00    +0.030 C 
ATOM      9  C   LIG    1       26.763 -21.546   7.721  0.00  0.00    -0.021 C 
ATOM     10  C   LIG    1       23.409 -23.842   6.681  0.00  0.00    +0.048 C 
ENDROOT
BRANCH   1  12
ATOM     11  C   LIG    1       26.111 -26.212   5.858  0.00  0.00    +0.277 C 
ATOM     12  O   LIG    1       24.766 -25.771   6.032  0.00  0.00    -0.495 OA
ENDBRANCH   1  12
BRANCH   9  13
ATOM     13  C   LIG    1       28.251 -21.693   7.590  0.00  0.00    +0.056 C 
BRANCH  13  14
ATOM     14  C   LIG    1       28.950 -20.435   7.054  0.00  0.00    +0.109 C 
BRANCH  14  15
ATOM     15  N   LIG    1       29.638 -19.643   8.060  0.00  0.00    -0.315 N 
ATOM     16  H   LIG    1       29.071 -19.190   8.765  0.00  0.00    +0.149 HD
ATOM     17  C   LIG    1       30.971 -19.313   7.957  0.00  0.00    +0.210 C 
ATOM     18  O   LIG    1       31.688 -19.658   7.034  0.00  0.00    -0.276 OA
ATOM     19  C   LIG    1       31.496 -18.531   9.138  0.00  0.00    +0.109 C 
ENDBRANCH  14  15
ENDBRANCH  13  14
ENDBRANCH   9  13
TORSDOF 4
ENDMDL
MODEL 4
REMARK VINA RESULT:      -7.7      1.331      1.544
REMARK  Name = *****
REMARK                            x       y       z     vdW  Elec       q    Type
REMARK                         _______ _______ _______ _____ _____    ______ ____
ROOT
ATOM      1  C   LIG    1       28.965 -20.175   7.670  0.00  0.00    +0.121 C 
ATOM      2  C   LIG    1       27.738 -20.854   7.708  0.00  0.00    +0.056 C 
ATOM      3  C   LIG    1       26.826 -20.706   6.638  0.00  0.00    +0.006 C 
ATOM      4  C   LIG    1       27.222 -19.962   5.528  0.00  0.00    +0.047 C 
ATOM      5  N   LIG    1       26.209 -20.028   4.605  0.00  0.00    -0.360 NA
ATOM      6  H   LIG    1       26.247 -19.606   3.687  0.00  0.00    +0.165 HD
ATOM      7  C   LIG    1       25.144 -20.710   5.126  0.00  0.00    +0.087 C 
ATOM      8  C   LIG    1       28.448 -19.303   5.455  0.00  0.00    +0.030 C 
ATOM      9  C   LIG    1       25.474 -21.124   6.404  0.00  0.00    -0.021 C 
ATOM     10  C   LIG    1       29.296 -19.402   6.556  0.00  0.00    +0.048 C 
ENDROOT
BRANCH   1  12
ATOM     11  C   LIG    1       31.099 -19.838   8.624  0.00  0.00    +0.277 C 
ATOM     12  O   LIG    1       29.762 -20.310   8.779  0.00  0.00    -0.495 OA
ENDBRANCH   1  12
BRANCH   9  13
ATOM     13  C   LIG    1       24.583 -21.854   7.366  0.00  0.00    +0.056 C 
BRANCH  13  14
ATOM     14  C   LIG    1       23.454 -22.642   6.684  0.00  0.00    +0.109 C 
BRANCH  14  15
ATOM     15  N   LIG    1       23.572 -24.087   6.784  0.00  0.00    -0.315 N 
ATOM     16  H   LIG    1       23.180 -24.533   7.604  0.00  0.00    +0.149 HD
ATOM     17  C   LIG    1       24.374 -24.823   5.942  0.00  0.00    +0.210 C 
ATOM     18  O   LIG    1       25.038 -24.341   5.041  0.00  0.00    -0.276 OA
ATOM     19  C   LIG    1       24.309 -26.313   6.187  0.00  0.00    +0.109 C 
ENDBRANCH  14  15
ENDBRANCH  13  14
ENDBRANCH   9  13
TORSDOF 4
ENDMDL
MODEL 5
REMARK VINA RESULT:      -7.7      2.893      5.034
REMARK  Name = *****
REMARK                            x       y       z     vdW  Elec       q    Type
REMARK                         _______ _______ _______ _____ _____    ______ ____
ROOT
ATOM      1  C   LIG    1       25.939 -21.364   7.472  0.00  0.00    +0.121 C 
ATOM      2  C   LIG    1       26.200 -22.678   7.058  0.00  0.00    +0.056 C 
ATOM      3  C   LIG    1       25.123 -23.558   6.812  0.00  0.00    +0.006 C 
ATOM      4  C   LIG    1       23.824 -23.056   6.896  0.00  0.00    +0.047 C 
ATOM      5  N   LIG    1       22.968 -24.069   6.543  0.00  0.00    -0.360 NA
ATOM      6  H   LIG    1       21.964 -23.969   6.482  0.00  0.00    +0.165 HD
ATOM      7  C   LIG    1       23.669 -25.223   6.330  0.00  0.00    +0.087 C 
ATOM      8  C   LIG    1       23.541 -21.746   7.276  0.00  0.00    +0.030 C 
ATOM      9  C   LIG    1       25.014 -24.957   6.517  0.00  0.00    -0.021 C 
ATOM     10  C   LIG    1       24.621 -20.921   7.588  0.00  0.00    +0.048 C 
ENDROOT
BRANCH   1  12
ATOM     11  C   LIG    1       28.295 -21.255   7.619  0.00  0.00    +0.277 C 
ATOM     12  O   LIG    1       27.039 -20.594   7.763  0.00  0.00    -0.495 OA
ENDBRANCH   1  12
BRANCH   9  13
ATOM     13  C   LIG    1       26.140 -25.947   6.442  0.00  0.00    +0.056 C 
BRANCH  13  14
ATOM     14  C   LIG    1       26.155 -26.767   5.143  0.00  0.00    +0.109 C 
BRANCH  14  15
ATOM     15  N   LIG    1       26.233 -28.206   5.331  0.00  0.00    -0.315 N 
ATOM     16  H   LIG    1       27.140 -28.643   5.227  0.00  0.00    +0.149 HD
ATOM     17  C   LIG    1       25.113 -29.002   5.418  0.00  0.00    +0.210 C 
ATOM     18  O   LIG    1       23.972 -28.578   5.359  0.00  0.00    -0.276 OA
ATOM     19  C   LIG    1       25.420 -30.460   5.667  0.00  0.00    +0.109 C 
ENDBRANCH  14  15
ENDBRANCH  13  14
ENDBRANCH   9  13
TORSDOF 4
ENDMDL
MODEL 6
REMARK VINA RESULT:      -7.7      1.815      6.628
REMARK  Name = *****
REMARK                            x       y       z     vdW  Elec       q    Type
REMARK                         _______ _______ _______ _____ _____    ______ ____
ROOT
ATOM      1  C   LIG    1       23.910 -21.818   6.320  0.00  0.00    +0.121 C 
ATOM      2  C   LIG    1       25.108 -21.560   7.004  0.00  0.00    +0.056 C 
ATOM      3  C   LIG    1       26.141 -20.849   6.354  0.00  0.00    +0.006 C 
ATOM      4  C   LIG    1       25.896 -20.340   5.080  0.00  0.00    +0.047 C 
ATOM      5  N   LIG    1       27.009 -19.633   4.698  0.00  0.00    -0.360 NA
ATOM      6  H   LIG    1       27.088 -19.125   3.827  0.00  0.00    +0.165 HD
ATOM      7  C   LIG    1       27.989 -19.753   5.644  0.00  0.00    +0.087 C 
ATOM      8  C   LIG    1       24.704 -20.558   4.392  0.00  0.00    +0.030 C 
ATOM      9  C   LIG    1       27.501 -20.529   6.680  0.00  0.00    -0.021 C 
ATOM     10  C   LIG    1       23.730 -21.328   5.026  0.00  0.00    +0.048 C 
ENDROOT
BRANCH   1  12
ATOM     11  C   LIG    1       23.084 -23.985   6.772  0.00  0.00    +0.277 C 
ATOM     12  O   LIG    1       22.986 -22.579   6.992  0.00  0.00    -0.495 OA
ENDBRANCH   1  12
BRANCH   9  13
ATOM     13  C   LIG    1       28.256 -20.966   7.902  0.00  0.00    +0.056 C 
BRANCH  13  14
ATOM     14  C   LIG    1       29.769 -20.713   7.816  0.00  0.00    +0.109 C 
BRANCH  14  15
ATOM     15  N   LIG    1       30.197 -19.408   8.292  0.00  0.00    -0.315 N 
ATOM     16  H   LIG    1       29.684 -18.600   7.963  0.00  0.00    +0.149 HD
ATOM     17  C   LIG    1       31.378 -19.221   8.973  0.00  0.00    +0.210 C 
ATOM     18  O   LIG    1       32.156 -20.118   9.246  0.00  0.00    -0.276 OA
ATOM     19  C   LIG    1       31.602 -17.795   9.422  0.00  0.00    +0.109 C 
ENDBRANCH  14  15
ENDBRANCH  13  14
ENDBRANCH   9  13
TORSDOF 4
ENDMDL
MODEL 7
REMARK VINA RESULT:      -7.6      1.814      6.350
REMARK  Name = *****
REMARK                            x       y       z     vdW  Elec       q    Type
REMARK                         _______ _______ _______ _____ _____    ______ ____
ROOT
ATOM      1  C   LIG    1       25.443 -24.923   6.545  0.00  0.00    +0.121 C 
ATOM      2  C   LIG    1       25.990 -23.730   7.040  0.00  0.00    +0.056 C 
ATOM      3  C   LIG    1       25.145 -22.623   7.279  0.00  0.00    +0.006 C 
ATOM      4  C   LIG    1       23.771 -22.788   7.106  0.00  0.00    +0.047 C 
ATOM      5  N   LIG    1       23.166 -21.611   7.469  0.00  0.00    -0.360 NA
ATOM      6  H   LIG    1       22.166 -21.465   7.476  0.00  0.00    +0.165 HD
ATOM      7  C   LIG    1       24.112 -20.673   7.778  0.00  0.00    +0.087 C 
ATOM      8  C   LIG    1       23.202 -23.973   6.643  0.00  0.00    +0.030 C 
ATOM      9  C   LIG    1       25.361 -21.253   7.643  0.00  0.00    -0.021 C 
ATOM     10  C   LIG    1       24.066 -25.024   6.341  0.00  0.00    +0.048 C 
ENDROOT
BRANCH   1  12
ATOM     11  C   LIG    1       25.977 -26.777   5.182  0.00  0.00    +0.277 C 
ATOM     12  O   LIG    1       26.339 -25.926   6.268  0.00  0.00    -0.495 OA
ENDBRANCH   1  12
BRANCH   9  13
ATOM     13  C   LIG    1       26.686 -20.573   7.825  0.00  0.00    +0.056 C 
BRANCH  13  14
ATOM     14  C   LIG    1       27.618 -20.701   6.610  0.00  0.00    +0.109 C 
BRANCH  14  15
ATOM     15  N   LIG    1       28.857 -19.948   6.709  0.00  0.00    -0.315 N 
ATOM     16  H   LIG    1       29.039 -19.250   5.999  0.00  0.00    +0.149 HD
ATOM     17  C   LIG    1       29.867 -20.297   7.578  0.00  0.00    +0.210 C 
ATOM     18  O   LIG    1       29.810 -21.246   8.340  0.00  0.00    -0.276 OA
ATOM     19  C   LIG    1       31.042 -19.348   7.557  0.00  0.00    +0.109 C 
ENDBRANCH  14  15
ENDBRANCH  13  14
ENDBRANCH   9  13
TORSDOF 4
ENDMDL
MODEL 8
REMARK VINA RESULT:      -7.4      3.010      3.833
REMARK  Name = *****
REMARK                            x       y       z     vdW  Elec       q    Type
REMARK                         _______ _______ _______ _____ _____    ______ ____
ROOT
ATOM      1  C   LIG    1       30.714 -17.287  10.091  0.00  0.00    +0.121 C 
ATOM      2  C   LIG    1       29.690 -18.153   9.682  0.00  0.00    +0.056 C 
ATOM      3  C   LIG    1       29.856 -18.921   8.508  0.00  0.00    +0.006 C 
ATOM      4  C   LIG    1       31.081 -18.864   7.845  0.00  0.00    +0.047 C 
ATOM      5  N   LIG    1       31.022 -19.745   6.794  0.00  0.00    -0.360 NA
ATOM      6  H   LIG    1       31.791 -19.932   6.165  0.00  0.00    +0.165 HD
ATOM      7  C   LIG    1       29.770 -20.290   6.708  0.00  0.00    +0.087 C 
ATOM      8  C   LIG    1       32.124 -18.033   8.250  0.00  0.00    +0.030 C 
ATOM      9  C   LIG    1       29.002 -19.780   7.739  0.00  0.00    -0.021 C 
ATOM     10  C   LIG    1       31.906 -17.229   9.367  0.00  0.00    +0.048 C 
ENDROOT
BRANCH   1  12
ATOM     11  C   LIG    1       31.580 -16.216  12.012  0.00  0.00    +0.277 C 
ATOM     12  O   LIG    1       30.447 -16.520  11.199  0.00  0.00    -0.495 OA
ENDBRANCH   1  12
BRANCH   9  13
ATOM     13  C   LIG    1       27.549 -20.060   7.994  0.00  0.00    +0.056 C 
BRANCH  13  14
ATOM     14  C   LIG    1       26.926 -21.045   6.992  0.00  0.00    +0.109 C 
BRANCH  14  15
ATOM     15  N   LIG    1       25.639 -20.635   6.455  0.00  0.00    -0.315 N 
ATOM     16  H   LIG    1       25.643 -19.975   5.687  0.00  0.00    +0.149 HD
ATOM     17  C   LIG    1       24.449 -20.927   7.081  0.00  0.00    +0.210 C 
ATOM     18  O   LIG    1       24.365 -21.557   8.121  0.00  0.00    -0.276 OA
ATOM     19  C   LIG    1       23.230 -20.454   6.324  0.00  0.00    +0.109 C 
ENDBRANCH  14  15
ENDBRANCH  13  14
ENDBRANCH   9  13
TORSDOF 4
ENDMDL
MODEL 9
REMARK VINA RESULT:      -7.4      1.839      2.342
REMARK  Name = *****
REMARK                            x       y       z     vdW  Elec       q    Type
REMARK                         _______ _______ _______ _____ _____    ______ ____
ROOT
ATOM      1  C   LIG    1       30.750 -20.344   8.059  0.00  0.00    +0.121 C 
ATOM      2  C   LIG    1       29.503 -20.958   7.872  0.00  0.00    +0.056 C 
ATOM      3  C   LIG    1       28.626 -20.466   6.879  0.00  0.00    +0.006 C 
ATOM      4  C   LIG    1       29.075 -19.440   6.048  0.00  0.00    +0.047 C 
ATOM      5  N   LIG    1       28.086 -19.193   5.129  0.00  0.00    -0.360 NA
ATOM      6  H   LIG    1       28.162 -18.519   4.379  0.00  0.00    +0.165 HD
ATOM      7  C   LIG    1       26.987 -19.959   5.405  0.00  0.00    +0.087 C 
ATOM      8  C   LIG    1       30.321 -18.835   6.195  0.00  0.00    +0.030 C 
ATOM      9  C   LIG    1       27.270 -20.745   6.507  0.00  0.00    -0.021 C 
ATOM     10  C   LIG    1       31.135 -19.288   7.232  0.00  0.00    +0.048 C 
ENDROOT
BRANCH   1  12
ATOM     11  C   LIG    1       31.271 -22.196   9.430  0.00  0.00    +0.277 C 
ATOM     12  O   LIG    1       31.512 -20.831   9.092  0.00  0.00    -0.495 OA
ENDBRANCH   1  12
BRANCH   9  13
ATOM     13  C   LIG    1       26.331 -21.695   7.192  0.00  0.00    +0.056 C 
BRANCH  13  14
ATOM     14  C   LIG    1       25.148 -22.135   6.315  0.00  0.00    +0.109 C 
BRANCH  14  15
ATOM     15  N   LIG    1       24.065 -21.170   6.224  0.00  0.00    -0.315 N 
ATOM     16  H   LIG    1       23.585 -20.925   7.081  0.00  0.00    +0.149 HD
ATOM     17  C   LIG    1       23.536 -20.763   5.020  0.00  0.00    +0.210 C 
ATOM     18  O   LIG    1       23.929 -21.159   3.936  0.00  0.00    -0.276 OA
ATOM     19  C   LIG    1       22.455 -19.717   5.153  0.00  0.00    +0.109 C 
ENDBRANCH  14  15
ENDBRANCH  13  14
ENDBRANCH   9  13
TORSDOF 4
ENDMDL
