MODEL 1
REMARK VINA RESULT:      -5.9      0.000      0.000
REMARK  Name = *****
REMARK                            x       y       z     vdW  Elec       q    Type
REMARK                         _______ _______ _______ _____ _____    ______ ____
ROOT
ATOM      1  O   LIG    1       25.446 -19.152   3.416  0.00  0.00    -0.486 OA
ENDROOT
BRANCH   1   3
ATOM      2  C   LIG    1       25.525 -20.256   5.540  0.00  0.00    +0.162 A 
ATOM      3  C   LIG    1       24.783 -19.741   4.461  0.00  0.00    +0.162 A 
ATOM      4  C   LIG    1       23.386 -19.866   4.474  0.00  0.00    +0.049 A 
ATOM      5  C   LIG    1       22.725 -20.441   5.562  0.00  0.00    +0.004 A 
ATOM      6  C   LIG    1       23.457 -20.919   6.642  0.00  0.00    +0.004 A 
ATOM      7  C   LIG    1       24.847 -20.822   6.630  0.00  0.00    +0.049 A 
BRANCH   2   8
ATOM      8  O   LIG    1       26.884 -20.210   5.722  0.00  0.00    -0.484 OA
BRANCH   8   9
ATOM      9  C   LIG    1       27.427 -20.982   6.789  0.00  0.00    +0.256 C 
BRANCH   9  11
ATOM     10  C   LIG    1       29.463 -19.510   6.693  0.00  0.00    +0.007 C 
ATOM     11  C   LIG    1       28.914 -20.713   6.845  0.00  0.00    +0.006 C 
ENDBRANCH   9  11
ENDBRANCH   8   9
ENDBRANCH   2   8
ENDBRANCH   1   3
BRANCH   1  12
ATOM     12  C   LIG    1       25.413 -17.719   3.322  0.00  0.00    +0.261 C 
BRANCH  12  13
ATOM     13  C   LIG    1       26.824 -17.114   3.312  0.00  0.00    +0.166 C 
BRANCH  13  14
ATOM     14  O   LIG    1       27.669 -17.818   4.240  0.00  0.00    -0.387 OA
ATOM     15  H   LIG    1       27.920 -18.664   3.835  0.00  0.00    +0.210 HD
ENDBRANCH  13  14
BRANCH  13  16
ATOM     16  C   LIG    1       26.870 -15.622   3.687  0.00  0.00    +0.115 C 
BRANCH  16  17
ATOM     17  N   LIG    1       26.093 -14.719   2.814  0.00  0.00    -0.311 NA
ATOM     18  H   LIG    1       25.433 -15.271   2.267  0.00  0.00    +0.122 HD
BRANCH  17  19
ATOM     19  C   LIG    1       25.302 -13.761   3.615  0.00  0.00    +0.048 C 
ATOM     20  C   LIG    1       26.100 -13.334   4.849  0.00  0.00    +0.024 C 
ATOM     21  C   LIG    1       23.964 -14.356   4.063  0.00  0.00    +0.024 C 
ENDBRANCH  17  19
ENDBRANCH  16  17
ENDBRANCH  13  16
ENDBRANCH  12  13
ENDBRANCH   1  12
TORSDOF 10
ENDMDL
MODEL 2
REMARK VINA RESULT:      -5.5      1.412      3.417
REMARK  Name = *****
REMARK                            x       y       z     vdW  Elec       q    Type
REMARK                         _______ _______ _______ _____ _____    ______ ____
ROOT
ATOM      1  O   LIG    1       25.836 -19.184   3.581  0.00  0.00    -0.486 OA
ENDROOT
BRANCH   1   3
ATOM      2  C   LIG    1       24.872 -20.769   5.095  0.00  0.00    +0.162 A 
ATOM      3  C   LIG    1       25.939 -19.930   4.726  0.00  0.00    +0.162 A 
ATOM      4  C   LIG    1       27.069 -19.860   5.555  0.00  0.00    +0.049 A 
ATOM      5  C   LIG    1       27.170 -20.651   6.702  0.00  0.00    +0.004 A 
ATOM      6  C   LIG    1       26.130 -21.505   7.046  0.00  0.00    +0.004 A 
ATOM      7  C   LIG    1       24.991 -21.565   6.244  0.00  0.00    +0.049 A 
BRANCH   2   8
ATOM      8  O   LIG    1       23.703 -20.991   4.411  0.00  0.00    -0.484 OA
BRANCH   8   9
ATOM      9  C   LIG    1       22.483 -20.732   5.100  0.00  0.00    +0.256 C 
BRANCH   9  11
ATOM     10  C   LIG    1       21.983 -18.417   4.254  0.00  0.00    +0.007 C 
ATOM     11  C   LIG    1       22.342 -19.233   5.242  0.00  0.00    +0.006 C 
ENDBRANCH   9  11
ENDBRANCH   8   9
ENDBRANCH   2   8
ENDBRANCH   1   3
BRANCH   1  12
ATOM     12  C   LIG    1       25.404 -17.819   3.705  0.00  0.00    +0.261 C 
BRANCH  12  13
ATOM     13  C   LIG    1       26.434 -16.838   3.127  0.00  0.00    +0.166 C 
BRANCH  13  14
ATOM     14  O   LIG    1       27.680 -16.956   3.837  0.00  0.00    -0.387 OA
ATOM     15  H   LIG    1       27.822 -17.895   4.039  0.00  0.00    +0.210 HD
ENDBRANCH  13  14
BRANCH  13  16
ATOM     16  C   LIG    1       26.002 -15.363   3.196  0.00  0.00    +0.115 C 
BRANCH  16  17
ATOM     17  N   LIG    1       26.970 -14.387   2.656  0.00  0.00    -0.311 NA
ATOM     18  H   LIG    1       26.571 -13.943   1.831  0.00  0.00    +0.122 HD
BRANCH  17  19
ATOM     19  C   LIG    1       27.245 -13.317   3.638  0.00  0.00    +0.048 C 
ATOM     20  C   LIG    1       28.756 -13.107   3.767  0.00  0.00    +0.024 C 
ATOM     21  C   LIG    1       26.663 -13.639   5.017  0.00  0.00    +0.024 C 
ENDBRANCH  17  19
ENDBRANCH  16  17
ENDBRANCH  13  16
ENDBRANCH  12  13
ENDBRANCH   1  12
TORSDOF 10
ENDMDL
MODEL 3
REMARK VINA RESULT:      -5.0      2.505      5.984
REMARK  Name = *****
REMARK                            x       y       z     vdW  Elec       q    Type
REMARK                         _______ _______ _______ _____ _____    ______ ____
ROOT
ATOM      1  O   LIG    1       25.946 -17.614   3.211  0.00  0.00    -0.486 OA
ENDROOT
BRANCH   1   3
ATOM      2  C   LIG    1       25.856 -15.231   3.419  0.00  0.00    +0.162 A 
ATOM      3  C   LIG    1       25.241 -16.489   3.548  0.00  0.00    +0.162 A 
ATOM      4  C   LIG    1       23.929 -16.558   4.041  0.00  0.00    +0.049 A 
ATOM      5  C   LIG    1       23.214 -15.398   4.350  0.00  0.00    +0.004 A 
ATOM      6  C   LIG    1       23.812 -14.154   4.190  0.00  0.00    +0.004 A 
ATOM      7  C   LIG    1       25.123 -14.074   3.723  0.00  0.00    +0.049 A 
BRANCH   2   8
ATOM      8  O   LIG    1       27.112 -14.955   2.938  0.00  0.00    -0.484 OA
BRANCH   8   9
ATOM      9  C   LIG    1       27.467 -13.584   2.785  0.00  0.00    +0.256 C 
BRANCH   9  11
ATOM     10  C   LIG    1       28.607 -12.418   4.699  0.00  0.00    +0.007 C 
ATOM     11  C   LIG    1       28.634 -13.304   3.705  0.00  0.00    +0.006 C 
ENDBRANCH   9  11
ENDBRANCH   8   9
ENDBRANCH   2   8
ENDBRANCH   1   3
BRANCH   1  12
ATOM     12  C   LIG    1       25.274 -18.881   3.304  0.00  0.00    +0.261 C 
BRANCH  12  13
ATOM     13  C   LIG    1       25.670 -19.647   4.574  0.00  0.00    +0.166 C 
BRANCH  13  14
ATOM     14  O   LIG    1       27.098 -19.822   4.620  0.00  0.00    -0.387 OA
ATOM     15  H   LIG    1       27.510 -19.013   4.277  0.00  0.00    +0.210 HD
ENDBRANCH  13  14
BRANCH  13  16
ATOM     16  C   LIG    1       25.030 -21.042   4.691  0.00  0.00    +0.115 C 
BRANCH  16  17
ATOM     17  N   LIG    1       23.681 -21.177   4.108  0.00  0.00    -0.311 NA
ATOM     18  H   LIG    1       23.553 -22.134   3.782  0.00  0.00    +0.122 HD
BRANCH  17  19
ATOM     19  C   LIG    1       22.638 -20.920   5.124  0.00  0.00    +0.048 C 
ATOM     20  C   LIG    1       22.200 -19.455   5.059  0.00  0.00    +0.024 C 
ATOM     21  C   LIG    1       23.126 -21.236   6.540  0.00  0.00    +0.024 C 
ENDBRANCH  17  19
ENDBRANCH  16  17
ENDBRANCH  13  16
ENDBRANCH  12  13
ENDBRANCH   1  12
TORSDOF 10
ENDMDL
MODEL 4
REMARK VINA RESULT:      -4.9      1.423      3.448
REMARK  Name = *****
REMARK                            x       y       z     vdW  Elec       q    Type
REMARK                         _______ _______ _______ _____ _____    ______ ____
ROOT
ATOM      1  O   LIG    1       26.384 -18.451   3.282  0.00  0.00    -0.486 OA
ENDROOT
BRANCH   1   3
ATOM      2  C   LIG    1       25.391 -20.128   4.673  0.00  0.00    +0.162 A 
ATOM      3  C   LIG    1       26.473 -19.284   4.366  0.00  0.00    +0.162 A 
ATOM      4  C   LIG    1       27.606 -19.301   5.194  0.00  0.00    +0.049 A 
ATOM      5  C   LIG    1       27.692 -20.179   6.277  0.00  0.00    +0.004 A 
ATOM      6  C   LIG    1       26.636 -21.036   6.558  0.00  0.00    +0.004 A 
ATOM      7  C   LIG    1       25.496 -21.012   5.758  0.00  0.00    +0.049 A 
BRANCH   2   8
ATOM      8  O   LIG    1       24.216 -20.274   3.978  0.00  0.00    -0.484 OA
BRANCH   8   9
ATOM      9  C   LIG    1       23.068 -20.688   4.713  0.00  0.00    +0.256 C 
BRANCH   9  11
ATOM     10  C   LIG    1       22.242 -18.338   4.372  0.00  0.00    +0.007 C 
ATOM     11  C   LIG    1       22.298 -19.447   5.105  0.00  0.00    +0.006 C 
ENDBRANCH   9  11
ENDBRANCH   8   9
ENDBRANCH   2   8
ENDBRANCH   1   3
BRANCH   1  12
ATOM     12  C   LIG    1       25.796 -17.154   3.478  0.00  0.00    +0.261 C 
BRANCH  12  13
ATOM     13  C   LIG    1       26.791 -16.025   3.176  0.00  0.00    +0.166 C 
BRANCH  13  14
ATOM     14  O   LIG    1       27.807 -15.976   4.194  0.00  0.00    -0.387 OA
ATOM     15  H   LIG    1       28.260 -15.120   4.124  0.00  0.00    +0.210 HD
ENDBRANCH  13  14
BRANCH  13  16
ATOM     16  C   LIG    1       26.149 -14.628   3.097  0.00  0.00    +0.115 C 
BRANCH  16  17
ATOM     17  N   LIG    1       25.797 -14.013   4.392  0.00  0.00    -0.311 NA
ATOM     18  H   LIG    1       26.396 -13.203   4.551  0.00  0.00    +0.122 HD
BRANCH  17  19
ATOM     19  C   LIG    1       24.401 -13.527   4.384  0.00  0.00    +0.048 C 
ATOM     20  C   LIG    1       23.438 -14.717   4.388  0.00  0.00    +0.024 C 
ATOM     21  C   LIG    1       24.106 -12.647   3.167  0.00  0.00    +0.024 C 
ENDBRANCH  17  19
ENDBRANCH  16  17
ENDBRANCH  13  16
ENDBRANCH  12  13
ENDBRANCH   1  12
TORSDOF 10
ENDMDL
MODEL 5
REMARK VINA RESULT:      -4.8      2.402      7.181
REMARK  Name = *****
REMARK                            x       y       z     vdW  Elec       q    Type
REMARK                         _______ _______ _______ _____ _____    ______ ____
ROOT
ATOM      1  O   LIG    1       25.650 -16.345   3.043  0.00  0.00    -0.486 OA
ENDROOT
BRANCH   1   3
ATOM      2  C   LIG    1       26.235 -14.055   2.656  0.00  0.00    +0.162 A 
ATOM      3  C   LIG    1       26.482 -15.286   3.292  0.00  0.00    +0.162 A 
ATOM      4  C   LIG    1       27.591 -15.400   4.145  0.00  0.00    +0.049 A 
ATOM      5  C   LIG    1       28.411 -14.302   4.411  0.00  0.00    +0.004 A 
ATOM      6  C   LIG    1       28.145 -13.078   3.809  0.00  0.00    +0.004 A 
ATOM      7  C   LIG    1       27.061 -12.958   2.941  0.00  0.00    +0.049 A 
BRANCH   2   8
ATOM      8  O   LIG    1       25.199 -13.739   1.814  0.00  0.00    -0.484 OA
BRANCH   8   9
ATOM      9  C   LIG    1       24.555 -12.483   2.012  0.00  0.00    +0.256 C 
BRANCH   9  11
ATOM     10  C   LIG    1       23.809 -11.570   4.232  0.00  0.00    +0.007 C 
ATOM     11  C   LIG    1       23.812 -12.546   3.327  0.00  0.00    +0.006 C 
ENDBRANCH   9  11
ENDBRANCH   8   9
ENDBRANCH   2   8
ENDBRANCH   1   3
BRANCH   1  12
ATOM     12  C   LIG    1       26.136 -17.665   3.335  0.00  0.00    +0.261 C 
BRANCH  12  13
ATOM     13  C   LIG    1       25.016 -18.713   3.276  0.00  0.00    +0.166 C 
BRANCH  13  14
ATOM     14  O   LIG    1       23.804 -18.173   3.833  0.00  0.00    -0.387 OA
ATOM     15  H   LIG    1       24.047 -17.593   4.573  0.00  0.00    +0.210 HD
ENDBRANCH  13  14
BRANCH  13  16
ATOM     16  C   LIG    1       25.333 -20.013   4.036  0.00  0.00    +0.115 C 
BRANCH  16  17
ATOM     17  N   LIG    1       26.583 -20.007   4.821  0.00  0.00    -0.311 NA
ATOM     18  H   LIG    1       26.781 -19.055   5.126  0.00  0.00    +0.122 HD
BRANCH  17  19
ATOM     19  C   LIG    1       26.448 -20.834   6.038  0.00  0.00    +0.048 C 
ATOM     20  C   LIG    1       25.080 -20.590   6.682  0.00  0.00    +0.024 C 
ATOM     21  C   LIG    1       27.546 -20.534   7.062  0.00  0.00    +0.024 C 
ENDBRANCH  17  19
ENDBRANCH  16  17
ENDBRANCH  13  16
ENDBRANCH  12  13
ENDBRANCH   1  12
TORSDOF 10
ENDMDL
MODEL 6
REMARK VINA RESULT:      -4.5      2.534      6.477
REMARK  Name = *****
REMARK                            x       y       z     vdW  Elec       q    Type
REMARK                         _______ _______ _______ _____ _____    ______ ____
ROOT
ATOM      1  O   LIG    1       25.334 -17.090   3.200  0.00  0.00    -0.486 OA
ENDROOT
BRANCH   1   3
ATOM      2  C   LIG    1       24.932 -14.811   3.813  0.00  0.00    +0.162 A 
ATOM      3  C   LIG    1       25.830 -15.860   3.541  0.00  0.00    +0.162 A 
ATOM      4  C   LIG    1       27.209 -15.609   3.604  0.00  0.00    +0.049 A 
ATOM      5  C   LIG    1       27.696 -14.357   3.984  0.00  0.00    +0.004 A 
ATOM      6  C   LIG    1       26.808 -13.332   4.286  0.00  0.00    +0.004 A 
ATOM      7  C   LIG    1       25.436 -13.561   4.203  0.00  0.00    +0.049 A 
BRANCH   2   8
ATOM      8  O   LIG    1       23.561 -14.862   3.827  0.00  0.00    -0.484 OA
BRANCH   8   9
ATOM      9  C   LIG    1       22.925 -15.008   5.095  0.00  0.00    +0.256 C 
BRANCH   9  11
ATOM     10  C   LIG    1       22.353 -17.388   4.520  0.00  0.00    +0.007 C 
ATOM     11  C   LIG    1       22.003 -16.203   5.014  0.00  0.00    +0.006 C 
ENDBRANCH   9  11
ENDBRANCH   8   9
ENDBRANCH   2   8
ENDBRANCH   1   3
BRANCH   1  12
ATOM     12  C   LIG    1       26.232 -18.211   3.239  0.00  0.00    +0.261 C 
BRANCH  12  13
ATOM     13  C   LIG    1       25.836 -19.223   4.325  0.00  0.00    +0.166 C 
BRANCH  13  14
ATOM     14  O   LIG    1       26.992 -19.963   4.755  0.00  0.00    -0.387 OA
ATOM     15  H   LIG    1       27.283 -19.598   5.606  0.00  0.00    +0.210 HD
ENDBRANCH  13  14
BRANCH  13  16
ATOM     16  C   LIG    1       24.776 -20.243   3.875  0.00  0.00    +0.115 C 
BRANCH  16  17
ATOM     17  N   LIG    1       24.775 -21.527   4.604  0.00  0.00    -0.311 NA
ATOM     18  H   LIG    1       25.652 -21.622   5.114  0.00  0.00    +0.122 HD
BRANCH  17  19
ATOM     19  C   LIG    1       23.684 -21.569   5.601  0.00  0.00    +0.048 C 
ATOM     20  C   LIG    1       22.457 -20.831   5.057  0.00  0.00    +0.024 C 
ATOM     21  C   LIG    1       24.100 -20.939   6.933  0.00  0.00    +0.024 C 
ENDBRANCH  17  19
ENDBRANCH  16  17
ENDBRANCH  13  16
ENDBRANCH  12  13
ENDBRANCH   1  12
TORSDOF 10
ENDMDL
MODEL 7
REMARK VINA RESULT:      -4.2      1.837      2.151
REMARK  Name = *****
REMARK                            x       y       z     vdW  Elec       q    Type
REMARK                         _______ _______ _______ _____ _____    ______ ____
ROOT
ATOM      1  O   LIG    1       24.548 -17.655   3.722  0.00  0.00    -0.486 OA
ENDROOT
BRANCH   1   3
ATOM      2  C   LIG    1       24.914 -19.825   4.666  0.00  0.00    +0.162 A 
ATOM      3  C   LIG    1       24.033 -18.816   4.235  0.00  0.00    +0.162 A 
ATOM      4  C   LIG    1       22.651 -19.039   4.320  0.00  0.00    +0.049 A 
ATOM      5  C   LIG    1       22.144 -20.216   4.874  0.00  0.00    +0.004 A 
ATOM      6  C   LIG    1       23.015 -21.197   5.331  0.00  0.00    +0.004 A 
ATOM      7  C   LIG    1       24.391 -20.998   5.230  0.00  0.00    +0.049 A 
BRANCH   2   8
ATOM      8  O   LIG    1       26.286 -19.789   4.687  0.00  0.00    -0.484 OA
BRANCH   8   9
ATOM      9  C   LIG    1       26.931 -20.126   5.912  0.00  0.00    +0.256 C 
BRANCH   9  11
ATOM     10  C   LIG    1       29.162 -19.003   6.198  0.00  0.00    +0.007 C 
ATOM     11  C   LIG    1       28.422 -19.992   5.702  0.00  0.00    +0.006 C 
ENDBRANCH   9  11
ENDBRANCH   8   9
ENDBRANCH   2   8
ENDBRANCH   1   3
BRANCH   1  12
ATOM     12  C   LIG    1       23.835 -16.434   3.976  0.00  0.00    +0.261 C 
BRANCH  12  13
ATOM     13  C   LIG    1       24.763 -15.211   3.941  0.00  0.00    +0.166 C 
BRANCH  13  14
ATOM     14  O   LIG    1       24.074 -14.084   3.372  0.00  0.00    -0.387 OA
ATOM     15  H   LIG    1       23.752 -14.342   2.493  0.00  0.00    +0.210 HD
ENDBRANCH  13  14
BRANCH  13  16
ATOM     16  C   LIG    1       26.051 -15.425   3.126  0.00  0.00    +0.115 C 
BRANCH  16  17
ATOM     17  N   LIG    1       27.309 -15.068   3.812  0.00  0.00    -0.311 NA
ATOM     18  H   LIG    1       28.093 -15.252   3.188  0.00  0.00    +0.122 HD
BRANCH  17  19
ATOM     19  C   LIG    1       27.342 -13.627   4.140  0.00  0.00    +0.048 C 
ATOM     20  C   LIG    1       28.706 -13.041   3.766  0.00  0.00    +0.024 C 
ATOM     21  C   LIG    1       27.075 -13.370   5.625  0.00  0.00    +0.024 C 
ENDBRANCH  17  19
ENDBRANCH  16  17
ENDBRANCH  13  16
ENDBRANCH  12  13
ENDBRANCH   1  12
TORSDOF 10
ENDMDL
MODEL 8
REMARK VINA RESULT:      -3.8      2.863      6.542
REMARK  Name = *****
REMARK                            x       y       z     vdW  Elec       q    Type
REMARK                         _______ _______ _______ _____ _____    ______ ____
ROOT
ATOM      1  O   LIG    1       24.446 -15.522   4.362  0.00  0.00    -0.486 OA
ENDROOT
BRANCH   1   3
ATOM      2  C   LIG    1       25.793 -14.142   2.944  0.00  0.00    +0.162 A 
ATOM      3  C   LIG    1       24.592 -14.367   3.641  0.00  0.00    +0.162 A 
ATOM      4  C   LIG    1       23.587 -13.389   3.598  0.00  0.00    +0.049 A 
ATOM      5  C   LIG    1       23.741 -12.232   2.832  0.00  0.00    +0.004 A 
ATOM      6  C   LIG    1       24.913 -12.027   2.117  0.00  0.00    +0.004 A 
ATOM      7  C   LIG    1       25.930 -12.979   2.171  0.00  0.00    +0.049 A 
BRANCH   2   8
ATOM      8  O   LIG    1       26.875 -14.980   2.844  0.00  0.00    -0.484 OA
BRANCH   8   9
ATOM      9  C   LIG    1       27.842 -14.926   3.889  0.00  0.00    +0.256 C 
BRANCH   9  11
ATOM     10  C   LIG    1       29.059 -12.729   4.012  0.00  0.00    +0.007 C 
ATOM     11  C   LIG    1       27.998 -13.479   4.300  0.00  0.00    +0.006 C 
ENDBRANCH   9  11
ENDBRANCH   8   9
ENDBRANCH   2   8
ENDBRANCH   1   3
BRANCH   1  12
ATOM     12  C   LIG    1       24.013 -16.701   3.663  0.00  0.00    +0.261 C 
BRANCH  12  13
ATOM     13  C   LIG    1       25.005 -17.861   3.831  0.00  0.00    +0.166 C 
BRANCH  13  14
ATOM     14  O   LIG    1       26.066 -17.747   2.866  0.00  0.00    -0.387 OA
ATOM     15  H   LIG    1       26.089 -18.568   2.347  0.00  0.00    +0.210 HD
ENDBRANCH  13  14
BRANCH  13  16
ATOM     16  C   LIG    1       24.374 -19.255   3.660  0.00  0.00    +0.115 C 
BRANCH  16  17
ATOM     17  N   LIG    1       24.651 -20.219   4.744  0.00  0.00    -0.311 NA
ATOM     18  H   LIG    1       25.182 -19.752   5.478  0.00  0.00    +0.122 HD
BRANCH  17  19
ATOM     19  C   LIG    1       23.395 -20.702   5.354  0.00  0.00    +0.048 C 
ATOM     20  C   LIG    1       22.227 -19.821   4.904  0.00  0.00    +0.024 C 
ATOM     21  C   LIG    1       23.463 -20.703   6.884  0.00  0.00    +0.024 C 
ENDBRANCH  17  19
ENDBRANCH  16  17
ENDBRANCH  13  16
ENDBRANCH  12  13
ENDBRANCH   1  12
TORSDOF 10
ENDMDL
MODEL 9
REMARK VINA RESULT:      -3.6      2.096      5.451
REMARK  Name = *****
REMARK                            x       y       z     vdW  Elec       q    Type
REMARK                         _______ _______ _______ _____ _____    ______ ____
ROOT
ATOM      1  O   LIG    1       24.999 -17.109   3.343  0.00  0.00    -0.486 OA
ENDROOT
BRANCH   1   3
ATOM      2  C   LIG    1       27.036 -15.937   3.804  0.00  0.00    +0.162 A 
ATOM      3  C   LIG    1       25.658 -15.921   3.516  0.00  0.00    +0.162 A 
ATOM      4  C   LIG    1       24.994 -14.688   3.439  0.00  0.00    +0.049 A 
ATOM      5  C   LIG    1       25.688 -13.485   3.587  0.00  0.00    +0.004 A 
ATOM      6  C   LIG    1       27.054 -13.502   3.837  0.00  0.00    +0.004 A 
ATOM      7  C   LIG    1       27.722 -14.721   3.941  0.00  0.00    +0.049 A 
BRANCH   2   8
ATOM      8  O   LIG    1       27.861 -17.029   3.897  0.00  0.00    -0.484 OA
BRANCH   8   9
ATOM      9  C   LIG    1       28.738 -17.092   5.018  0.00  0.00    +0.256 C 
BRANCH   9  11
ATOM     10  C   LIG    1       29.424 -19.031   6.466  0.00  0.00    +0.007 C 
ATOM     11  C   LIG    1       29.044 -18.549   5.285  0.00  0.00    +0.006 C 
ENDBRANCH   9  11
ENDBRANCH   8   9
ENDBRANCH   2   8
ENDBRANCH   1   3
BRANCH   1  12
ATOM     12  C   LIG    1       25.789 -18.295   3.158  0.00  0.00    +0.261 C 
BRANCH  12  13
ATOM     13  C   LIG    1       25.317 -19.444   4.060  0.00  0.00    +0.166 C 
BRANCH  13  14
ATOM     14  O   LIG    1       26.391 -20.375   4.277  0.00  0.00    -0.387 OA
ATOM     15  H   LIG    1       26.432 -20.570   5.228  0.00  0.00    +0.210 HD
ENDBRANCH  13  14
BRANCH  13  16
ATOM     16  C   LIG    1       24.126 -20.238   3.492  0.00  0.00    +0.115 C 
BRANCH  16  17
ATOM     17  N   LIG    1       23.616 -21.325   4.350  0.00  0.00    -0.311 NA
ATOM     18  H   LIG    1       24.394 -21.742   4.859  0.00  0.00    +0.122 HD
BRANCH  17  19
ATOM     19  C   LIG    1       22.667 -20.803   5.357  0.00  0.00    +0.048 C 
ATOM     20  C   LIG    1       22.207 -19.399   4.956  0.00  0.00    +0.024 C 
ATOM     21  C   LIG    1       23.287 -20.748   6.755  0.00  0.00    +0.024 C 
ENDBRANCH  17  19
ENDBRANCH  16  17
ENDBRANCH  13  16
ENDBRANCH  12  13
ENDBRANCH   1  12
TORSDOF 10
ENDMDL
