MODEL 1
REMARK VINA RESULT:      -7.8      0.000      0.000
REMARK  Name = *****
REMARK                            x       y       z     vdW  Elec       q    Type
REMARK                         _______ _______ _______ _____ _____    ______ ____
ROOT
ATOM      1  C1*   I A  1       25.627 -20.533   6.455  0.00  0.00    +0.253 C 
ATOM      2  C2*   I A  1       25.430 -21.162   5.076  0.00  0.00    +0.195 C 
ATOM      3  C3*   I A  1       23.929 -21.409   5.076  0.00  0.00    +0.178 C 
ATOM      4  C4*   I A  1       23.604 -21.703   6.541  0.00  0.00    +0.177 C 
ATOM      5  O4*   I A  1       24.663 -21.133   7.345  0.00  0.00    -0.346 OA
ENDROOT
BRANCH   1  11
ATOM      6  O6    I A  1       31.382 -20.348   8.082  0.00  0.00    -0.265 OA
ATOM      7  C6    I A  1       30.420 -20.018   7.400  0.00  0.00    +0.279 C 
ATOM      8  C5    I A  1       29.072 -20.538   7.516  0.00  0.00    +0.172 A 
ATOM      9  N7    I A  1       28.547 -21.453   8.389  0.00  0.00    -0.229 NA
ATOM     10  C8    I A  1       27.272 -21.521   8.064  0.00  0.00    +0.204 A 
ATOM     11  N9    I A  1       26.955 -20.691   7.015  0.00  0.00    -0.285 N 
ATOM     12  C4    I A  1       28.112 -20.061   6.646  0.00  0.00    +0.169 A 
ATOM     13  N3    I A  1       28.264 -19.144   5.658  0.00  0.00    -0.218 NA
ATOM     14  C2    I A  1       29.476 -18.678   5.591  0.00  0.00    +0.201 C 
ATOM     15  N1    I A  1       30.528 -19.063   6.398  0.00  0.00    -0.312 N 
ATOM     16  H1    I A  1       31.445 -18.661   6.281  0.00  0.00    +0.170 HD
ENDBRANCH   1  11
BRANCH   2  17
ATOM     17  O2*   I A  1       25.807 -20.289   4.007  0.00  0.00    -0.385 OA
ATOM     18  H2*   I A  1       25.772 -19.385   4.386  0.00  0.00    +0.210 HD
ENDBRANCH   2  17
BRANCH   3  19
ATOM     19  O3*   I A  1       23.294 -20.179   4.663  0.00  0.00    -0.386 OA
ATOM     20  H3*   I A  1       22.664 -19.930   5.364  0.00  0.00    +0.210 HD
ENDBRANCH   3  19
BRANCH   4  21
ATOM     21  C5*   I A  1       23.486 -23.195   6.859  0.00  0.00    +0.190 C 
BRANCH  21  22
ATOM     22  O5*   I A  1       22.198 -23.704   6.550  0.00  0.00    -0.392 OA
ATOM     23  H5*   I A  1       22.130 -23.745   5.569  0.00  0.00    +0.209 HD
ENDBRANCH  21  22
ENDBRANCH   4  21
TORSDOF 5
ENDMDL
MODEL 2
REMARK VINA RESULT:      -7.4      1.430      2.965
REMARK  Name = *****
REMARK                            x       y       z     vdW  Elec       q    Type
REMARK                         _______ _______ _______ _____ _____    ______ ____
ROOT
ATOM      1  C1*   I A  1       26.533 -21.191   6.744  0.00  0.00    +0.253 C 
ATOM      2  C2*   I A  1       25.584 -20.623   7.799  0.00  0.00    +0.195 C 
ATOM      3  C3*   I A  1       24.239 -21.100   7.274  0.00  0.00    +0.178 C 
ATOM      4  C4*   I A  1       24.415 -21.101   5.755  0.00  0.00    +0.177 C 
ATOM      5  O4*   I A  1       25.833 -21.175   5.481  0.00  0.00    -0.346 OA
ENDROOT
BRANCH   1  11
ATOM      6  O6    I A  1       32.086 -18.972   6.925  0.00  0.00    -0.265 OA
ATOM      7  C6    I A  1       31.182 -19.709   7.300  0.00  0.00    +0.279 C 
ATOM      8  C5    I A  1       29.835 -19.749   6.765  0.00  0.00    +0.172 A 
ATOM      9  N7    I A  1       29.267 -19.039   5.741  0.00  0.00    -0.229 NA
ATOM     10  C8    I A  1       28.036 -19.503   5.666  0.00  0.00    +0.204 A 
ATOM     11  N9    I A  1       27.787 -20.479   6.602  0.00  0.00    -0.285 N 
ATOM     12  C4    I A  1       28.939 -20.637   7.324  0.00  0.00    +0.169 A 
ATOM     13  N3    I A  1       29.150 -21.503   8.347  0.00  0.00    -0.218 NA
ATOM     14  C2    I A  1       30.371 -21.463   8.792  0.00  0.00    +0.201 C 
ATOM     15  N1    I A  1       31.367 -20.629   8.323  0.00  0.00    -0.312 N 
ATOM     16  H1    I A  1       32.291 -20.650   8.724  0.00  0.00    +0.170 HD
ENDBRANCH   1  11
BRANCH   2  17
ATOM     17  O2*   I A  1       25.836 -21.139   9.109  0.00  0.00    -0.385 OA
ATOM     18  H2*   I A  1       26.434 -21.904   8.976  0.00  0.00    +0.210 HD
ENDBRANCH   2  17
BRANCH   3  19
ATOM     19  O3*   I A  1       24.047 -22.449   7.754  0.00  0.00    -0.386 OA
ATOM     20  H3*   I A  1       23.366 -22.861   7.190  0.00  0.00    +0.210 HD
ENDBRANCH   3  19
BRANCH   4  21
ATOM     21  C5*   I A  1       23.839 -19.862   5.066  0.00  0.00    +0.190 C 
BRANCH  21  22
ATOM     22  O5*   I A  1       22.537 -19.549   5.537  0.00  0.00    -0.392 OA
ATOM     23  H5*   I A  1       21.931 -20.245   5.196  0.00  0.00    +0.209 HD
ENDBRANCH  21  22
ENDBRANCH   4  21
TORSDOF 5
ENDMDL
MODEL 3
REMARK VINA RESULT:      -7.4      2.184      6.571
REMARK  Name = *****
REMARK                            x       y       z     vdW  Elec       q    Type
REMARK                         _______ _______ _______ _____ _____    ______ ____
ROOT
ATOM      1  C1*   I A  1       29.644 -19.857   8.100  0.00  0.00    +0.253 C 
ATOM      2  C2*   I A  1       30.859 -19.185   7.461  0.00  0.00    +0.195 C 
ATOM      3  C3*   I A  1       31.581 -18.650   8.687  0.00  0.00    +0.178 C 
ATOM      4  C4*   I A  1       30.452 -18.316   9.663  0.00  0.00    +0.177 C 
ATOM      5  O4*   I A  1       29.295 -19.091   9.272  0.00  0.00    -0.346 OA
ENDROOT
BRANCH   1  11
ATOM      6  O6    I A  1       24.323 -20.630   5.477  0.00  0.00    -0.265 OA
ATOM      7  C6    I A  1       25.105 -20.689   6.417  0.00  0.00    +0.279 C 
ATOM      8  C5    I A  1       26.500 -20.296   6.393  0.00  0.00    +0.172 A 
ATOM      9  N7    I A  1       27.253 -19.757   5.383  0.00  0.00    -0.229 NA
ATOM     10  C8    I A  1       28.439 -19.568   5.924  0.00  0.00    +0.204 A 
ATOM     11  N9    I A  1       28.483 -19.967   7.239  0.00  0.00    -0.285 N 
ATOM     12  C4    I A  1       27.240 -20.449   7.548  0.00  0.00    +0.169 A 
ATOM     13  N3    I A  1       26.829 -20.941   8.744  0.00  0.00    -0.218 NA
ATOM     14  C2    I A  1       25.569 -21.264   8.744  0.00  0.00    +0.201 C 
ATOM     15  N1    I A  1       24.715 -21.159   7.664  0.00  0.00    -0.312 N 
ATOM     16  H1    I A  1       23.749 -21.437   7.738  0.00  0.00    +0.170 HD
ENDBRANCH   1  11
BRANCH   2  17
ATOM     17  O2*   I A  1       31.685 -20.101   6.736  0.00  0.00    -0.385 OA
ATOM     18  H2*   I A  1       32.601 -19.769   6.849  0.00  0.00    +0.210 HD
ENDBRANCH   2  17
BRANCH   3  19
ATOM     19  O3*   I A  1       32.389 -19.728   9.210  0.00  0.00    -0.386 OA
ATOM     20  H3*   I A  1       33.293 -19.381   9.324  0.00  0.00    +0.210 HD
ENDBRANCH   3  19
BRANCH   4  21
ATOM     21  C5*   I A  1       30.074 -16.834   9.685  0.00  0.00    +0.190 C 
BRANCH  21  22
ATOM     22  O5*   I A  1       30.217 -16.267  10.978  0.00  0.00    -0.392 OA
ATOM     23  H5*   I A  1       31.123 -15.886  11.029  0.00  0.00    +0.209 HD
ENDBRANCH  21  22
ENDBRANCH   4  21
TORSDOF 5
ENDMDL
MODEL 4
REMARK VINA RESULT:      -7.2      1.385      2.622
REMARK  Name = *****
REMARK                            x       y       z     vdW  Elec       q    Type
REMARK                         _______ _______ _______ _____ _____    ______ ____
ROOT
ATOM      1  C1*   I A  1       24.926 -21.594   6.180  0.00  0.00    +0.253 C 
ATOM      2  C2*   I A  1       23.726 -20.774   6.653  0.00  0.00    +0.195 C 
ATOM      3  C3*   I A  1       22.912 -20.674   5.373  0.00  0.00    +0.178 C 
ATOM      4  C4*   I A  1       23.968 -20.648   4.266  0.00  0.00    +0.177 C 
ATOM      5  O4*   I A  1       25.176 -21.237   4.804  0.00  0.00    -0.346 OA
ENDROOT
BRANCH   1  11
ATOM      6  O6    I A  1       30.191 -20.056   8.569  0.00  0.00    -0.265 OA
ATOM      7  C6    I A  1       29.328 -20.033   7.701  0.00  0.00    +0.279 C 
ATOM      8  C5    I A  1       28.080 -20.771   7.717  0.00  0.00    +0.172 A 
ATOM      9  N7    I A  1       27.558 -21.609   8.667  0.00  0.00    -0.229 NA
ATOM     10  C8    I A  1       26.389 -21.969   8.176  0.00  0.00    +0.204 A 
ATOM     11  N9    I A  1       26.140 -21.402   6.949  0.00  0.00    -0.285 N 
ATOM     12  C4    I A  1       27.230 -20.636   6.638  0.00  0.00    +0.169 A 
ATOM     13  N3    I A  1       27.410 -19.887   5.522  0.00  0.00    -0.218 NA
ATOM     14  C2    I A  1       28.525 -19.219   5.543  0.00  0.00    +0.201 C 
ATOM     15  N1    I A  1       29.462 -19.257   6.557  0.00  0.00    -0.312 N 
ATOM     16  H1    I A  1       30.310 -18.715   6.500  0.00  0.00    +0.170 HD
ENDBRANCH   1  11
BRANCH   2  17
ATOM     17  O2*   I A  1       22.980 -21.426   7.686  0.00  0.00    -0.385 OA
ATOM     18  H2*   I A  1       23.636 -21.638   8.384  0.00  0.00    +0.210 HD
ENDBRANCH   2  17
BRANCH   3  19
ATOM     19  O3*   I A  1       22.118 -21.876   5.276  0.00  0.00    -0.386 OA
ATOM     20  H3*   I A  1       21.368 -21.679   4.684  0.00  0.00    +0.210 HD
ENDBRANCH   3  19
BRANCH   4  21
ATOM     21  C5*   I A  1       24.286 -19.244   3.749  0.00  0.00    +0.190 C 
BRANCH  21  22
ATOM     22  O5*   I A  1       25.653 -19.106   3.395  0.00  0.00    -0.392 OA
ATOM     23  H5*   I A  1       26.174 -19.642   4.035  0.00  0.00    +0.209 HD
ENDBRANCH  21  22
ENDBRANCH   4  21
TORSDOF 5
ENDMDL
MODEL 5
REMARK VINA RESULT:      -7.0      1.963      6.036
REMARK  Name = *****
REMARK                            x       y       z     vdW  Elec       q    Type
REMARK                         _______ _______ _______ _____ _____    ______ ____
ROOT
ATOM      1  C1*   I A  1       28.909 -20.129   7.121  0.00  0.00    +0.253 C 
ATOM      2  C2*   I A  1       29.295 -18.725   6.654  0.00  0.00    +0.195 C 
ATOM      3  C3*   I A  1       30.734 -18.638   7.137  0.00  0.00    +0.178 C 
ATOM      4  C4*   I A  1       30.745 -19.477   8.416  0.00  0.00    +0.177 C 
ATOM      5  O4*   I A  1       29.620 -20.384   8.351  0.00  0.00    -0.346 OA
ENDROOT
BRANCH   1  11
ATOM      6  O6    I A  1       22.986 -20.946   6.913  0.00  0.00    -0.265 OA
ATOM      7  C6    I A  1       24.084 -20.722   6.419  0.00  0.00    +0.279 C 
ATOM      8  C5    I A  1       25.338 -20.612   7.138  0.00  0.00    +0.172 A 
ATOM      9  N7    I A  1       25.609 -20.755   8.474  0.00  0.00    -0.229 NA
ATOM     10  C8    I A  1       26.913 -20.584   8.562  0.00  0.00    +0.204 A 
ATOM     11  N9    I A  1       27.491 -20.332   7.340  0.00  0.00    -0.285 N 
ATOM     12  C4    I A  1       26.481 -20.336   6.417  0.00  0.00    +0.169 A 
ATOM     13  N3    I A  1       26.597 -20.141   5.079  0.00  0.00    -0.218 NA
ATOM     14  C2    I A  1       25.463 -20.268   4.456  0.00  0.00    +0.201 C 
ATOM     15  N1    I A  1       24.248 -20.545   5.052  0.00  0.00    -0.312 N 
ATOM     16  H1    I A  1       23.407 -20.621   4.502  0.00  0.00    +0.170 HD
ENDBRANCH   1  11
BRANCH   2  17
ATOM     17  O2*   I A  1       29.219 -18.572   5.233  0.00  0.00    -0.385 OA
ATOM     18  H2*   I A  1       28.268 -18.663   5.013  0.00  0.00    +0.210 HD
ENDBRANCH   2  17
BRANCH   3  19
ATOM     19  O3*   I A  1       31.561 -19.257   6.128  0.00  0.00    -0.386 OA
ATOM     20  H3*   I A  1       32.030 -18.540   5.660  0.00  0.00    +0.210 HD
ENDBRANCH   3  19
BRANCH   4  21
ATOM     21  C5*   I A  1       30.643 -18.649   9.698  0.00  0.00    +0.190 C 
BRANCH  21  22
ATOM     22  O5*   I A  1       31.921 -18.295  10.205  0.00  0.00    -0.392 OA
ATOM     23  H5*   I A  1       32.094 -18.875  10.981  0.00  0.00    +0.209 HD
ENDBRANCH  21  22
ENDBRANCH   4  21
TORSDOF 5
ENDMDL
MODEL 6
REMARK VINA RESULT:      -6.8      1.686      2.542
REMARK  Name = *****
REMARK                            x       y       z     vdW  Elec       q    Type
REMARK                         _______ _______ _______ _____ _____    ______ ____
ROOT
ATOM      1  C1*   I A  1       25.862 -21.546   6.999  0.00  0.00    +0.253 C 
ATOM      2  C2*   I A  1       24.743 -21.520   5.959  0.00  0.00    +0.195 C 
ATOM      3  C3*   I A  1       24.003 -22.807   6.288  0.00  0.00    +0.178 C 
ATOM      4  C4*   I A  1       25.102 -23.748   6.783  0.00  0.00    +0.177 C 
ATOM      5  O4*   I A  1       26.211 -22.929   7.222  0.00  0.00    -0.346 OA
ENDROOT
BRANCH   1  11
ATOM      6  O6    I A  1       31.274 -19.095   6.290  0.00  0.00    -0.265 OA
ATOM      7  C6    I A  1       30.456 -19.814   6.851  0.00  0.00    +0.279 C 
ATOM      8  C5    I A  1       29.065 -19.979   6.477  0.00  0.00    +0.172 A 
ATOM      9  N7    I A  1       28.355 -19.433   5.440  0.00  0.00    -0.229 NA
ATOM     10  C8    I A  1       27.151 -19.953   5.560  0.00  0.00    +0.204 A 
ATOM     11  N9    I A  1       27.055 -20.807   6.633  0.00  0.00    -0.285 N 
ATOM     12  C4    I A  1       28.281 -20.822   7.238  0.00  0.00    +0.169 A 
ATOM     13  N3    I A  1       28.644 -21.539   8.331  0.00  0.00    -0.218 NA
ATOM     14  C2    I A  1       29.901 -21.390   8.630  0.00  0.00    +0.201 C 
ATOM     15  N1    I A  1       30.796 -20.585   7.955  0.00  0.00    -0.312 N 
ATOM     16  H1    I A  1       31.757 -20.514   8.252  0.00  0.00    +0.170 HD
ENDBRANCH   1  11
BRANCH   2  17
ATOM     17  O2*   I A  1       23.883 -20.384   6.095  0.00  0.00    -0.385 OA
ATOM     18  H2*   I A  1       23.019 -20.746   6.385  0.00  0.00    +0.210 HD
ENDBRANCH   2  17
BRANCH   3  19
ATOM     19  O3*   I A  1       23.083 -22.508   7.360  0.00  0.00    -0.386 OA
ATOM     20  H3*   I A  1       23.442 -21.741   7.843  0.00  0.00    +0.210 HD
ENDBRANCH   3  19
BRANCH   4  21
ATOM     21  C5*   I A  1       25.599 -24.729   5.720  0.00  0.00    +0.190 C 
BRANCH  21  22
ATOM     22  O5*   I A  1       24.794 -24.699   4.551  0.00  0.00    -0.392 OA
ATOM     23  H5*   I A  1       24.177 -23.938   4.644  0.00  0.00    +0.209 HD
ENDBRANCH  21  22
ENDBRANCH   4  21
TORSDOF 5
ENDMDL
MODEL 7
REMARK VINA RESULT:      -6.8      1.438      2.647
REMARK  Name = *****
REMARK                            x       y       z     vdW  Elec       q    Type
REMARK                         _______ _______ _______ _____ _____    ______ ____
ROOT
ATOM      1  C1*   I A  1       26.716 -21.575   7.482  0.00  0.00    +0.253 C 
ATOM      2  C2*   I A  1       25.718 -20.585   8.081  0.00  0.00    +0.195 C 
ATOM      3  C3*   I A  1       24.450 -20.947   7.324  0.00  0.00    +0.178 C 
ATOM      4  C4*   I A  1       24.956 -21.395   5.951  0.00  0.00    +0.177 C 
ATOM      5  O4*   I A  1       26.340 -21.785   6.104  0.00  0.00    -0.346 OA
ENDROOT
BRANCH   1  11
ATOM      6  O6    I A  1       32.126 -19.069   6.989  0.00  0.00    -0.265 OA
ATOM      7  C6    I A  1       30.947 -19.211   6.688  0.00  0.00    +0.279 C 
ATOM      8  C5    I A  1       30.027 -20.170   7.268  0.00  0.00    +0.172 A 
ATOM      9  N7    I A  1       30.217 -21.089   8.266  0.00  0.00    -0.229 NA
ATOM     10  C8    I A  1       29.040 -21.664   8.408  0.00  0.00    +0.204 A 
ATOM     11  N9    I A  1       28.102 -21.157   7.540  0.00  0.00    -0.285 N 
ATOM     12  C4    I A  1       28.733 -20.201   6.791  0.00  0.00    +0.169 A 
ATOM     13  N3    I A  1       28.183 -19.434   5.816  0.00  0.00    -0.218 NA
ATOM     14  C2    I A  1       29.023 -18.567   5.330  0.00  0.00    +0.201 C 
ATOM     15  N1    I A  1       30.341 -18.426   5.716  0.00  0.00    -0.312 N 
ATOM     16  H1    I A  1       30.936 -17.734   5.287  0.00  0.00    +0.170 HD
ENDBRANCH   1  11
BRANCH   2  17
ATOM     17  O2*   I A  1       25.541 -20.757   9.490  0.00  0.00    -0.385 OA
ATOM     18  H2*   I A  1       26.431 -20.979   9.838  0.00  0.00    +0.210 HD
ENDBRANCH   2  17
BRANCH   3  19
ATOM     19  O3*   I A  1       23.841 -22.058   8.017  0.00  0.00    -0.386 OA
ATOM     20  H3*   I A  1       23.112 -22.383   7.456  0.00  0.00    +0.210 HD
ENDBRANCH   3  19
BRANCH   4  21
ATOM     21  C5*   I A  1       24.859 -20.312   4.875  0.00  0.00    +0.190 C 
BRANCH  21  22
ATOM     22  O5*   I A  1       26.010 -20.283   4.045  0.00  0.00    -0.392 OA
ATOM     23  H5*   I A  1       25.849 -20.912   3.306  0.00  0.00    +0.209 HD
ENDBRANCH  21  22
ENDBRANCH   4  21
TORSDOF 5
ENDMDL
MODEL 8
REMARK VINA RESULT:      -6.6      3.562      6.025
REMARK  Name = *****
REMARK                            x       y       z     vdW  Elec       q    Type
REMARK                         _______ _______ _______ _____ _____    ______ ____
ROOT
ATOM      1  C1*   I A  1       25.866 -22.750   5.918  0.00  0.00    +0.253 C 
ATOM      2  C2*   I A  1       25.057 -21.504   5.559  0.00  0.00    +0.195 C 
ATOM      3  C3*   I A  1       25.972 -20.401   6.068  0.00  0.00    +0.178 C 
ATOM      4  C4*   I A  1       26.662 -21.025   7.282  0.00  0.00    +0.177 C 
ATOM      5  O4*   I A  1       26.585 -22.462   7.135  0.00  0.00    -0.346 OA
ENDROOT
BRANCH   1  11
ATOM      6  O6    I A  1       23.598 -28.255   6.515  0.00  0.00    -0.265 OA
ATOM      7  C6    I A  1       24.490 -27.452   6.266  0.00  0.00    +0.279 C 
ATOM      8  C5    I A  1       24.369 -26.008   6.285  0.00  0.00    +0.172 A 
ATOM      9  N7    I A  1       23.300 -25.212   6.600  0.00  0.00    -0.229 NA
ATOM     10  C8    I A  1       23.761 -23.984   6.483  0.00  0.00    +0.204 A 
ATOM     11  N9    I A  1       25.082 -23.956   6.101  0.00  0.00    -0.285 N 
ATOM     12  C4    I A  1       25.480 -25.257   5.960  0.00  0.00    +0.169 A 
ATOM     13  N3    I A  1       26.712 -25.700   5.605  0.00  0.00    -0.218 NA
ATOM     14  C2    I A  1       26.799 -26.997   5.618  0.00  0.00    +0.201 C 
ATOM     15  N1    I A  1       25.771 -27.866   5.928  0.00  0.00    -0.312 N 
ATOM     16  H1    I A  1       25.913 -28.864   5.909  0.00  0.00    +0.170 HD
ENDBRANCH   1  11
BRANCH   2  17
ATOM     17  O2*   I A  1       24.828 -21.374   4.153  0.00  0.00    -0.385 OA
ATOM     18  H2*   I A  1       25.073 -20.450   3.935  0.00  0.00    +0.210 HD
ENDBRANCH   2  17
BRANCH   3  19
ATOM     19  O3*   I A  1       26.939 -20.135   5.028  0.00  0.00    -0.386 OA
ATOM     20  H3*   I A  1       27.475 -20.943   4.920  0.00  0.00    +0.210 HD
ENDBRANCH   3  19
BRANCH   4  21
ATOM     21  C5*   I A  1       26.035 -20.627   8.619  0.00  0.00    +0.190 C 
BRANCH  21  22
ATOM     22  O5*   I A  1       25.475 -21.741   9.296  0.00  0.00    -0.392 OA
ATOM     23  H5*   I A  1       25.950 -21.828  10.153  0.00  0.00    +0.209 HD
ENDBRANCH  21  22
ENDBRANCH   4  21
TORSDOF 5
ENDMDL
MODEL 9
REMARK VINA RESULT:      -6.5      2.010      6.178
REMARK  Name = *****
REMARK                            x       y       z     vdW  Elec       q    Type
REMARK                         _______ _______ _______ _____ _____    ______ ____
ROOT
ATOM      1  C1*   I A  1       29.216 -19.957   6.828  0.00  0.00    +0.253 C 
ATOM      2  C2*   I A  1       29.772 -18.574   6.489  0.00  0.00    +0.195 C 
ATOM      3  C3*   I A  1       30.910 -18.458   7.491  0.00  0.00    +0.178 C 
ATOM      4  C4*   I A  1       30.411 -19.240   8.708  0.00  0.00    +0.177 C 
ATOM      5  O4*   I A  1       29.388 -20.154   8.248  0.00  0.00    -0.346 OA
ENDROOT
BRANCH   1  11
ATOM      6  O6    I A  1       23.352 -21.090   6.476  0.00  0.00    -0.265 OA
ATOM      7  C6    I A  1       24.438 -21.075   7.042  0.00  0.00    +0.279 C 
ATOM      8  C5    I A  1       25.691 -20.615   6.475  0.00  0.00    +0.172 A 
ATOM      9  N7    I A  1       25.962 -20.078   5.244  0.00  0.00    -0.229 NA
ATOM     10  C8    I A  1       27.252 -19.810   5.283  0.00  0.00    +0.204 A 
ATOM     11  N9    I A  1       27.822 -20.157   6.485  0.00  0.00    -0.285 N 
ATOM     12  C4    I A  1       26.825 -20.688   7.257  0.00  0.00    +0.169 A 
ATOM     13  N3    I A  1       26.936 -21.153   8.526  0.00  0.00    -0.218 NA
ATOM     14  C2    I A  1       25.795 -21.538   9.018  0.00  0.00    +0.201 C 
ATOM     15  N1    I A  1       24.587 -21.516   8.350  0.00  0.00    -0.312 N 
ATOM     16  H1    I A  1       23.742 -21.839   8.796  0.00  0.00    +0.170 HD
ENDBRANCH   1  11
BRANCH   2  17
ATOM     17  O2*   I A  1       30.258 -18.483   5.147  0.00  0.00    -0.385 OA
ATOM     18  H2*   I A  1       29.462 -18.547   4.578  0.00  0.00    +0.210 HD
ENDBRANCH   2  17
BRANCH   3  19
ATOM     19  O3*   I A  1       32.057 -19.118   6.912  0.00  0.00    -0.386 OA
ATOM     20  H3*   I A  1       32.615 -18.425   6.511  0.00  0.00    +0.210 HD
ENDBRANCH   3  19
BRANCH   4  21
ATOM     21  C5*   I A  1       29.828 -18.357   9.812  0.00  0.00    +0.190 C 
BRANCH  21  22
ATOM     22  O5*   I A  1       30.564 -18.462  11.021  0.00  0.00    -0.392 OA
ATOM     23  H5*   I A  1       31.144 -19.252  10.938  0.00  0.00    +0.209 HD
ENDBRANCH  21  22
ENDBRANCH   4  21
TORSDOF 5
ENDMDL
