MODEL 1
REMARK VINA RESULT:       3.1      0.000      0.000
REMARK  Name = *****
REMARK                            x       y       z     vdW  Elec       q    Type
REMARK                         _______ _______ _______ _____ _____    ______ ____
ROOT
ATOM      1  C   LIG    1       25.016 -27.511   6.500  0.00  0.00    +0.003 C 
ATOM      2  C   LIG    1       23.938 -26.623   6.555  0.00  0.00    +0.020 C 
ATOM      3  C   LIG    1       24.149 -25.275   6.250  0.00  0.00    +0.001 C 
ATOM      4  C   LIG    1       23.291 -24.151   6.246  0.00  0.00    +0.036 C 
ATOM      5  C   LIG    1       24.037 -23.079   5.826  0.00  0.00    +0.057 C 
ATOM      6  C   LIG    1       23.738 -21.697   5.564  0.00  0.00    +0.040 C 
ATOM      7  C   LIG    1       24.738 -20.923   4.956  0.00  0.00    +0.133 C 
ATOM      8  C   LIG    1       24.465 -19.619   4.568  0.00  0.00    +0.056 C 
ATOM      9  C   LIG    1       23.205 -19.072   4.835  0.00  0.00    +0.005 C 
ATOM     10  C   LIG    1       22.235 -19.835   5.504  0.00  0.00    +0.011 C 
ATOM     11  O   LIG    1       25.996 -21.406   4.678  0.00  0.00    -0.464 OA
ATOM     12  C   LIG    1       26.430 -22.544   5.466  0.00  0.00    +0.308 C 
ATOM     13  C   LIG    1       22.494 -21.149   5.862  0.00  0.00    +0.014 C 
ATOM     14  N   LIG    1       25.335 -23.499   5.676  0.00  0.00    -0.300 NA
ATOM     15  C   LIG    1       25.425 -24.853   5.869  0.00  0.00    +0.053 C 
ATOM     16  C   LIG    1       26.510 -25.731   5.767  0.00  0.00    +0.027 C 
ATOM     17  C   LIG    1       26.281 -27.068   6.100  0.00  0.00    +0.012 C 
ENDROOT
BRANCH   1  22
ATOM     18  C   LIG    1       24.816 -30.663   8.083  0.00  0.00    +0.128 A 
ATOM     19  N   LIG    1       24.260 -30.990   6.867  0.00  0.00    -0.346 N 
ATOM     20  H   LIG    1       23.955 -31.912   6.591  0.00  0.00    +0.167 HD
ATOM     21  C   LIG    1       24.214 -29.856   6.105  0.00  0.00    +0.112 A 
ATOM     22  C   LIG    1       24.776 -28.878   6.891  0.00  0.00    +0.089 A 
ATOM     23  N   LIG    1       25.168 -29.393   8.102  0.00  0.00    -0.231 NA
BRANCH  18  26
ATOM     24  C   LIG    1       25.935 -30.408  11.111  0.00  0.00    +0.237 C 
ATOM     25  N   LIG    1       24.843 -30.985  10.488  0.00  0.00    -0.290 N 
ATOM     26  C   LIG    1       24.954 -31.662   9.197  0.00  0.00    +0.142 C 
ATOM     27  C   LIG    1       23.800 -32.668   9.215  0.00  0.00    +0.032 C 
ATOM     28  C   LIG    1       22.740 -32.050  10.122  0.00  0.00    +0.021 C 
ATOM     29  C   LIG    1       23.464 -30.993  10.944  0.00  0.00    +0.108 C 
ATOM     30  O   LIG    1       27.057 -30.479  10.593  0.00  0.00    -0.274 OA
BRANCH  24  31
ATOM     31  C   LIG    1       25.729 -29.617  12.461  0.00  0.00    +0.165 C 
BRANCH  31  33
ATOM     32  C   LIG    1       27.074 -30.961  14.203  0.00  0.00    +0.401 C 
ATOM     33  N   LIG    1       26.894 -29.956  13.303  0.00  0.00    -0.270 N 
ATOM     34  H   LIG    1       27.637 -29.263  13.340  0.00  0.00    +0.153 HD
ATOM     35  O   LIG    1       28.180 -31.192  14.681  0.00  0.00    -0.227 OA
BRANCH  32  37
ATOM     36  C   LIG    1       25.459 -32.591  13.781  0.00  0.00    +0.282 C 
ATOM     37  O   LIG    1       25.923 -31.532  14.637  0.00  0.00    -0.454 OA
ENDBRANCH  32  37
ENDBRANCH  31  33
BRANCH  31  38
ATOM     38  C   LIG    1       25.661 -28.089  12.195  0.00  0.00    +0.012 C 
ATOM     39  C   LIG    1       26.995 -27.490  11.754  0.00  0.00    +0.009 C 
ATOM     40  C   LIG    1       25.188 -27.270  13.390  0.00  0.00    +0.009 C 
ENDBRANCH  31  38
ENDBRANCH  24  31
ENDBRANCH  18  26
ENDBRANCH   1  22
BRANCH   9  41
ATOM     41  C   LIG    1       22.908 -17.708   4.472  0.00  0.00    +0.089 C 
ATOM     42  N   LIG    1       23.829 -16.697   4.476  0.00  0.00    -0.231 NA
ATOM     43  C   LIG    1       23.150 -15.588   4.240  0.00  0.00    +0.128 C 
ATOM     44  N   LIG    1       21.816 -15.874   4.071  0.00  0.00    -0.346 NA
ATOM     45  H   LIG    1       21.077 -15.199   3.947  0.00  0.00    +0.167 HD
ATOM     46  C   LIG    1       21.666 -17.229   4.128  0.00  0.00    +0.112 C 
BRANCH  43  47
ATOM     47  C   LIG    1       23.696 -14.188   4.110  0.00  0.00    +0.142 C 
ATOM     48  N   LIG    1       25.159 -14.220   4.012  0.00  0.00    -0.290 N 
ATOM     49  C   LIG    1       26.024 -14.101   5.093  0.00  0.00    +0.237 C 
ATOM     50  O   LIG    1       25.584 -13.966   6.238  0.00  0.00    -0.274 OA
ATOM     51  C   LIG    1       25.558 -14.350   2.616  0.00  0.00    +0.108 C 
ATOM     52  C   LIG    1       24.274 -14.243   1.794  0.00  0.00    +0.021 C 
ATOM     53  C   LIG    1       23.299 -13.575   2.760  0.00  0.00    +0.032 C 
BRANCH  49  54
ATOM     54  C   LIG    1       27.564 -13.951   4.776  0.00  0.00    +0.165 C 
BRANCH  54  55
ATOM     55  N   LIG    1       28.273 -15.177   5.182  0.00  0.00    -0.270 N 
ATOM     56  H   LIG    1       28.980 -15.146   5.902  0.00  0.00    +0.153 HD
ATOM     57  C   LIG    1       28.010 -16.417   4.635  0.00  0.00    +0.401 C 
ATOM     58  O   LIG    1       27.222 -16.643   3.767  0.00  0.00    -0.227 OA
BRANCH  57  59
ATOM     59  O   LIG    1       28.823 -17.337   5.252  0.00  0.00    -0.454 OA
ATOM     60  C   LIG    1       28.510 -18.716   5.002  0.00  0.00    +0.282 C 
ENDBRANCH  57  59
ENDBRANCH  54  55
BRANCH  54  61
ATOM     61  C   LIG    1       27.947 -13.576   3.312  0.00  0.00    +0.012 C 
ATOM     62  C   LIG    1       27.226 -14.448   2.277  0.00  0.00    +0.009 C 
ATOM     63  C   LIG    1       29.441 -13.576   2.984  0.00  0.00    +0.009 C 
ENDBRANCH  54  61
ENDBRANCH  49  54
ENDBRANCH  43  47
ENDBRANCH   9  41
BRANCH  12  64
ATOM     64  C   LIG    1       27.079 -22.094   6.776  0.00  0.00    +0.014 C 
ATOM     65  C   LIG    1       26.313 -21.787   7.917  0.00  0.00    +0.009 C 
ATOM     66  C   LIG    1       26.907 -21.367   9.105  0.00  0.00    +0.001 C 
ATOM     67  C   LIG    1       28.286 -21.231   9.178  0.00  0.00    +0.000 C 
ATOM     68  C   LIG    1       29.070 -21.517   8.060  0.00  0.00    +0.001 C 
ATOM     69  C   LIG    1       28.474 -21.943   6.866  0.00  0.00    +0.009 C 
ENDBRANCH  12  64
TORSDOF 13
ENDMDL
MODEL 2
REMARK VINA RESULT:       4.1      1.782      2.545
REMARK  Name = *****
REMARK                            x       y       z     vdW  Elec       q    Type
REMARK                         _______ _______ _______ _____ _____    ______ ____
ROOT
ATOM      1  C   LIG    1       24.899 -27.636   6.365  0.00  0.00    +0.003 C 
ATOM      2  C   LIG    1       23.832 -26.737   6.436  0.00  0.00    +0.020 C 
ATOM      3  C   LIG    1       24.057 -25.388   6.148  0.00  0.00    +0.001 C 
ATOM      4  C   LIG    1       23.211 -24.254   6.162  0.00  0.00    +0.036 C 
ATOM      5  C   LIG    1       23.967 -23.185   5.752  0.00  0.00    +0.057 C 
ATOM      6  C   LIG    1       23.682 -21.796   5.509  0.00  0.00    +0.040 C 
ATOM      7  C   LIG    1       24.688 -21.026   4.906  0.00  0.00    +0.133 C 
ATOM      8  C   LIG    1       24.427 -19.714   4.536  0.00  0.00    +0.056 C 
ATOM      9  C   LIG    1       23.175 -19.157   4.816  0.00  0.00    +0.005 C 
ATOM     10  C   LIG    1       22.199 -19.918   5.480  0.00  0.00    +0.011 C 
ATOM     11  O   LIG    1       25.939 -21.520   4.615  0.00  0.00    -0.464 OA
ATOM     12  C   LIG    1       26.364 -22.672   5.386  0.00  0.00    +0.308 C 
ATOM     13  C   LIG    1       22.446 -21.239   5.820  0.00  0.00    +0.014 C 
ATOM     14  N   LIG    1       25.259 -23.617   5.590  0.00  0.00    -0.300 NA
ATOM     15  C   LIG    1       25.335 -24.975   5.765  0.00  0.00    +0.053 C 
ATOM     16  C   LIG    1       26.410 -25.863   5.647  0.00  0.00    +0.027 C 
ATOM     17  C   LIG    1       26.168 -27.202   5.964  0.00  0.00    +0.012 C 
ENDROOT
BRANCH   1  22
ATOM     18  C   LIG    1       24.561 -30.772   7.955  0.00  0.00    +0.128 A 
ATOM     19  N   LIG    1       24.205 -31.133   6.675  0.00  0.00    -0.346 N 
ATOM     20  H   LIG    1       23.974 -32.068   6.373  0.00  0.00    +0.167 HD
ATOM     21  C   LIG    1       24.239 -30.011   5.895  0.00  0.00    +0.112 A 
ATOM     22  C   LIG    1       24.646 -29.006   6.739  0.00  0.00    +0.089 A 
ATOM     23  N   LIG    1       24.868 -29.491   8.004  0.00  0.00    -0.231 NA
BRANCH  18  26
ATOM     24  C   LIG    1       23.219 -30.687  10.901  0.00  0.00    +0.237 C 
ATOM     25  N   LIG    1       23.334 -31.607   9.874  0.00  0.00    -0.290 N 
ATOM     26  C   LIG    1       24.562 -31.752   9.094  0.00  0.00    +0.142 C 
ATOM     27  C   LIG    1       24.513 -33.202   8.607  0.00  0.00    +0.032 C 
ATOM     28  C   LIG    1       23.030 -33.551   8.524  0.00  0.00    +0.021 C 
ATOM     29  C   LIG    1       22.314 -32.515   9.380  0.00  0.00    +0.108 C 
ATOM     30  O   LIG    1       24.183 -29.972  11.207  0.00  0.00    -0.274 OA
BRANCH  24  31
ATOM     31  C   LIG    1       21.837 -30.522  11.645  0.00  0.00    +0.165 C 
BRANCH  31  33
ATOM     32  C   LIG    1       20.238 -32.464  12.213  0.00  0.00    +0.401 C 
ATOM     33  N   LIG    1       21.461 -31.878  12.092  0.00  0.00    -0.270 N 
ATOM     34  H   LIG    1       22.200 -32.431  12.517  0.00  0.00    +0.153 HD
ATOM     35  O   LIG    1       20.130 -33.665  12.434  0.00  0.00    -0.227 OA
BRANCH  32  37
ATOM     36  C   LIG    1       18.425 -31.583  11.038  0.00  0.00    +0.282 C 
ATOM     37  O   LIG    1       19.204 -31.588  12.248  0.00  0.00    -0.454 OA
ENDBRANCH  32  37
ENDBRANCH  31  33
BRANCH  31  38
ATOM     38  C   LIG    1       21.979 -29.558  12.853  0.00  0.00    +0.012 C 
ATOM     39  C   LIG    1       21.988 -30.272  14.202  0.00  0.00    +0.009 C 
ATOM     40  C   LIG    1       20.891 -28.493  12.929  0.00  0.00    +0.009 C 
ENDBRANCH  31  38
ENDBRANCH  24  31
ENDBRANCH  18  26
ENDBRANCH   1  22
BRANCH   9  41
ATOM     41  C   LIG    1       22.891 -17.785   4.472  0.00  0.00    +0.089 C 
ATOM     42  N   LIG    1       23.814 -16.777   4.523  0.00  0.00    -0.231 NA
ATOM     43  C   LIG    1       23.144 -15.661   4.290  0.00  0.00    +0.128 C 
ATOM     44  N   LIG    1       21.816 -15.941   4.076  0.00  0.00    -0.346 NA
ATOM     45  H   LIG    1       21.081 -15.261   3.944  0.00  0.00    +0.167 HD
ATOM     46  C   LIG    1       21.661 -17.296   4.101  0.00  0.00    +0.112 C 
BRANCH  43  47
ATOM     47  C   LIG    1       23.697 -14.260   4.204  0.00  0.00    +0.142 C 
ATOM     48  N   LIG    1       25.154 -14.297   4.039  0.00  0.00    -0.290 N 
ATOM     49  C   LIG    1       26.067 -14.238   5.085  0.00  0.00    +0.237 C 
ATOM     50  O   LIG    1       25.679 -14.156   6.254  0.00  0.00    -0.274 OA
ATOM     51  C   LIG    1       25.490 -14.362   2.622  0.00  0.00    +0.108 C 
ATOM     52  C   LIG    1       24.171 -14.206   1.864  0.00  0.00    +0.021 C 
ATOM     53  C   LIG    1       23.246 -13.580   2.904  0.00  0.00    +0.032 C 
BRANCH  49  54
ATOM     54  C   LIG    1       27.593 -14.083   4.707  0.00  0.00    +0.165 C 
BRANCH  54  55
ATOM     55  N   LIG    1       28.294 -15.354   4.959  0.00  0.00    -0.270 N 
ATOM     56  H   LIG    1       29.045 -15.401   5.632  0.00  0.00    +0.153 HD
ATOM     57  C   LIG    1       27.967 -16.535   4.324  0.00  0.00    +0.401 C 
ATOM     58  O   LIG    1       27.121 -16.668   3.491  0.00  0.00    -0.227 OA
BRANCH  57  59
ATOM     59  O   LIG    1       28.793 -17.522   4.804  0.00  0.00    -0.454 OA
ATOM     60  C   LIG    1       28.138 -18.682   5.341  0.00  0.00    +0.282 C 
ENDBRANCH  57  59
ENDBRANCH  54  55
BRANCH  54  61
ATOM     61  C   LIG    1       27.913 -13.575   3.268  0.00  0.00    +0.012 C 
ATOM     62  C   LIG    1       27.119 -14.326   2.193  0.00  0.00    +0.009 C 
ATOM     63  C   LIG    1       29.388 -13.575   2.865  0.00  0.00    +0.009 C 
ENDBRANCH  54  61
ENDBRANCH  49  54
ENDBRANCH  43  47
ENDBRANCH   9  41
BRANCH  12  64
ATOM     64  C   LIG    1       27.025 -22.246   6.699  0.00  0.00    +0.014 C 
ATOM     65  C   LIG    1       28.378 -21.863   6.758  0.00  0.00    +0.009 C 
ATOM     66  C   LIG    1       28.980 -21.488   7.957  0.00  0.00    +0.001 C 
ATOM     67  C   LIG    1       28.244 -21.498   9.133  0.00  0.00    +0.000 C 
ATOM     68  C   LIG    1       26.904 -21.883   9.107  0.00  0.00    +0.001 C 
ATOM     69  C   LIG    1       26.297 -22.259   7.902  0.00  0.00    +0.009 C 
ENDBRANCH  12  64
TORSDOF 13
ENDMDL
