MODEL 1
REMARK VINA RESULT:      -7.6      0.000      0.000
REMARK  Name = *****
REMARK                            x       y       z     vdW  Elec       q    Type
REMARK                         _______ _______ _______ _____ _____    ______ ____
ROOT
ATOM      1  C   LIG    1       23.870 -21.712   6.326  0.00  0.00    +0.132 C 
ATOM      2  C   LIG    1       25.366 -22.175   6.424  0.00  0.00    +0.014 C 
ATOM      3  C   LIG    1       26.119 -21.081   5.600  0.00  0.00    +0.002 C 
ATOM      4  C   LIG    1       26.743 -19.899   6.400  0.00  0.00    -0.003 C 
ATOM      5  C   LIG    1       27.400 -20.335   7.735  0.00  0.00    -0.000 C 
ATOM      6  C   LIG    1       26.343 -21.045   8.576  0.00  0.00    +0.005 C 
ATOM      7  C   LIG    1       28.698 -21.145   7.472  0.00  0.00    +0.019 C 
ATOM      8  C   LIG    1       29.638 -20.239   6.699  0.00  0.00    -0.063 C 
ATOM      9  C   LIG    1       30.798 -19.770   7.189  0.00  0.00    +0.045 C 
ATOM     10  C   LIG    1       31.194 -20.040   8.595  0.00  0.00    +0.156 C 
ATOM     11  C   LIG    1       30.188 -20.717   9.495  0.00  0.00    +0.079 C 
ATOM     12  O   LIG    1       32.275 -19.631   9.006  0.00  0.00    -0.293 OA
ATOM     13  C   LIG    1       29.107 -19.813   5.356  0.00  0.00    +0.031 C 
ATOM     14  C   LIG    1       29.386 -21.742   8.712  0.00  0.00    +0.016 C 
ATOM     15  C   LIG    1       27.758 -19.104   5.537  0.00  0.00    +0.008 C 
ATOM     16  C   LIG    1       25.081 -20.548   4.576  0.00  0.00    +0.008 C 
ATOM     17  C   LIG    1       25.841 -22.312   7.906  0.00  0.00    +0.011 C 
ATOM     18  C   LIG    1       23.720 -21.167   4.911  0.00  0.00    +0.049 C 
ENDROOT
BRANCH   1  20
ATOM     19  C   LIG    1       22.195 -23.647   6.950  0.00  0.00    +0.007 C 
ATOM     20  C   LIG    1       22.952 -22.772   6.668  0.00  0.00    -0.070 C 
ENDBRANCH   1  20
BRANCH   2  21
ATOM     21  C   LIG    1       25.651 -23.599   5.798  0.00  0.00    +0.007 C 
ATOM     22  C   LIG    1       25.911 -24.795   6.701  0.00  0.00    +0.004 C 
ENDBRANCH   2  21
BRANCH   1  23
ATOM     23  O   LIG    1       23.639 -20.616   7.213  0.00  0.00    -0.376 OA
ATOM     24  H   LIG    1       22.676 -20.516   7.298  0.00  0.00    +0.211 HD
ENDBRANCH   1  23
TORSDOF 3
ENDMDL
MODEL 2
REMARK VINA RESULT:      -5.5      7.874     10.164
REMARK  Name = *****
REMARK                            x       y       z     vdW  Elec       q    Type
REMARK                         _______ _______ _______ _____ _____    ______ ____
ROOT
ATOM      1  C   LIG    1       25.482 -31.733  10.184  0.00  0.00    +0.132 C 
ATOM      2  C   LIG    1       25.504 -30.165  10.254  0.00  0.00    +0.014 C 
ATOM      3  C   LIG    1       24.228 -29.843  11.098  0.00  0.00    +0.002 C 
ATOM      4  C   LIG    1       24.431 -29.617  12.626  0.00  0.00    -0.003 C 
ATOM      5  C   LIG    1       25.710 -28.810  12.967  0.00  0.00    -0.000 C 
ATOM      6  C   LIG    1       26.909 -29.545  12.375  0.00  0.00    +0.005 C 
ATOM      7  C   LIG    1       25.558 -27.327  12.534  0.00  0.00    +0.019 C 
ATOM      8  C   LIG    1       24.369 -26.764  13.290  0.00  0.00    -0.063 C 
ATOM      9  C   LIG    1       24.463 -25.808  14.229  0.00  0.00    +0.045 C 
ATOM     10  C   LIG    1       25.788 -25.300  14.667  0.00  0.00    +0.156 C 
ATOM     11  C   LIG    1       27.020 -25.995  14.142  0.00  0.00    +0.079 C 
ATOM     12  O   LIG    1       25.844 -24.400  15.500  0.00  0.00    -0.293 OA
ATOM     13  C   LIG    1       23.066 -27.449  12.974  0.00  0.00    +0.031 C 
ATOM     14  C   LIG    1       26.804 -26.441  12.706  0.00  0.00    +0.016 C 
ATOM     15  C   LIG    1       23.189 -28.950  13.271  0.00  0.00    +0.008 C 
ATOM     16  C   LIG    1       23.260 -31.031  10.855  0.00  0.00    +0.008 C 
ATOM     17  C   LIG    1       26.837 -29.624  10.860  0.00  0.00    +0.011 C 
ATOM     18  C   LIG    1       24.010 -32.100  10.053  0.00  0.00    +0.049 C 
ENDROOT
BRANCH   1  20
ATOM     19  C   LIG    1       27.028 -32.656   8.260  0.00  0.00    +0.007 C 
ATOM     20  C   LIG    1       26.330 -32.238   9.130  0.00  0.00    -0.070 C 
ENDBRANCH   1  20
BRANCH   2  21
ATOM     21  C   LIG    1       25.403 -29.448   8.848  0.00  0.00    +0.007 C 
ATOM     22  C   LIG    1       26.240 -28.211   8.558  0.00  0.00    +0.004 C 
ENDBRANCH   2  21
BRANCH   1  23
ATOM     23  O   LIG    1       25.933 -32.283  11.423  0.00  0.00    -0.376 OA
ATOM     24  H   LIG    1       25.430 -31.844  12.129  0.00  0.00    +0.211 HD
ENDBRANCH   1  23
TORSDOF 3
ENDMDL
MODEL 3
REMARK VINA RESULT:      -5.3      8.321     10.780
REMARK  Name = *****
REMARK                            x       y       z     vdW  Elec       q    Type
REMARK                         _______ _______ _______ _____ _____    ______ ____
ROOT
ATOM      1  C   LIG    1       24.657 -33.018   6.685  0.00  0.00    +0.132 C 
ATOM      2  C   LIG    1       24.669 -31.545   7.224  0.00  0.00    +0.014 C 
ATOM      3  C   LIG    1       23.799 -31.647   8.519  0.00  0.00    +0.002 C 
ATOM      4  C   LIG    1       24.558 -31.831   9.867  0.00  0.00    -0.003 C 
ATOM      5  C   LIG    1       25.853 -30.985   9.968  0.00  0.00    -0.000 C 
ATOM      6  C   LIG    1       26.756 -31.355   8.795  0.00  0.00    +0.005 C 
ATOM      7  C   LIG    1       25.516 -29.475  10.098  0.00  0.00    +0.019 C 
ATOM      8  C   LIG    1       24.687 -29.313  11.358  0.00  0.00    -0.063 C 
ATOM      9  C   LIG    1       25.106 -28.653  12.451  0.00  0.00    +0.045 C 
ATOM     10  C   LIG    1       26.487 -28.111  12.529  0.00  0.00    +0.156 C 
ATOM     11  C   LIG    1       27.446 -28.458  11.415  0.00  0.00    +0.079 C 
ATOM     12  O   LIG    1       26.833 -27.480  13.523  0.00  0.00    -0.293 OA
ATOM     13  C   LIG    1       23.376 -30.053  11.326  0.00  0.00    +0.031 C 
ATOM     14  C   LIG    1       26.714 -28.510  10.085  0.00  0.00    +0.016 C 
ATOM     15  C   LIG    1       23.635 -31.546  11.081  0.00  0.00    +0.008 C 
ATOM     16  C   LIG    1       22.837 -32.841   8.277  0.00  0.00    +0.008 C 
ATOM     17  C   LIG    1       26.120 -31.017   7.458  0.00  0.00    +0.011 C 
ATOM     18  C   LIG    1       23.252 -33.532   6.974  0.00  0.00    +0.049 C 
ENDROOT
BRANCH   1  20
ATOM     19  C   LIG    1       25.385 -33.147   4.156  0.00  0.00    +0.007 C 
ATOM     20  C   LIG    1       25.056 -33.089   5.299  0.00  0.00    -0.070 C 
ENDBRANCH   1  20
BRANCH   2  21
ATOM     21  C   LIG    1       24.029 -30.484   6.241  0.00  0.00    +0.007 C 
ATOM     22  C   LIG    1       24.402 -29.013   6.353  0.00  0.00    +0.004 C 
ENDBRANCH   2  21
BRANCH   1  23
ATOM     23  O   LIG    1       25.554 -33.825   7.450  0.00  0.00    -0.376 OA
ATOM     24  H   LIG    1       25.022 -34.518   7.875  0.00  0.00    +0.211 HD
ENDBRANCH   1  23
TORSDOF 3
ENDMDL
MODEL 4
REMARK VINA RESULT:      -5.2      8.804     10.538
REMARK  Name = *****
REMARK                            x       y       z     vdW  Elec       q    Type
REMARK                         _______ _______ _______ _____ _____    ______ ____
ROOT
ATOM      1  C   LIG    1       22.727 -31.786  11.696  0.00  0.00    +0.132 C 
ATOM      2  C   LIG    1       23.427 -30.416  11.385  0.00  0.00    +0.014 C 
ATOM      3  C   LIG    1       22.495 -29.385  12.099  0.00  0.00    +0.002 C 
ATOM      4  C   LIG    1       22.908 -28.932  13.531  0.00  0.00    -0.003 C 
ATOM      5  C   LIG    1       24.434 -28.714  13.694  0.00  0.00    -0.000 C 
ATOM      6  C   LIG    1       25.143 -30.013  13.323  0.00  0.00    +0.005 C 
ATOM      7  C   LIG    1       24.898 -27.455  12.911  0.00  0.00    +0.019 C 
ATOM      8  C   LIG    1       24.138 -26.273  13.483  0.00  0.00    -0.063 C 
ATOM      9  C   LIG    1       24.716 -25.270  14.164  0.00  0.00    +0.045 C 
ATOM     10  C   LIG    1       26.164 -25.310  14.494  0.00  0.00    +0.156 C 
ATOM     11  C   LIG    1       26.925 -26.575  14.180  0.00  0.00    +0.079 C 
ATOM     12  O   LIG    1       26.674 -24.363  15.086  0.00  0.00    -0.293 OA
ATOM     13  C   LIG    1       22.645 -26.369  13.314  0.00  0.00    +0.031 C 
ATOM     14  C   LIG    1       26.414 -27.192  12.890  0.00  0.00    +0.016 C 
ATOM     15  C   LIG    1       22.135 -27.660  13.968  0.00  0.00    +0.008 C 
ATOM     16  C   LIG    1       21.092 -30.049  12.130  0.00  0.00    +0.008 C 
ATOM     17  C   LIG    1       24.912 -30.393  11.871  0.00  0.00    +0.011 C 
ATOM     18  C   LIG    1       21.235 -31.489  11.627  0.00  0.00    +0.049 C 
ENDROOT
BRANCH   1  20
ATOM     19  C   LIG    1       23.551 -33.703  10.087  0.00  0.00    +0.007 C 
ATOM     20  C   LIG    1       23.179 -32.836  10.814  0.00  0.00    -0.070 C 
ENDBRANCH   1  20
BRANCH   2  21
ATOM     21  C   LIG    1       23.522 -30.066   9.846  0.00  0.00    +0.007 C 
ATOM     22  C   LIG    1       24.878 -29.842   9.194  0.00  0.00    +0.004 C 
ENDBRANCH   2  21
BRANCH   1  23
ATOM     23  O   LIG    1       23.005 -32.181  13.041  0.00  0.00    -0.376 OA
ATOM     24  H   LIG    1       22.936 -33.150  13.073  0.00  0.00    +0.211 HD
ENDBRANCH   1  23
TORSDOF 3
ENDMDL
MODEL 5
REMARK VINA RESULT:      -5.1      9.047     11.716
REMARK  Name = *****
REMARK                            x       y       z     vdW  Elec       q    Type
REMARK                         _______ _______ _______ _____ _____    ______ ____
ROOT
ATOM      1  C   LIG    1       23.700 -30.711  11.604  0.00  0.00    +0.132 C 
ATOM      2  C   LIG    1       24.728 -30.409  10.457  0.00  0.00    +0.014 C 
ATOM      3  C   LIG    1       25.631 -31.686  10.461  0.00  0.00    +0.002 C 
ATOM      4  C   LIG    1       25.273 -32.807   9.441  0.00  0.00    -0.003 C 
ATOM      5  C   LIG    1       24.846 -32.266   8.052  0.00  0.00    -0.000 C 
ATOM      6  C   LIG    1       23.657 -31.330   8.251  0.00  0.00    +0.005 C 
ATOM      7  C   LIG    1       26.059 -31.651   7.302  0.00  0.00    +0.019 C 
ATOM      8  C   LIG    1       27.085 -32.757   7.138  0.00  0.00    -0.063 C 
ATOM      9  C   LIG    1       27.439 -33.280   5.953  0.00  0.00    +0.045 C 
ATOM     10  C   LIG    1       26.754 -32.862   4.702  0.00  0.00    +0.156 C 
ATOM     11  C   LIG    1       25.553 -31.957   4.824  0.00  0.00    +0.079 C 
ATOM     12  O   LIG    1       27.123 -33.328   3.628  0.00  0.00    -0.293 OA
ATOM     13  C   LIG    1       27.605 -33.304   8.441  0.00  0.00    +0.031 C 
ATOM     14  C   LIG    1       25.749 -30.968   5.959  0.00  0.00    +0.016 C 
ATOM     15  C   LIG    1       26.434 -33.824   9.285  0.00  0.00    +0.008 C 
ATOM     16  C   LIG    1       25.560 -32.237  11.911  0.00  0.00    +0.008 C 
ATOM     17  C   LIG    1       24.020 -30.121   9.095  0.00  0.00    +0.011 C 
ATOM     18  C   LIG    1       24.509 -31.427  12.677  0.00  0.00    +0.049 C 
ENDROOT
BRANCH   1  20
ATOM     19  C   LIG    1       22.464 -28.531  12.419  0.00  0.00    +0.007 C 
ATOM     20  C   LIG    1       23.023 -29.516  12.050  0.00  0.00    -0.070 C 
ENDBRANCH   1  20
BRANCH   2  21
ATOM     21  C   LIG    1       25.623 -29.129  10.702  0.00  0.00    +0.007 C 
ATOM     22  C   LIG    1       26.585 -28.649   9.625  0.00  0.00    +0.004 C 
ENDBRANCH   2  21
BRANCH   1  23
ATOM     23  O   LIG    1       22.716 -31.639  11.145  0.00  0.00    -0.376 OA
ATOM     24  H   LIG    1       23.185 -32.331  10.650  0.00  0.00    +0.211 HD
ENDBRANCH   1  23
TORSDOF 3
ENDMDL
MODEL 6
REMARK VINA RESULT:      -5.0      8.484     11.301
REMARK  Name = *****
REMARK                            x       y       z     vdW  Elec       q    Type
REMARK                         _______ _______ _______ _____ _____    ______ ____
ROOT
ATOM      1  C   LIG    1       26.365 -29.457  12.980  0.00  0.00    +0.132 C 
ATOM      2  C   LIG    1       25.137 -29.640  12.019  0.00  0.00    +0.014 C 
ATOM      3  C   LIG    1       25.614 -28.925  10.714  0.00  0.00    +0.002 C 
ATOM      4  C   LIG    1       26.237 -29.824   9.604  0.00  0.00    -0.003 C 
ATOM      5  C   LIG    1       25.508 -31.179   9.424  0.00  0.00    -0.000 C 
ATOM      6  C   LIG    1       25.518 -31.907  10.766  0.00  0.00    +0.005 C 
ATOM      7  C   LIG    1       24.105 -30.971   8.791  0.00  0.00    +0.019 C 
ATOM      8  C   LIG    1       24.322 -30.312   7.441  0.00  0.00    -0.063 C 
ATOM      9  C   LIG    1       24.054 -30.906   6.266  0.00  0.00    +0.045 C 
ATOM     10  C   LIG    1       23.608 -32.322   6.214  0.00  0.00    +0.156 C 
ATOM     11  C   LIG    1       23.617 -33.113   7.499  0.00  0.00    +0.079 C 
ATOM     12  O   LIG    1       23.334 -32.828   5.130  0.00  0.00    -0.293 OA
ATOM     13  C   LIG    1       24.973 -28.957   7.522  0.00  0.00    +0.031 C 
ATOM     14  C   LIG    1       23.225 -32.227   8.668  0.00  0.00    +0.016 C 
ATOM     15  C   LIG    1       26.320 -29.075   8.248  0.00  0.00    +0.008 C 
ATOM     16  C   LIG    1       26.640 -27.857  11.179  0.00  0.00    +0.008 C 
ATOM     17  C   LIG    1       24.756 -31.143  11.834  0.00  0.00    +0.011 C 
ATOM     18  C   LIG    1       26.898 -28.063  12.675  0.00  0.00    +0.049 C 
ENDROOT
BRANCH   1  20
ATOM     19  C   LIG    1       25.714 -29.868  15.500  0.00  0.00    +0.007 C 
ATOM     20  C   LIG    1       26.008 -29.681  14.361  0.00  0.00    -0.070 C 
ENDBRANCH   1  20
BRANCH   2  21
ATOM     21  C   LIG    1       23.801 -28.967  12.532  0.00  0.00    +0.007 C 
ATOM     22  C   LIG    1       22.460 -29.384  11.948  0.00  0.00    +0.004 C 
ENDBRANCH   2  21
BRANCH   1  23
ATOM     23  O   LIG    1       27.399 -30.378  12.630  0.00  0.00    -0.376 OA
ATOM     24  H   LIG    1       27.902 -29.977  11.901  0.00  0.00    +0.211 HD
ENDBRANCH   1  23
TORSDOF 3
ENDMDL
MODEL 7
REMARK VINA RESULT:      -4.9      9.875     12.525
REMARK  Name = *****
REMARK                            x       y       z     vdW  Elec       q    Type
REMARK                         _______ _______ _______ _____ _____    ______ ____
ROOT
ATOM      1  C   LIG    1       24.304 -30.323  11.646  0.00  0.00    +0.132 C 
ATOM      2  C   LIG    1       23.407 -30.220  12.930  0.00  0.00    +0.014 C 
ATOM      3  C   LIG    1       23.438 -28.690  13.248  0.00  0.00    +0.002 C 
ATOM      4  C   LIG    1       22.253 -27.833  12.713  0.00  0.00    -0.003 C 
ATOM      5  C   LIG    1       20.877 -28.537  12.833  0.00  0.00    -0.000 C 
ATOM      6  C   LIG    1       20.954 -29.864  12.083  0.00  0.00    +0.005 C 
ATOM      7  C   LIG    1       20.436 -28.636  14.319  0.00  0.00    +0.019 C 
ATOM      8  C   LIG    1       20.344 -27.218  14.850  0.00  0.00    -0.063 C 
ATOM      9  C   LIG    1       19.195 -26.630  15.219  0.00  0.00    +0.045 C 
ATOM     10  C   LIG    1       17.893 -27.319  15.031  0.00  0.00    +0.156 C 
ATOM     11  C   LIG    1       17.888 -28.626  14.275  0.00  0.00    +0.079 C 
ATOM     12  O   LIG    1       16.861 -26.774  15.412  0.00  0.00    -0.293 OA
ATOM     13  C   LIG    1       21.653 -26.473  14.829  0.00  0.00    +0.031 C 
ATOM     14  C   LIG    1       19.142 -29.423  14.590  0.00  0.00    +0.016 C 
ATOM     15  C   LIG    1       22.204 -26.441  13.397  0.00  0.00    +0.008 C 
ATOM     16  C   LIG    1       24.780 -28.174  12.664  0.00  0.00    +0.008 C 
ATOM     17  C   LIG    1       21.978 -30.804  12.695  0.00  0.00    +0.011 C 
ATOM     18  C   LIG    1       25.424 -29.314  11.868  0.00  0.00    +0.049 C 
ENDROOT
BRANCH   1  20
ATOM     19  C   LIG    1       25.110 -32.792  11.203  0.00  0.00    +0.007 C 
ATOM     20  C   LIG    1       24.745 -31.676  11.403  0.00  0.00    -0.070 C 
ENDBRANCH   1  20
BRANCH   2  21
ATOM     21  C   LIG    1       23.952 -31.029  14.174  0.00  0.00    +0.007 C 
ATOM     22  C   LIG    1       24.244 -30.314  15.485  0.00  0.00    +0.004 C 
ENDBRANCH   2  21
BRANCH   1  23
ATOM     23  O   LIG    1       23.572 -29.878  10.503  0.00  0.00    -0.376 OA
ATOM     24  H   LIG    1       22.658 -29.720  10.793  0.00  0.00    +0.211 HD
ENDBRANCH   1  23
TORSDOF 3
ENDMDL
MODEL 8
REMARK VINA RESULT:      -4.9      8.822     10.626
REMARK  Name = *****
REMARK                            x       y       z     vdW  Elec       q    Type
REMARK                         _______ _______ _______ _____ _____    ______ ____
ROOT
ATOM      1  C   LIG    1       24.062 -31.827   6.218  0.00  0.00    +0.132 C 
ATOM      2  C   LIG    1       24.487 -32.079   7.708  0.00  0.00    +0.014 C 
ATOM      3  C   LIG    1       25.647 -31.051   7.911  0.00  0.00    +0.002 C 
ATOM      4  C   LIG    1       25.275 -29.685   8.560  0.00  0.00    -0.003 C 
ATOM      5  C   LIG    1       24.249 -29.809   9.716  0.00  0.00    -0.000 C 
ATOM      6  C   LIG    1       23.000 -30.497   9.172  0.00  0.00    +0.005 C 
ATOM      7  C   LIG    1       24.895 -30.484  10.956  0.00  0.00    +0.019 C 
ATOM      8  C   LIG    1       26.058 -29.609  11.382  0.00  0.00    -0.063 C 
ATOM      9  C   LIG    1       26.096 -28.926  12.539  0.00  0.00    +0.045 C 
ATOM     10  C   LIG    1       24.924 -28.908  13.451  0.00  0.00    +0.156 C 
ATOM     11  C   LIG    1       23.644 -29.547  12.969  0.00  0.00    +0.079 C 
ATOM     12  O   LIG    1       25.000 -28.306  14.518  0.00  0.00    -0.293 OA
ATOM     13  C   LIG    1       27.138 -29.480  10.341  0.00  0.00    +0.031 C 
ATOM     14  C   LIG    1       23.950 -30.779  12.135  0.00  0.00    +0.016 C 
ATOM     15  C   LIG    1       26.537 -28.924   9.043  0.00  0.00    +0.008 C 
ATOM     16  C   LIG    1       26.253 -30.828   6.499  0.00  0.00    +0.008 C 
ATOM     17  C   LIG    1       23.290 -31.909   8.696  0.00  0.00    +0.011 C 
ATOM     18  C   LIG    1       25.365 -31.547   5.480  0.00  0.00    +0.049 C 
ENDROOT
BRANCH   1  20
ATOM     19  C   LIG    1       22.645 -33.825   5.245  0.00  0.00    +0.007 C 
ATOM     20  C   LIG    1       23.286 -32.922   5.685  0.00  0.00    -0.070 C 
ENDBRANCH   1  20
BRANCH   2  21
ATOM     21  C   LIG    1       25.019 -33.540   7.997  0.00  0.00    +0.007 C 
ATOM     22  C   LIG    1       26.146 -33.762   8.994  0.00  0.00    +0.004 C 
ENDBRANCH   2  21
BRANCH   1  23
ATOM     23  O   LIG    1       23.276 -30.637   6.129  0.00  0.00    -0.376 OA
ATOM     24  H   LIG    1       23.305 -30.212   7.003  0.00  0.00    +0.211 HD
ENDBRANCH   1  23
TORSDOF 3
ENDMDL
MODEL 9
REMARK VINA RESULT:      -4.9      8.822     11.191
REMARK  Name = *****
REMARK                            x       y       z     vdW  Elec       q    Type
REMARK                         _______ _______ _______ _____ _____    ______ ____
ROOT
ATOM      1  C   LIG    1       20.097 -31.004  12.753  0.00  0.00    +0.132 C 
ATOM      2  C   LIG    1       21.265 -30.403  13.613  0.00  0.00    +0.014 C 
ATOM      3  C   LIG    1       22.515 -30.639  12.705  0.00  0.00    +0.002 C 
ATOM      4  C   LIG    1       22.967 -29.453  11.802  0.00  0.00    -0.003 C 
ATOM      5  C   LIG    1       22.870 -28.073  12.501  0.00  0.00    -0.000 C 
ATOM      6  C   LIG    1       21.428 -27.872  12.959  0.00  0.00    +0.005 C 
ATOM      7  C   LIG    1       23.947 -27.939  13.611  0.00  0.00    +0.019 C 
ATOM      8  C   LIG    1       25.298 -28.090  12.938  0.00  0.00    -0.063 C 
ATOM      9  C   LIG    1       26.201 -27.099  12.842  0.00  0.00    +0.045 C 
ATOM     10  C   LIG    1       25.880 -25.729  13.316  0.00  0.00    +0.156 C 
ATOM     11  C   LIG    1       24.465 -25.449  13.761  0.00  0.00    +0.079 C 
ATOM     12  O   LIG    1       26.736 -24.852  13.250  0.00  0.00    -0.293 OA
ATOM     13  C   LIG    1       25.508 -29.428  12.283  0.00  0.00    +0.031 C 
ATOM     14  C   LIG    1       23.883 -26.662  14.466  0.00  0.00    +0.016 C 
ATOM     15  C   LIG    1       24.400 -29.674  11.250  0.00  0.00    +0.008 C 
ATOM     16  C   LIG    1       22.165 -31.875  11.833  0.00  0.00    +0.008 C 
ATOM     17  C   LIG    1       21.009 -28.908  13.987  0.00  0.00    +0.011 C 
ATOM     18  C   LIG    1       20.696 -32.233  12.082  0.00  0.00    +0.049 C 
ENDROOT
BRANCH   1  20
ATOM     19  C   LIG    1       17.946 -31.471  14.201  0.00  0.00    +0.007 C 
ATOM     20  C   LIG    1       18.919 -31.260  13.547  0.00  0.00    -0.070 C 
ENDBRANCH   1  20
BRANCH   2  21
ATOM     21  C   LIG    1       21.482 -31.115  15.008  0.00  0.00    +0.007 C 
ATOM     22  C   LIG    1       22.889 -31.422  15.500  0.00  0.00    +0.004 C 
ENDBRANCH   2  21
BRANCH   1  23
ATOM     23  O   LIG    1       19.744 -30.097  11.708  0.00  0.00    -0.376 OA
ATOM     24  H   LIG    1       20.375 -29.358  11.747  0.00  0.00    +0.211 HD
ENDBRANCH   1  23
TORSDOF 3
ENDMDL
