MODEL 1
REMARK VINA RESULT:     -10.8      0.000      0.000
REMARK  Name = *****
REMARK                            x       y       z     vdW  Elec       q    Type
REMARK                         _______ _______ _______ _____ _____    ______ ____
ROOT
ATOM      1  C   LIG    1       27.816 -21.781   7.508  0.00  0.00    +0.267 C 
ENDROOT
BRANCH   1   2
ATOM      2  C   LIG    1       28.578 -20.627   6.913  0.00  0.00    -0.007 A 
ATOM      3  C   LIG    1       29.792 -20.240   7.493  0.00  0.00    +0.053 A 
ATOM      4  C   LIG    1       30.453 -19.085   7.069  0.00  0.00    +0.129 A 
ATOM      5  C   LIG    1       29.907 -18.330   6.026  0.00  0.00    +0.046 A 
ATOM      6  C   LIG    1       28.743 -18.758   5.381  0.00  0.00    +0.004 A 
ATOM      7  C   LIG    1       28.078 -19.900   5.826  0.00  0.00    +0.007 A 
BRANCH   4   8
ATOM      8  O   LIG    1       31.579 -18.572   7.685  0.00  0.00    -0.456 OA
BRANCH   8   9
ATOM      9  C   LIG    1       31.450 -17.858   8.859  0.00  0.00    +0.128 A 
ATOM     10  C   LIG    1       32.383 -16.846   9.105  0.00  0.00    +0.046 A 
ATOM     11  C   LIG    1       32.328 -16.120  10.299  0.00  0.00    +0.004 A 
ATOM     12  C   LIG    1       31.328 -16.387  11.236  0.00  0.00    +0.000 A 
ATOM     13  C   LIG    1       30.403 -17.399  10.994  0.00  0.00    +0.004 A 
ATOM     14  C   LIG    1       30.487 -18.156   9.826  0.00  0.00    +0.046 A 
ENDBRANCH   8   9
ENDBRANCH   4   8
ENDBRANCH   1   2
BRANCH   1  15
ATOM     15  O   LIG    1       26.453 -21.755   7.091  0.00  0.00    -0.460 OA
BRANCH  15  16
ATOM     16  C   LIG    1       25.558 -21.517   8.075  0.00  0.00    +0.312 C 
ATOM     17  O   LIG    1       25.827 -21.091   9.201  0.00  0.00    -0.251 OA
BRANCH  16  20
ATOM     18  C   LIG    1       24.880 -23.619   5.771  0.00  0.00    +0.012 C 
ATOM     19  C   LIG    1       23.831 -22.859   6.550  0.00  0.00    -0.014 C 
ATOM     20  C   LIG    1       24.192 -21.850   7.635  0.00  0.00    +0.111 C 
ATOM     21  C   LIG    1       23.618 -21.368   6.321  0.00  0.00    +0.035 C 
ATOM     22  C   LIG    1       22.589 -23.687   6.789  0.00  0.00    +0.012 C 
BRANCH  21  23
ATOM     23  C   LIG    1       24.440 -20.600   5.369  0.00  0.00    +0.010 C 
ATOM     24  C   LIG    1       24.048 -19.596   4.569  0.00  0.00    +0.103 C 
ATOM     25 CL   LIG    1       25.176 -18.845   3.496  0.00  0.00    -0.071 Cl
ATOM     26 CL   LIG    1       22.425 -19.009   4.549  0.00  0.00    -0.071 Cl
ENDBRANCH  21  23
ENDBRANCH  16  20
ENDBRANCH  15  16
ENDBRANCH   1  15
TORSDOF 7
ENDMDL
MODEL 2
REMARK VINA RESULT:     -10.4      2.297      3.002
REMARK  Name = *****
REMARK                            x       y       z     vdW  Elec       q    Type
REMARK                         _______ _______ _______ _____ _____    ______ ____
ROOT
ATOM      1  C   LIG    1       28.145 -21.786   7.553  0.00  0.00    +0.267 C 
ENDROOT
BRANCH   1   2
ATOM      2  C   LIG    1       28.902 -20.614   6.985  0.00  0.00    -0.007 A 
ATOM      3  C   LIG    1       30.114 -20.235   7.575  0.00  0.00    +0.053 A 
ATOM      4  C   LIG    1       30.770 -19.067   7.178  0.00  0.00    +0.129 A 
ATOM      5  C   LIG    1       30.221 -18.292   6.152  0.00  0.00    +0.046 A 
ATOM      6  C   LIG    1       29.060 -18.710   5.496  0.00  0.00    +0.004 A 
ATOM      7  C   LIG    1       28.400 -19.865   5.914  0.00  0.00    +0.007 A 
BRANCH   4   8
ATOM      8  O   LIG    1       31.892 -18.564   7.807  0.00  0.00    -0.456 OA
BRANCH   8   9
ATOM      9  C   LIG    1       31.755 -17.841   8.974  0.00  0.00    +0.128 A 
ATOM     10  C   LIG    1       30.715 -18.201   9.838  0.00  0.00    +0.046 A 
ATOM     11  C   LIG    1       30.500 -17.475  11.014  0.00  0.00    +0.004 A 
ATOM     12  C   LIG    1       31.337 -16.407  11.340  0.00  0.00    +0.000 A 
ATOM     13  C   LIG    1       32.369 -16.044  10.477  0.00  0.00    +0.004 A 
ATOM     14  C   LIG    1       32.553 -16.736   9.281  0.00  0.00    +0.046 A 
ENDBRANCH   8   9
ENDBRANCH   4   8
ENDBRANCH   1   2
BRANCH   1  15
ATOM     15  O   LIG    1       27.315 -21.373   8.636  0.00  0.00    -0.460 OA
BRANCH  15  16
ATOM     16  C   LIG    1       25.998 -21.630   8.478  0.00  0.00    +0.312 C 
ATOM     17  O   LIG    1       25.204 -21.889   9.387  0.00  0.00    -0.251 OA
BRANCH  16  20
ATOM     18  C   LIG    1       23.142 -22.504   7.353  0.00  0.00    +0.012 C 
ATOM     19  C   LIG    1       24.261 -21.971   6.485  0.00  0.00    -0.014 C 
ATOM     20  C   LIG    1       25.618 -21.577   7.055  0.00  0.00    +0.111 C 
ATOM     21  C   LIG    1       25.494 -22.817   6.198  0.00  0.00    +0.035 C 
ATOM     22  C   LIG    1       23.742 -21.128   5.343  0.00  0.00    +0.012 C 
BRANCH  21  23
ATOM     23  C   LIG    1       25.669 -24.162   6.776  0.00  0.00    +0.010 C 
ATOM     24  C   LIG    1       25.525 -25.345   6.159  0.00  0.00    +0.103 C 
ATOM     25 CL   LIG    1       25.749 -26.817   7.037  0.00  0.00    -0.071 Cl
ATOM     26 CL   LIG    1       25.101 -25.474   4.491  0.00  0.00    -0.071 Cl
ENDBRANCH  21  23
ENDBRANCH  16  20
ENDBRANCH  15  16
ENDBRANCH   1  15
TORSDOF 7
ENDMDL
MODEL 3
REMARK VINA RESULT:     -10.3      2.182      3.241
REMARK  Name = *****
REMARK                            x       y       z     vdW  Elec       q    Type
REMARK                         _______ _______ _______ _____ _____    ______ ____
ROOT
ATOM      1  C   LIG    1       27.434 -19.539   4.951  0.00  0.00    +0.267 C 
ENDROOT
BRANCH   1   2
ATOM      2  C   LIG    1       28.408 -19.779   6.075  0.00  0.00    -0.007 A 
ATOM      3  C   LIG    1       29.308 -18.766   6.425  0.00  0.00    +0.053 A 
ATOM      4  C   LIG    1       30.324 -19.000   7.355  0.00  0.00    +0.129 A 
ATOM      5  C   LIG    1       30.414 -20.255   7.966  0.00  0.00    +0.046 A 
ATOM      6  C   LIG    1       29.465 -21.243   7.689  0.00  0.00    +0.004 A 
ATOM      7  C   LIG    1       28.468 -21.007   6.743  0.00  0.00    +0.007 A 
BRANCH   4   8
ATOM      8  O   LIG    1       31.325 -18.093   7.645  0.00  0.00    -0.456 OA
BRANCH   8   9
ATOM      9  C   LIG    1       31.422 -17.565   8.915  0.00  0.00    +0.128 A 
ATOM     10  C   LIG    1       30.306 -17.679   9.749  0.00  0.00    +0.046 A 
ATOM     11  C   LIG    1       30.331 -17.123  11.033  0.00  0.00    +0.004 A 
ATOM     12  C   LIG    1       31.478 -16.474  11.491  0.00  0.00    +0.000 A 
ATOM     13  C   LIG    1       32.588 -16.353  10.658  0.00  0.00    +0.004 A 
ATOM     14  C   LIG    1       32.546 -16.865   9.362  0.00  0.00    +0.046 A 
ENDBRANCH   8   9
ENDBRANCH   4   8
ENDBRANCH   1   2
BRANCH   1  15
ATOM     15  O   LIG    1       26.324 -20.428   5.048  0.00  0.00    -0.460 OA
BRANCH  15  16
ATOM     16  C   LIG    1       25.267 -20.111   4.266  0.00  0.00    +0.312 C 
ATOM     17  O   LIG    1       25.245 -19.214   3.419  0.00  0.00    -0.251 OA
BRANCH  16  20
ATOM     18  C   LIG    1       22.474 -19.054   5.393  0.00  0.00    +0.012 C 
ATOM     19  C   LIG    1       22.762 -20.507   5.088  0.00  0.00    -0.014 C 
ATOM     20  C   LIG    1       24.114 -20.979   4.565  0.00  0.00    +0.111 C 
ATOM     21  C   LIG    1       23.694 -21.320   5.977  0.00  0.00    +0.035 C 
ATOM     22  C   LIG    1       21.546 -21.227   4.551  0.00  0.00    +0.012 C 
BRANCH  21  23
ATOM     23  C   LIG    1       24.380 -20.725   7.139  0.00  0.00    +0.010 C 
ATOM     24  C   LIG    1       25.252 -21.318   7.968  0.00  0.00    +0.103 C 
ATOM     25 CL   LIG    1       25.923 -20.441   9.298  0.00  0.00    -0.071 Cl
ATOM     26 CL   LIG    1       25.742 -22.962   7.775  0.00  0.00    -0.071 Cl
ENDBRANCH  21  23
ENDBRANCH  16  20
ENDBRANCH  15  16
ENDBRANCH   1  15
TORSDOF 7
ENDMDL
MODEL 4
REMARK VINA RESULT:      -9.7      2.345      3.307
REMARK  Name = *****
REMARK                            x       y       z     vdW  Elec       q    Type
REMARK                         _______ _______ _______ _____ _____    ______ ____
ROOT
ATOM      1  C   LIG    1       28.431 -19.711   5.785  0.00  0.00    +0.267 C 
ENDROOT
BRANCH   1   2
ATOM      2  C   LIG    1       29.411 -19.684   6.927  0.00  0.00    -0.007 A 
ATOM      3  C   LIG    1       30.064 -18.485   7.236  0.00  0.00    +0.053 A 
ATOM      4  C   LIG    1       31.089 -18.450   8.185  0.00  0.00    +0.129 A 
ATOM      5  C   LIG    1       31.436 -19.626   8.857  0.00  0.00    +0.046 A 
ATOM      6  C   LIG    1       30.729 -20.808   8.620  0.00  0.00    +0.004 A 
ATOM      7  C   LIG    1       29.723 -20.838   7.655  0.00  0.00    +0.007 A 
BRANCH   4   8
ATOM      8  O   LIG    1       31.864 -17.335   8.439  0.00  0.00    -0.456 OA
BRANCH   8   9
ATOM      9  C   LIG    1       32.038 -16.905   9.738  0.00  0.00    +0.128 A 
ATOM     10  C   LIG    1       31.261 -17.513  10.729  0.00  0.00    +0.046 A 
ATOM     11  C   LIG    1       31.362 -17.086  12.058  0.00  0.00    +0.004 A 
ATOM     12  C   LIG    1       32.256 -16.070  12.401  0.00  0.00    +0.000 A 
ATOM     13  C   LIG    1       33.025 -15.460  11.413  0.00  0.00    +0.004 A 
ATOM     14  C   LIG    1       32.889 -15.851  10.081  0.00  0.00    +0.046 A 
ENDBRANCH   8   9
ENDBRANCH   4   8
ENDBRANCH   1   2
BRANCH   1  15
ATOM     15  O   LIG    1       27.570 -20.843   5.887  0.00  0.00    -0.460 OA
BRANCH  15  16
ATOM     16  C   LIG    1       26.365 -20.597   6.448  0.00  0.00    +0.312 C 
ATOM     17  O   LIG    1       26.181 -20.155   7.585  0.00  0.00    -0.251 OA
BRANCH  16  20
ATOM     18  C   LIG    1       23.393 -21.310   7.368  0.00  0.00    +0.012 C 
ATOM     19  C   LIG    1       23.840 -21.272   5.923  0.00  0.00    -0.014 C 
ATOM     20  C   LIG    1       25.272 -20.943   5.521  0.00  0.00    +0.111 C 
ATOM     21  C   LIG    1       24.753 -22.355   5.362  0.00  0.00    +0.035 C 
ATOM     22  C   LIG    1       22.751 -20.768   5.005  0.00  0.00    +0.012 C 
BRANCH  21  23
ATOM     23  C   LIG    1       25.269 -23.452   6.200  0.00  0.00    +0.010 C 
ATOM     24  C   LIG    1       25.353 -24.754   5.886  0.00  0.00    +0.103 C 
ATOM     25 CL   LIG    1       25.966 -25.890   7.035  0.00  0.00    -0.071 Cl
ATOM     26 CL   LIG    1       24.854 -25.370   4.352  0.00  0.00    -0.071 Cl
ENDBRANCH  21  23
ENDBRANCH  16  20
ENDBRANCH  15  16
ENDBRANCH   1  15
TORSDOF 7
ENDMDL
MODEL 5
REMARK VINA RESULT:      -9.5      5.785      7.969
REMARK  Name = *****
REMARK                            x       y       z     vdW  Elec       q    Type
REMARK                         _______ _______ _______ _____ _____    ______ ____
ROOT
ATOM      1  C   LIG    1       26.051 -25.819   6.412  0.00  0.00    +0.267 C 
ENDROOT
BRANCH   1   2
ATOM      2  C   LIG    1       25.122 -24.645   6.573  0.00  0.00    -0.007 A 
ATOM      3  C   LIG    1       25.651 -23.404   6.948  0.00  0.00    +0.053 A 
ATOM      4  C   LIG    1       24.812 -22.330   7.254  0.00  0.00    +0.129 A 
ATOM      5  C   LIG    1       23.427 -22.495   7.149  0.00  0.00    +0.046 A 
ATOM      6  C   LIG    1       22.894 -23.702   6.689  0.00  0.00    +0.004 A 
ATOM      7  C   LIG    1       23.739 -24.775   6.407  0.00  0.00    +0.007 A 
BRANCH   4   8
ATOM      8  O   LIG    1       25.259 -21.124   7.759  0.00  0.00    -0.456 OA
BRANCH   8   9
ATOM      9  C   LIG    1       26.453 -20.597   7.314  0.00  0.00    +0.128 A 
ATOM     10  C   LIG    1       26.554 -20.287   5.954  0.00  0.00    +0.046 A 
ATOM     11  C   LIG    1       27.756 -19.791   5.437  0.00  0.00    +0.004 A 
ATOM     12  C   LIG    1       28.848 -19.582   6.281  0.00  0.00    +0.000 A 
ATOM     13  C   LIG    1       28.749 -19.897   7.634  0.00  0.00    +0.004 A 
ATOM     14  C   LIG    1       27.568 -20.437   8.141  0.00  0.00    +0.046 A 
ENDBRANCH   8   9
ENDBRANCH   4   8
ENDBRANCH   1   2
BRANCH   1  15
ATOM     15  O   LIG    1       25.548 -26.958   7.107  0.00  0.00    -0.460 OA
BRANCH  15  16
ATOM     16  C   LIG    1       25.283 -28.031   6.329  0.00  0.00    +0.312 C 
ATOM     17  O   LIG    1       25.742 -28.231   5.201  0.00  0.00    -0.251 OA
BRANCH  16  20
ATOM     18  C   LIG    1       26.112 -30.047   8.661  0.00  0.00    +0.012 C 
ATOM     19  C   LIG    1       24.703 -29.912   8.127  0.00  0.00    -0.014 C 
ATOM     20  C   LIG    1       24.346 -28.949   7.001  0.00  0.00    +0.111 C 
ATOM     21  C   LIG    1       24.340 -30.440   6.745  0.00  0.00    +0.035 C 
ATOM     22  C   LIG    1       23.664 -30.094   9.211  0.00  0.00    +0.012 C 
BRANCH  21  23
ATOM     23  C   LIG    1       25.341 -31.063   5.860  0.00  0.00    +0.010 C 
ATOM     24  C   LIG    1       25.218 -32.197   5.153  0.00  0.00    +0.103 C 
ATOM     25 CL   LIG    1       26.536 -32.772   4.194  0.00  0.00    -0.071 Cl
ATOM     26 CL   LIG    1       23.774 -33.143   5.164  0.00  0.00    -0.071 Cl
ENDBRANCH  21  23
ENDBRANCH  16  20
ENDBRANCH  15  16
ENDBRANCH   1  15
TORSDOF 7
ENDMDL
MODEL 6
REMARK VINA RESULT:      -9.4      6.850      9.395
REMARK  Name = *****
REMARK                            x       y       z     vdW  Elec       q    Type
REMARK                         _______ _______ _______ _____ _____    ______ ____
ROOT
ATOM      1  C   LIG    1       24.329 -26.582   5.903  0.00  0.00    +0.267 C 
ENDROOT
BRANCH   1   2
ATOM      2  C   LIG    1       24.570 -25.194   6.437  0.00  0.00    -0.007 A 
ATOM      3  C   LIG    1       23.567 -24.227   6.300  0.00  0.00    +0.053 A 
ATOM      4  C   LIG    1       23.804 -22.894   6.644  0.00  0.00    +0.129 A 
ATOM      5  C   LIG    1       25.051 -22.536   7.165  0.00  0.00    +0.046 A 
ATOM      6  C   LIG    1       26.027 -23.511   7.390  0.00  0.00    +0.004 A 
ATOM      7  C   LIG    1       25.789 -24.835   7.023  0.00  0.00    +0.007 A 
BRANCH   4   8
ATOM      8  O   LIG    1       22.910 -21.868   6.408  0.00  0.00    -0.456 OA
BRANCH   8   9
ATOM      9  C   LIG    1       23.196 -20.919   5.448  0.00  0.00    +0.128 A 
ATOM     10  C   LIG    1       22.460 -19.730   5.476  0.00  0.00    +0.046 A 
ATOM     11  C   LIG    1       22.676 -18.751   4.501  0.00  0.00    +0.004 A 
ATOM     12  C   LIG    1       23.642 -18.949   3.512  0.00  0.00    +0.000 A 
ATOM     13  C   LIG    1       24.370 -20.136   3.480  0.00  0.00    +0.004 A 
ATOM     14  C   LIG    1       24.121 -21.132   4.423  0.00  0.00    +0.046 A 
ENDBRANCH   8   9
ENDBRANCH   4   8
ENDBRANCH   1   2
BRANCH   1  15
ATOM     15  O   LIG    1       24.924 -27.560   6.752  0.00  0.00    -0.460 OA
BRANCH  15  16
ATOM     16  C   LIG    1       24.837 -28.833   6.308  0.00  0.00    +0.312 C 
ATOM     17  O   LIG    1       25.199 -29.231   5.197  0.00  0.00    -0.251 OA
BRANCH  16  20
ATOM     18  C   LIG    1       26.205 -29.541   9.103  0.00  0.00    +0.012 C 
ATOM     19  C   LIG    1       24.846 -30.052   8.679  0.00  0.00    -0.014 C 
ATOM     20  C   LIG    1       24.230 -29.706   7.329  0.00  0.00    +0.111 C 
ATOM     21  C   LIG    1       24.718 -31.113   7.593  0.00  0.00    +0.035 C 
ATOM     22  C   LIG    1       23.891 -30.164   9.844  0.00  0.00    +0.012 C 
BRANCH  21  23
ATOM     23  C   LIG    1       25.894 -31.654   6.888  0.00  0.00    +0.010 C 
ATOM     24  C   LIG    1       26.770 -32.568   7.335  0.00  0.00    +0.103 C 
ATOM     25 CL   LIG    1       28.108 -33.046   6.351  0.00  0.00    -0.071 Cl
ATOM     26 CL   LIG    1       26.629 -33.301   8.891  0.00  0.00    -0.071 Cl
ENDBRANCH  21  23
ENDBRANCH  16  20
ENDBRANCH  15  16
ENDBRANCH   1  15
TORSDOF 7
ENDMDL
MODEL 7
REMARK VINA RESULT:      -9.4      3.587      8.598
REMARK  Name = *****
REMARK                            x       y       z     vdW  Elec       q    Type
REMARK                         _______ _______ _______ _____ _____    ______ ____
ROOT
ATOM      1  C   LIG    1       26.598 -20.785   8.040  0.00  0.00    +0.267 C 
ENDROOT
BRANCH   1   2
ATOM      2  C   LIG    1       25.577 -21.786   7.567  0.00  0.00    -0.007 A 
ATOM      3  C   LIG    1       26.011 -22.949   6.920  0.00  0.00    +0.053 A 
ATOM      4  C   LIG    1       25.097 -23.828   6.335  0.00  0.00    +0.129 A 
ATOM      5  C   LIG    1       23.729 -23.553   6.431  0.00  0.00    +0.046 A 
ATOM      6  C   LIG    1       23.283 -22.443   7.152  0.00  0.00    +0.004 A 
ATOM      7  C   LIG    1       24.204 -21.559   7.715  0.00  0.00    +0.007 A 
BRANCH   4   8
ATOM      8  O   LIG    1       25.461 -24.917   5.566  0.00  0.00    -0.456 OA
BRANCH   8   9
ATOM      9  C   LIG    1       25.271 -26.193   6.055  0.00  0.00    +0.128 A 
ATOM     10  C   LIG    1       26.050 -26.588   7.147  0.00  0.00    +0.046 A 
ATOM     11  C   LIG    1       25.932 -27.885   7.658  0.00  0.00    +0.004 A 
ATOM     12  C   LIG    1       25.020 -28.779   7.093  0.00  0.00    +0.000 A 
ATOM     13  C   LIG    1       24.249 -28.388   6.001  0.00  0.00    +0.004 A 
ATOM     14  C   LIG    1       24.401 -27.111   5.462  0.00  0.00    +0.046 A 
ENDBRANCH   8   9
ENDBRANCH   4   8
ENDBRANCH   1   2
BRANCH   1  15
ATOM     15  O   LIG    1       27.664 -21.437   8.725  0.00  0.00    -0.460 OA
BRANCH  15  16
ATOM     16  C   LIG    1       28.905 -21.064   8.341  0.00  0.00    +0.312 C 
ATOM     17  O   LIG    1       29.946 -21.683   8.579  0.00  0.00    -0.251 OA
BRANCH  16  20
ATOM     18  C   LIG    1       31.492 -19.541   7.257  0.00  0.00    +0.012 C 
ATOM     19  C   LIG    1       30.077 -19.046   7.052  0.00  0.00    -0.014 C 
ATOM     20  C   LIG    1       28.865 -19.793   7.597  0.00  0.00    +0.111 C 
ATOM     21  C   LIG    1       29.276 -18.474   8.214  0.00  0.00    +0.035 C 
ATOM     22  C   LIG    1       29.901 -18.367   5.713  0.00  0.00    +0.012 C 
BRANCH  21  23
ATOM     23  C   LIG    1       29.820 -18.412   9.582  0.00  0.00    +0.010 C 
ATOM     24  C   LIG    1       30.728 -17.549  10.065  0.00  0.00    +0.103 C 
ATOM     25 CL   LIG    1       31.257 -17.671  11.706  0.00  0.00    -0.071 Cl
ATOM     26 CL   LIG    1       31.421 -16.298   9.100  0.00  0.00    -0.071 Cl
ENDBRANCH  21  23
ENDBRANCH  16  20
ENDBRANCH  15  16
ENDBRANCH   1  15
TORSDOF 7
ENDMDL
MODEL 8
REMARK VINA RESULT:      -9.3      6.429      9.214
REMARK  Name = *****
REMARK                            x       y       z     vdW  Elec       q    Type
REMARK                         _______ _______ _______ _____ _____    ______ ____
ROOT
ATOM      1  C   LIG    1       24.382 -26.903   5.548  0.00  0.00    +0.267 C 
ENDROOT
BRANCH   1   2
ATOM      2  C   LIG    1       24.607 -25.557   6.186  0.00  0.00    -0.007 A 
ATOM      3  C   LIG    1       23.603 -24.586   6.101  0.00  0.00    +0.053 A 
ATOM      4  C   LIG    1       23.828 -23.281   6.545  0.00  0.00    +0.129 A 
ATOM      5  C   LIG    1       25.065 -22.958   7.113  0.00  0.00    +0.046 A 
ATOM      6  C   LIG    1       26.040 -23.943   7.285  0.00  0.00    +0.004 A 
ATOM      7  C   LIG    1       25.814 -25.238   6.818  0.00  0.00    +0.007 A 
BRANCH   4   8
ATOM      8  O   LIG    1       22.934 -22.243   6.367  0.00  0.00    -0.456 OA
BRANCH   8   9
ATOM      9  C   LIG    1       23.234 -21.226   5.485  0.00  0.00    +0.128 A 
ATOM     10  C   LIG    1       22.509 -20.036   5.601  0.00  0.00    +0.046 A 
ATOM     11  C   LIG    1       22.739 -18.986   4.704  0.00  0.00    +0.004 A 
ATOM     12  C   LIG    1       23.707 -19.117   3.708  0.00  0.00    +0.000 A 
ATOM     13  C   LIG    1       24.424 -20.305   3.587  0.00  0.00    +0.004 A 
ATOM     14  C   LIG    1       24.162 -21.368   4.450  0.00  0.00    +0.046 A 
ENDBRANCH   8   9
ENDBRANCH   4   8
ENDBRANCH   1   2
BRANCH   1  15
ATOM     15  O   LIG    1       24.647 -27.952   6.476  0.00  0.00    -0.460 OA
BRANCH  15  16
ATOM     16  C   LIG    1       24.287 -29.187   6.062  0.00  0.00    +0.312 C 
ATOM     17  O   LIG    1       23.153 -29.522   5.707  0.00  0.00    -0.251 OA
BRANCH  16  20
ATOM     18  C   LIG    1       24.030 -32.353   6.378  0.00  0.00    +0.012 C 
ATOM     19  C   LIG    1       25.349 -31.626   6.234  0.00  0.00    -0.014 C 
ATOM     20  C   LIG    1       25.435 -30.110   6.101  0.00  0.00    +0.111 C 
ATOM     21  C   LIG    1       25.900 -30.780   7.375  0.00  0.00    +0.035 C 
ATOM     22  C   LIG    1       26.356 -32.428   5.443  0.00  0.00    +0.012 C 
BRANCH  21  23
ATOM     23  C   LIG    1       25.165 -30.601   8.640  0.00  0.00    +0.010 C 
ATOM     24  C   LIG    1       25.343 -29.644   9.564  0.00  0.00    +0.103 C 
ATOM     25 CL   LIG    1       24.386 -29.635  11.003  0.00  0.00    -0.071 Cl
ATOM     26 CL   LIG    1       26.522 -28.396   9.388  0.00  0.00    -0.071 Cl
ENDBRANCH  21  23
ENDBRANCH  16  20
ENDBRANCH  15  16
ENDBRANCH   1  15
TORSDOF 7
ENDMDL
MODEL 9
REMARK VINA RESULT:      -9.2      3.124      7.788
REMARK  Name = *****
REMARK                            x       y       z     vdW  Elec       q    Type
REMARK                         _______ _______ _______ _____ _____    ______ ____
ROOT
ATOM      1  C   LIG    1       26.935 -21.193   8.251  0.00  0.00    +0.267 C 
ENDROOT
BRANCH   1   2
ATOM      2  C   LIG    1       26.244 -22.130   7.296  0.00  0.00    -0.007 A 
ATOM      3  C   LIG    1       25.704 -21.619   6.110  0.00  0.00    +0.053 A 
ATOM      4  C   LIG    1       24.927 -22.421   5.271  0.00  0.00    +0.129 A 
ATOM      5  C   LIG    1       24.719 -23.762   5.611  0.00  0.00    +0.046 A 
ATOM      6  C   LIG    1       25.328 -24.304   6.745  0.00  0.00    +0.004 A 
ATOM      7  C   LIG    1       26.085 -23.490   7.588  0.00  0.00    +0.007 A 
BRANCH   4   8
ATOM      8  O   LIG    1       24.253 -21.948   4.161  0.00  0.00    -0.456 OA
BRANCH   8   9
ATOM      9  C   LIG    1       23.692 -20.688   4.188  0.00  0.00    +0.128 A 
ATOM     10  C   LIG    1       24.415 -19.646   3.599  0.00  0.00    +0.046 A 
ATOM     11  C   LIG    1       23.916 -18.340   3.635  0.00  0.00    +0.004 A 
ATOM     12  C   LIG    1       22.684 -18.078   4.238  0.00  0.00    +0.000 A 
ATOM     13  C   LIG    1       21.967 -19.114   4.831  0.00  0.00    +0.004 A 
ATOM     14  C   LIG    1       22.487 -20.408   4.838  0.00  0.00    +0.046 A 
ENDBRANCH   8   9
ENDBRANCH   4   8
ENDBRANCH   1   2
BRANCH   1  15
ATOM     15  O   LIG    1       28.110 -21.796   8.788  0.00  0.00    -0.460 OA
BRANCH  15  16
ATOM     16  C   LIG    1       29.270 -21.192   8.448  0.00  0.00    +0.312 C 
ATOM     17  O   LIG    1       30.400 -21.614   8.706  0.00  0.00    -0.251 OA
BRANCH  16  20
ATOM     18  C   LIG    1       31.559 -19.332   7.229  0.00  0.00    +0.012 C 
ATOM     19  C   LIG    1       30.081 -19.027   7.121  0.00  0.00    -0.014 C 
ATOM     20  C   LIG    1       29.015 -19.931   7.729  0.00  0.00    +0.111 C 
ATOM     21  C   LIG    1       29.288 -18.574   8.340  0.00  0.00    +0.035 C 
ATOM     22  C   LIG    1       29.731 -18.366   5.807  0.00  0.00    +0.012 C 
BRANCH  21  23
ATOM     23  C   LIG    1       29.907 -18.451   9.672  0.00  0.00    +0.010 C 
ATOM     24  C   LIG    1       30.768 -17.512  10.092  0.00  0.00    +0.103 C 
ATOM     25 CL   LIG    1       31.404 -17.570  11.699  0.00  0.00    -0.071 Cl
ATOM     26 CL   LIG    1       31.298 -16.221   9.077  0.00  0.00    -0.071 Cl
ENDBRANCH  21  23
ENDBRANCH  16  20
ENDBRANCH  15  16
ENDBRANCH   1  15
TORSDOF 7
ENDMDL
