MODEL 1
REMARK VINA RESULT:      -4.6      0.000      0.000
REMARK  Name = *****
REMARK                            x       y       z     vdW  Elec       q    Type
REMARK                         _______ _______ _______ _____ _____    ______ ____
ROOT
ATOM      1  F   LIG    1       21.716 -21.018   5.060  0.00  0.00    -0.168 F 
ATOM      2  C   LIG    1       22.664 -20.101   5.354  0.00  0.00    +0.415 C 
ATOM      3  F   LIG    1       22.910 -20.184   6.685  0.00  0.00    -0.168 F 
ATOM      4  F   LIG    1       22.125 -18.875   5.140  0.00  0.00    -0.168 F 
ENDROOT
BRANCH   2   5
ATOM      5  C   LIG    1       23.941 -20.289   4.550  0.00  0.00    +0.251 C 
ATOM      6 BR   LIG    1       25.443 -20.748   5.715  0.00  0.00    -0.061 Br
ATOM      7 CL   LIG    1       24.383 -18.841   3.609  0.00  0.00    -0.100 Cl
ENDBRANCH   2   5
TORSDOF 1
ENDMDL
MODEL 2
REMARK VINA RESULT:      -4.6      0.069      1.423
REMARK  Name = *****
REMARK                            x       y       z     vdW  Elec       q    Type
REMARK                         _______ _______ _______ _____ _____    ______ ____
ROOT
ATOM      1  F   LIG    1       22.920 -20.149   6.734  0.00  0.00    -0.168 F 
ATOM      2  C   LIG    1       22.710 -20.058   5.402  0.00  0.00    +0.415 C 
ATOM      3  F   LIG    1       22.195 -18.827   5.157  0.00  0.00    -0.168 F 
ATOM      4  F   LIG    1       21.740 -20.950   5.081  0.00  0.00    -0.168 F 
ENDROOT
BRANCH   2   5
ATOM      5  C   LIG    1       23.970 -20.295   4.585  0.00  0.00    +0.251 C 
ATOM      6 BR   LIG    1       25.487 -20.727   5.741  0.00  0.00    -0.061 Br
ATOM      7 CL   LIG    1       24.413 -18.892   3.579  0.00  0.00    -0.100 Cl
ENDBRANCH   2   5
TORSDOF 1
ENDMDL
MODEL 3
REMARK VINA RESULT:      -4.4      2.517      2.738
REMARK  Name = *****
REMARK                            x       y       z     vdW  Elec       q    Type
REMARK                         _______ _______ _______ _____ _____    ______ ____
ROOT
ATOM      1  F   LIG    1       23.777 -20.705   4.719  0.00  0.00    -0.168 F 
ATOM      2  C   LIG    1       22.795 -20.680   5.648  0.00  0.00    +0.415 C 
ATOM      3  F   LIG    1       21.700 -21.258   5.096  0.00  0.00    -0.168 F 
ATOM      4  F   LIG    1       22.474 -19.381   5.866  0.00  0.00    -0.168 F 
ENDROOT
BRANCH   2   5
ATOM      5  C   LIG    1       23.186 -21.376   6.942  0.00  0.00    +0.251 C 
ATOM      6 BR   LIG    1       25.025 -20.942   7.446  0.00  0.00    -0.061 Br
ATOM      7 CL   LIG    1       23.035 -23.150   6.843  0.00  0.00    -0.100 Cl
ENDBRANCH   2   5
TORSDOF 1
ENDMDL
MODEL 4
REMARK VINA RESULT:      -4.4      1.813      2.311
REMARK  Name = *****
REMARK                            x       y       z     vdW  Elec       q    Type
REMARK                         _______ _______ _______ _____ _____    ______ ____
ROOT
ATOM      1  F   LIG    1       22.446 -19.145   5.704  0.00  0.00    -0.168 F 
ATOM      2  C   LIG    1       22.983 -20.356   5.973  0.00  0.00    +0.415 C 
ATOM      3  F   LIG    1       22.106 -21.294   5.538  0.00  0.00    -0.168 F 
ATOM      4  F   LIG    1       23.043 -20.484   7.322  0.00  0.00    -0.168 F 
ENDROOT
BRANCH   2   5
ATOM      5  C   LIG    1       24.351 -20.552   5.340  0.00  0.00    +0.251 C 
ATOM      6 BR   LIG    1       24.515 -19.519   3.687  0.00  0.00    -0.061 Br
ATOM      7 CL   LIG    1       24.701 -22.260   4.971  0.00  0.00    -0.100 Cl
ENDBRANCH   2   5
TORSDOF 1
ENDMDL
MODEL 5
REMARK VINA RESULT:      -4.3      2.196      2.560
REMARK  Name = *****
REMARK                            x       y       z     vdW  Elec       q    Type
REMARK                         _______ _______ _______ _____ _____    ______ ____
ROOT
ATOM      1  F   LIG    1       22.510 -19.542   6.100  0.00  0.00    -0.168 F 
ATOM      2  C   LIG    1       22.786 -20.560   5.253  0.00  0.00    +0.415 C 
ATOM      3  F   LIG    1       23.161 -20.012   4.071  0.00  0.00    -0.168 F 
ATOM      4  F   LIG    1       21.625 -21.220   5.019  0.00  0.00    -0.168 F 
ENDROOT
BRANCH   2   5
ATOM      5  C   LIG    1       23.856 -21.500   5.784  0.00  0.00    +0.251 C 
ATOM      6 BR   LIG    1       23.059 -22.983   6.779  0.00  0.00    -0.061 Br
ATOM      7 CL   LIG    1       25.030 -20.678   6.844  0.00  0.00    -0.100 Cl
ENDBRANCH   2   5
TORSDOF 1
ENDMDL
MODEL 6
REMARK VINA RESULT:      -4.2      1.923      2.534
REMARK  Name = *****
REMARK                            x       y       z     vdW  Elec       q    Type
REMARK                         _______ _______ _______ _____ _____    ______ ____
ROOT
ATOM      1  F   LIG    1       22.916 -19.892   6.633  0.00  0.00    -0.168 F 
ATOM      2  C   LIG    1       23.342 -21.175   6.624  0.00  0.00    +0.415 C 
ATOM      3  F   LIG    1       22.688 -21.812   5.622  0.00  0.00    -0.168 F 
ATOM      4  F   LIG    1       22.927 -21.750   7.779  0.00  0.00    -0.168 F 
ENDROOT
BRANCH   2   5
ATOM      5  C   LIG    1       24.849 -21.297   6.457  0.00  0.00    +0.251 C 
ATOM      6 BR   LIG    1       25.783 -20.752   8.087  0.00  0.00    -0.061 Br
ATOM      7 CL   LIG    1       25.473 -20.325   5.100  0.00  0.00    -0.100 Cl
ENDBRANCH   2   5
TORSDOF 1
ENDMDL
MODEL 7
REMARK VINA RESULT:      -4.2      2.979      3.235
REMARK  Name = *****
REMARK                            x       y       z     vdW  Elec       q    Type
REMARK                         _______ _______ _______ _____ _____    ______ ____
ROOT
ATOM      1  F   LIG    1       24.750 -22.223   4.649  0.00  0.00    -0.168 F 
ATOM      2  C   LIG    1       24.271 -21.004   4.315  0.00  0.00    +0.415 C 
ATOM      3  F   LIG    1       24.026 -21.015   2.982  0.00  0.00    -0.168 F 
ATOM      4  F   LIG    1       25.267 -20.106   4.515  0.00  0.00    -0.168 F 
ENDROOT
BRANCH   2   5
ATOM      5  C   LIG    1       23.022 -20.623   5.096  0.00  0.00    +0.251 C 
ATOM      6 BR   LIG    1       22.388 -18.845   4.584  0.00  0.00    -0.061 Br
ATOM      7 CL   LIG    1       23.280 -20.641   6.859  0.00  0.00    -0.100 Cl
ENDBRANCH   2   5
TORSDOF 1
ENDMDL
MODEL 8
REMARK VINA RESULT:      -4.1      2.484      3.047
REMARK  Name = *****
REMARK                            x       y       z     vdW  Elec       q    Type
REMARK                         _______ _______ _______ _____ _____    ______ ____
ROOT
ATOM      1  F   LIG    1       23.235 -20.301   7.474  0.00  0.00    -0.168 F 
ATOM      2  C   LIG    1       23.339 -21.449   6.767  0.00  0.00    +0.415 C 
ATOM      3  F   LIG    1       22.492 -21.354   5.713  0.00  0.00    -0.168 F 
ATOM      4  F   LIG    1       22.868 -22.452   7.548  0.00  0.00    -0.168 F 
ENDROOT
BRANCH   2   5
ATOM      5  C   LIG    1       24.759 -21.733   6.303  0.00  0.00    +0.251 C 
ATOM      6 BR   LIG    1       25.369 -23.480   6.936  0.00  0.00    -0.061 Br
ATOM      7 CL   LIG    1       25.923 -20.500   6.851  0.00  0.00    -0.100 Cl
ENDBRANCH   2   5
TORSDOF 1
ENDMDL
MODEL 9
REMARK VINA RESULT:      -4.1      1.881      2.286
REMARK  Name = *****
REMARK                            x       y       z     vdW  Elec       q    Type
REMARK                         _______ _______ _______ _____ _____    ______ ____
ROOT
ATOM      1  F   LIG    1       22.964 -20.238   7.004  0.00  0.00    -0.168 F 
ATOM      2  C   LIG    1       23.749 -20.698   6.003  0.00  0.00    +0.415 C 
ATOM      3  F   LIG    1       23.646 -22.051   5.998  0.00  0.00    -0.168 F 
ATOM      4  F   LIG    1       25.034 -20.413   6.330  0.00  0.00    -0.168 F 
ENDROOT
BRANCH   2   5
ATOM      5  C   LIG    1       23.383 -20.117   4.647  0.00  0.00    +0.251 C 
ATOM      6 BR   LIG    1       24.981 -19.560   3.667  0.00  0.00    -0.061 Br
ATOM      7 CL   LIG    1       22.284 -18.719   4.771  0.00  0.00    -0.100 Cl
ENDBRANCH   2   5
TORSDOF 1
ENDMDL
