MODEL 1
REMARK VINA RESULT:      -4.3      0.000      0.000
REMARK  Name = *****
REMARK                            x       y       z     vdW  Elec       q    Type
REMARK                         _______ _______ _______ _____ _____    ______ ____
ROOT
ATOM      1  C   LIG    1       25.370 -20.762   5.995  0.00  0.00    +0.036 A 
ATOM      2  C   LIG    1       26.088 -21.474   6.961  0.00  0.00    +0.027 A 
ATOM      3  C   LIG    1       27.468 -21.308   7.061  0.00  0.00    +0.047 A 
ATOM      4  C   LIG    1       28.122 -20.455   6.181  0.00  0.00    +0.117 A 
ATOM      5  C   LIG    1       27.426 -19.782   5.180  0.00  0.00    +0.047 A 
ATOM      6  C   LIG    1       26.044 -19.942   5.083  0.00  0.00    +0.027 A 
ENDROOT
BRANCH   1   8
ATOM      7  C   LIG    1       23.322 -21.568   7.032  0.00  0.00    +0.138 C 
ATOM      8  N   LIG    1       23.961 -20.827   5.949  0.00  0.00    -0.272 N 
ATOM      9  C   LIG    1       23.176 -19.968   5.161  0.00  0.00    +0.252 C 
ATOM     10  O   LIG    1       21.970 -19.839   5.378  0.00  0.00    -0.272 OA
BRANCH   9  11
ATOM     11  C   LIG    1       23.872 -19.260   3.980  0.00  0.00    +0.257 C 
ATOM     12 CL   LIG    1       23.029 -17.733   3.634  0.00  0.00    -0.095 Cl
ATOM     13 CL   LIG    1       23.835 -20.319   2.546  0.00  0.00    -0.095 Cl
ENDBRANCH   9  11
ENDBRANCH   1   8
BRANCH   4  14
ATOM     14  O   LIG    1       29.468 -20.302   6.335  0.00  0.00    -0.507 OA
ATOM     15  H   LIG    1       29.881 -20.242   5.457  0.00  0.00    +0.292 HD
ENDBRANCH   4  14
TORSDOF 3
ENDMDL
MODEL 2
REMARK VINA RESULT:      -3.6      6.252      7.111
REMARK  Name = *****
REMARK                            x       y       z     vdW  Elec       q    Type
REMARK                         _______ _______ _______ _____ _____    ______ ____
ROOT
ATOM      1  C   LIG    1       26.318 -14.189   4.033  0.00  0.00    +0.036 A 
ATOM      2  C   LIG    1       26.536 -13.790   5.355  0.00  0.00    +0.027 A 
ATOM      3  C   LIG    1       27.604 -12.949   5.658  0.00  0.00    +0.047 A 
ATOM      4  C   LIG    1       28.461 -12.535   4.645  0.00  0.00    +0.117 A 
ATOM      5  C   LIG    1       28.286 -12.969   3.334  0.00  0.00    +0.047 A 
ATOM      6  C   LIG    1       27.213 -13.806   3.028  0.00  0.00    +0.027 A 
ENDROOT
BRANCH   1   8
ATOM      7  C   LIG    1       25.351 -16.395   3.688  0.00  0.00    +0.138 C 
ATOM      8  N   LIG    1       25.179 -14.946   3.685  0.00  0.00    -0.272 N 
ATOM      9  C   LIG    1       23.876 -14.419   3.684  0.00  0.00    +0.252 C 
ATOM     10  O   LIG    1       22.894 -15.165   3.686  0.00  0.00    -0.272 OA
BRANCH   9  11
ATOM     11  C   LIG    1       23.734 -12.885   3.605  0.00  0.00    +0.257 C 
ATOM     12 CL   LIG    1       24.759 -12.271   2.288  0.00  0.00    -0.095 Cl
ATOM     13 CL   LIG    1       24.231 -12.160   5.156  0.00  0.00    -0.095 Cl
ENDBRANCH   9  11
ENDBRANCH   1   8
BRANCH   4  14
ATOM     14  O   LIG    1       29.475 -11.690   4.983  0.00  0.00    -0.507 OA
ATOM     15  H   LIG    1       29.104 -10.812   5.171  0.00  0.00    +0.292 HD
ENDBRANCH   4  14
TORSDOF 3
ENDMDL
MODEL 3
REMARK VINA RESULT:      -3.4      3.244      4.505
REMARK  Name = *****
REMARK                            x       y       z     vdW  Elec       q    Type
REMARK                         _______ _______ _______ _____ _____    ______ ____
ROOT
ATOM      1  C   LIG    1       23.560 -17.786   4.053  0.00  0.00    +0.036 A 
ATOM      2  C   LIG    1       23.442 -16.400   4.183  0.00  0.00    +0.027 A 
ATOM      3  C   LIG    1       24.500 -15.575   3.804  0.00  0.00    +0.047 A 
ATOM      4  C   LIG    1       25.675 -16.142   3.325  0.00  0.00    +0.117 A 
ATOM      5  C   LIG    1       25.824 -17.524   3.241  0.00  0.00    +0.047 A 
ATOM      6  C   LIG    1       24.763 -18.350   3.613  0.00  0.00    +0.027 A 
ENDROOT
BRANCH   1   8
ATOM      7  C   LIG    1       21.183 -18.213   3.761  0.00  0.00    +0.138 C 
ATOM      8  N   LIG    1       22.463 -18.633   4.321  0.00  0.00    -0.272 N 
ATOM      9  C   LIG    1       22.605 -19.957   4.770  0.00  0.00    +0.252 C 
ATOM     10  O   LIG    1       21.666 -20.753   4.693  0.00  0.00    -0.272 OA
BRANCH   9  11
ATOM     11  C   LIG    1       23.948 -20.341   5.425  0.00  0.00    +0.257 C 
ATOM     12 CL   LIG    1       24.755 -21.570   4.424  0.00  0.00    -0.095 Cl
ATOM     13 CL   LIG    1       23.651 -20.983   7.061  0.00  0.00    -0.095 Cl
ENDBRANCH   9  11
ENDBRANCH   1   8
BRANCH   4  14
ATOM     14  O   LIG    1       26.671 -15.296   2.941  0.00  0.00    -0.507 OA
ATOM     15  H   LIG    1       27.133 -14.973   3.732  0.00  0.00    +0.292 HD
ENDBRANCH   4  14
TORSDOF 3
ENDMDL
MODEL 4
REMARK VINA RESULT:      -3.2      1.681      2.142
REMARK  Name = *****
REMARK                            x       y       z     vdW  Elec       q    Type
REMARK                         _______ _______ _______ _____ _____    ______ ____
ROOT
ATOM      1  C   LIG    1       24.048 -20.183   5.067  0.00  0.00    +0.036 A 
ATOM      2  C   LIG    1       24.060 -20.526   6.422  0.00  0.00    +0.027 A 
ATOM      3  C   LIG    1       25.272 -20.780   7.062  0.00  0.00    +0.047 A 
ATOM      4  C   LIG    1       26.457 -20.716   6.339  0.00  0.00    +0.117 A 
ATOM      5  C   LIG    1       26.453 -20.428   4.977  0.00  0.00    +0.047 A 
ATOM      6  C   LIG    1       25.242 -20.166   4.336  0.00  0.00    +0.027 A 
ENDROOT
BRANCH   1   8
ATOM      7  C   LIG    1       21.888 -20.885   4.195  0.00  0.00    +0.138 C 
ATOM      8  N   LIG    1       22.847 -19.810   4.427  0.00  0.00    -0.272 N 
ATOM      9  C   LIG    1       22.408 -18.478   4.330  0.00  0.00    +0.252 C 
ATOM     10  O   LIG    1       21.234 -18.219   4.055  0.00  0.00    -0.272 OA
BRANCH   9  11
ATOM     11  C   LIG    1       23.466 -17.370   4.507  0.00  0.00    +0.257 C 
ATOM     12 CL   LIG    1       22.678 -15.782   4.372  0.00  0.00    -0.095 Cl
ATOM     13 CL   LIG    1       24.721 -17.540   3.252  0.00  0.00    -0.095 Cl
ENDBRANCH   9  11
ENDBRANCH   1   8
BRANCH   4  14
ATOM     14  O   LIG    1       27.619 -20.944   7.013  0.00  0.00    -0.507 OA
ATOM     15  H   LIG    1       27.440 -20.917   7.967  0.00  0.00    +0.292 HD
ENDBRANCH   4  14
TORSDOF 3
ENDMDL
MODEL 5
REMARK VINA RESULT:      -3.1      5.860      7.777
REMARK  Name = *****
REMARK                            x       y       z     vdW  Elec       q    Type
REMARK                         _______ _______ _______ _____ _____    ______ ____
ROOT
ATOM      1  C   LIG    1       25.567 -14.839   3.296  0.00  0.00    +0.036 A 
ATOM      2  C   LIG    1       25.949 -14.075   2.190  0.00  0.00    +0.027 A 
ATOM      3  C   LIG    1       25.222 -12.936   1.850  0.00  0.00    +0.047 A 
ATOM      4  C   LIG    1       24.105 -12.585   2.600  0.00  0.00    +0.117 A 
ATOM      5  C   LIG    1       23.683 -13.368   3.671  0.00  0.00    +0.047 A 
ATOM      6  C   LIG    1       24.415 -14.505   4.016  0.00  0.00    +0.027 A 
ENDROOT
BRANCH   1   8
ATOM      7  C   LIG    1       25.922 -17.246   3.270  0.00  0.00    +0.138 C 
ATOM      8  N   LIG    1       26.353 -15.929   3.727  0.00  0.00    -0.272 N 
ATOM      9  C   LIG    1       27.651 -15.784   4.247  0.00  0.00    +0.252 C 
ATOM     10  O   LIG    1       28.415 -16.749   4.315  0.00  0.00    -0.272 OA
BRANCH   9  11
ATOM     11  C   LIG    1       28.044 -14.394   4.789  0.00  0.00    +0.257 C 
ATOM     12 CL   LIG    1       26.675 -13.714   5.699  0.00  0.00    -0.095 Cl
ATOM     13 CL   LIG    1       28.468 -13.322   3.430  0.00  0.00    -0.095 Cl
ENDBRANCH   9  11
ENDBRANCH   1   8
BRANCH   4  14
ATOM     14  O   LIG    1       23.442 -11.448   2.248  0.00  0.00    -0.507 OA
ATOM     15  H   LIG    1       24.089 -10.781   1.962  0.00  0.00    +0.292 HD
ENDBRANCH   4  14
TORSDOF 3
ENDMDL
MODEL 6
REMARK VINA RESULT:      -3.1      5.773      6.743
REMARK  Name = *****
REMARK                            x       y       z     vdW  Elec       q    Type
REMARK                         _______ _______ _______ _____ _____    ______ ____
ROOT
ATOM      1  C   LIG    1       26.892 -14.498   4.043  0.00  0.00    +0.036 A 
ATOM      2  C   LIG    1       27.815 -13.938   3.155  0.00  0.00    +0.027 A 
ATOM      3  C   LIG    1       28.674 -12.932   3.593  0.00  0.00    +0.047 A 
ATOM      4  C   LIG    1       28.587 -12.476   4.903  0.00  0.00    +0.117 A 
ATOM      5  C   LIG    1       27.637 -12.989   5.781  0.00  0.00    +0.047 A 
ATOM      6  C   LIG    1       26.780 -14.001   5.346  0.00  0.00    +0.027 A 
ENDROOT
BRANCH   1   8
ATOM      7  C   LIG    1       26.811 -16.789   3.229  0.00  0.00    +0.138 C 
ATOM      8  N   LIG    1       26.091 -15.594   3.656  0.00  0.00    -0.272 N 
ATOM      9  C   LIG    1       24.727 -15.703   3.978  0.00  0.00    +0.252 C 
ATOM     10  O   LIG    1       24.146 -16.788   3.905  0.00  0.00    -0.272 OA
BRANCH   9  11
ATOM     11  C   LIG    1       23.983 -14.404   4.351  0.00  0.00    +0.257 C 
ATOM     12 CL   LIG    1       22.461 -14.817   5.173  0.00  0.00    -0.095 Cl
ATOM     13 CL   LIG    1       23.646 -13.466   2.874  0.00  0.00    -0.095 Cl
ENDBRANCH   9  11
ENDBRANCH   1   8
BRANCH   4  14
ATOM     14  O   LIG    1       29.467 -11.512   5.294  0.00  0.00    -0.507 OA
ATOM     15  H   LIG    1       29.014 -10.653   5.295  0.00  0.00    +0.292 HD
ENDBRANCH   4  14
TORSDOF 3
ENDMDL
MODEL 7
REMARK VINA RESULT:      -3.0      5.615      7.469
REMARK  Name = *****
REMARK                            x       y       z     vdW  Elec       q    Type
REMARK                         _______ _______ _______ _____ _____    ______ ____
ROOT
ATOM      1  C   LIG    1       26.119 -14.236   3.452  0.00  0.00    +0.036 A 
ATOM      2  C   LIG    1       25.778 -13.890   2.141  0.00  0.00    +0.027 A 
ATOM      3  C   LIG    1       24.776 -12.950   1.911  0.00  0.00    +0.047 A 
ATOM      4  C   LIG    1       24.105 -12.383   2.988  0.00  0.00    +0.117 A 
ATOM      5  C   LIG    1       24.400 -12.758   4.296  0.00  0.00    +0.047 A 
ATOM      6  C   LIG    1       25.407 -13.694   4.528  0.00  0.00    +0.027 A 
ENDROOT
BRANCH   1   8
ATOM      7  C   LIG    1       28.415 -14.463   4.224  0.00  0.00    +0.138 C 
ATOM      8  N   LIG    1       27.206 -15.098   3.712  0.00  0.00    -0.272 N 
ATOM      9  C   LIG    1       27.070 -16.493   3.831  0.00  0.00    +0.252 C 
ATOM     10  O   LIG    1       27.955 -17.169   4.359  0.00  0.00    -0.272 OA
BRANCH   9  11
ATOM     11  C   LIG    1       25.813 -17.136   3.210  0.00  0.00    +0.257 C 
ATOM     12 CL   LIG    1       24.369 -16.525   4.049  0.00  0.00    -0.095 Cl
ATOM     13 CL   LIG    1       25.910 -18.908   3.369  0.00  0.00    -0.095 Cl
ENDBRANCH   9  11
ENDBRANCH   1   8
BRANCH   4  14
ATOM     14  O   LIG    1       23.154 -11.447   2.715  0.00  0.00    -0.507 OA
ATOM     15  H   LIG    1       23.544 -10.562   2.812  0.00  0.00    +0.292 HD
ENDBRANCH   4  14
TORSDOF 3
ENDMDL
MODEL 8
REMARK VINA RESULT:      -2.9      4.743      6.329
REMARK  Name = *****
REMARK                            x       y       z     vdW  Elec       q    Type
REMARK                         _______ _______ _______ _____ _____    ______ ____
ROOT
ATOM      1  C   LIG    1       24.883 -16.574   3.744  0.00  0.00    +0.036 A 
ATOM      2  C   LIG    1       23.654 -16.119   4.231  0.00  0.00    +0.027 A 
ATOM      3  C   LIG    1       22.619 -17.026   4.454  0.00  0.00    +0.047 A 
ATOM      4  C   LIG    1       22.810 -18.371   4.163  0.00  0.00    +0.117 A 
ATOM      5  C   LIG    1       24.011 -18.827   3.628  0.00  0.00    +0.047 A 
ATOM      6  C   LIG    1       25.051 -17.922   3.411  0.00  0.00    +0.027 A 
ENDROOT
BRANCH   1   8
ATOM      7  C   LIG    1       27.301 -16.312   3.666  0.00  0.00    +0.138 C 
ATOM      8  N   LIG    1       25.980 -15.694   3.620  0.00  0.00    -0.272 N 
ATOM      9  C   LIG    1       25.862 -14.383   3.128  0.00  0.00    +0.252 C 
ATOM     10  O   LIG    1       26.856 -13.763   2.741  0.00  0.00    -0.272 OA
BRANCH   9  11
ATOM     11  C   LIG    1       24.462 -13.737   3.165  0.00  0.00    +0.257 C 
ATOM     12 CL   LIG    1       24.318 -12.576   1.825  0.00  0.00    -0.095 Cl
ATOM     13 CL   LIG    1       24.232 -12.904   4.724  0.00  0.00    -0.095 Cl
ENDBRANCH   9  11
ENDBRANCH   1   8
BRANCH   4  14
ATOM     14  O   LIG    1       21.780 -19.224   4.424  0.00  0.00    -0.507 OA
ATOM     15  H   LIG    1       21.087 -18.744   4.906  0.00  0.00    +0.292 HD
ENDBRANCH   4  14
TORSDOF 3
ENDMDL
MODEL 9
REMARK VINA RESULT:      -2.8      3.083      4.162
REMARK  Name = *****
REMARK                            x       y       z     vdW  Elec       q    Type
REMARK                         _______ _______ _______ _____ _____    ______ ____
ROOT
ATOM      1  C   LIG    1       26.955 -18.976   4.735  0.00  0.00    +0.036 A 
ATOM      2  C   LIG    1       27.940 -17.985   4.775  0.00  0.00    +0.027 A 
ATOM      3  C   LIG    1       27.750 -16.792   4.079  0.00  0.00    +0.047 A 
ATOM      4  C   LIG    1       26.595 -16.611   3.329  0.00  0.00    +0.117 A 
ATOM      5  C   LIG    1       25.632 -17.612   3.239  0.00  0.00    +0.047 A 
ATOM      6  C   LIG    1       25.817 -18.804   3.940  0.00  0.00    +0.027 A 
ENDROOT
BRANCH   1   8
ATOM      7  C   LIG    1       28.420 -20.471   5.976  0.00  0.00    +0.138 C 
ATOM      8  N   LIG    1       27.073 -20.142   5.522  0.00  0.00    -0.272 N 
ATOM      9  C   LIG    1       25.977 -20.764   6.146  0.00  0.00    +0.252 C 
ATOM     10  O   LIG    1       26.147 -21.572   7.061  0.00  0.00    -0.272 OA
BRANCH   9  11
ATOM     11  C   LIG    1       24.574 -20.447   5.588  0.00  0.00    +0.257 C 
ATOM     12 CL   LIG    1       23.374 -20.628   6.888  0.00  0.00    -0.095 Cl
ATOM     13 CL   LIG    1       24.200 -21.564   4.250  0.00  0.00    -0.095 Cl
ENDBRANCH   9  11
ENDBRANCH   1   8
BRANCH   4  14
ATOM     14  O   LIG    1       26.440 -15.418   2.689  0.00  0.00    -0.507 OA
ATOM     15  H   LIG    1       27.203 -14.851   2.889  0.00  0.00    +0.292 HD
ENDBRANCH   4  14
TORSDOF 3
ENDMDL
