MODEL 1
REMARK VINA RESULT:       1.2      0.000      0.000
REMARK  Name = *****
REMARK                            x       y       z     vdW  Elec       q    Type
REMARK                         _______ _______ _______ _____ _____    ______ ____
ROOT
ATOM      1  C   LIG    1       22.105 -19.253   3.878  0.00  0.00    +0.089 C 
ENDROOT
BRANCH   1   2
ATOM      2  N   LIG    1       21.841 -20.665   4.221  0.00  0.00    -0.302 NA
ATOM      3  C   LIG    1       22.760 -21.572   3.504  0.00  0.00    +0.085 C 
ATOM      4  C   LIG    1       24.226 -21.334   3.866  0.00  0.00    +0.025 C 
ATOM      5  C   LIG    1       24.453 -21.406   5.386  0.00  0.00    +0.044 C 
ATOM      6  C   LIG    1       23.344 -20.718   6.211  0.00  0.00    +0.025 C 
ATOM      7  C   LIG    1       21.938 -20.935   5.652  0.00  0.00    +0.085 C 
BRANCH   5   8
ATOM      8  C   LIG    1       25.824 -20.898   5.760  0.00  0.00    +0.095 A 
ATOM      9  C   LIG    1       26.545 -19.759   5.286  0.00  0.00    +0.045 A 
ATOM     10  C   LIG    1       27.726 -19.790   6.013  0.00  0.00    +0.170 A 
ATOM     11  C   LIG    1       28.749 -18.851   5.907  0.00  0.00    +0.088 A 
ATOM     12  C   LIG    1       28.535 -17.823   4.992  0.00  0.00    +0.127 A 
ATOM     13  C   LIG    1       27.374 -17.746   4.227  0.00  0.00    +0.039 A 
ATOM     14  F   LIG    1       29.474 -16.880   4.842  0.00  0.00    -0.205 F 
ATOM     15  O   LIG    1       27.719 -20.870   6.835  0.00  0.00    -0.354 OA
ATOM     16  C   LIG    1       26.365 -18.711   4.362  0.00  0.00    +0.016 A 
ATOM     17  N   LIG    1       26.535 -21.567   6.681  0.00  0.00    -0.082 NA
ENDBRANCH   5   8
ENDBRANCH   1   2
BRANCH   1  18
ATOM     18  C   LIG    1       22.060 -18.242   5.050  0.00  0.00    +0.058 C 
BRANCH  18  21
ATOM     19  C   LIG    1       21.254 -15.537   6.391  0.00  0.00    +0.066 C 
ATOM     20  C   LIG    1       22.354 -15.713   5.363  0.00  0.00    +0.049 C 
ATOM     21  C   LIG    1       22.712 -16.887   4.803  0.00  0.00    +0.039 C 
ATOM     22  C   LIG    1       23.879 -16.832   3.863  0.00  0.00    +0.258 C 
ATOM     23  O   LIG    1       24.292 -17.823   3.289  0.00  0.00    -0.267 OA
ATOM     24  N   LIG    1       24.505 -15.619   3.712  0.00  0.00    -0.294 N 
ATOM     25  C   LIG    1       25.827 -15.640   3.100  0.00  0.00    +0.127 C 
ATOM     26  C   LIG    1       26.290 -14.313   2.533  0.00  0.00    +0.025 C 
ATOM     27  C   LIG    1       26.023 -13.202   3.535  0.00  0.00    +0.041 C 
ATOM     28  C   LIG    1       24.541 -13.141   3.861  0.00  0.00    +0.180 C 
ATOM     29  C   LIG    1       23.970 -14.496   4.273  0.00  0.00    +0.141 C 
ATOM     30  N   LIG    1       22.932 -14.508   5.048  0.00  0.00    -0.236 NA
BRANCH  28  31
ATOM     31  O   LIG    1       23.824 -12.713   2.701  0.00  0.00    -0.384 OA
ATOM     32  H   LIG    1       22.911 -12.538   2.997  0.00  0.00    +0.210 HD
ENDBRANCH  28  31
ENDBRANCH  18  21
ENDBRANCH   1  18
TORSDOF 5
ENDMDL
MODEL 2
REMARK VINA RESULT:       2.5      2.091      2.902
REMARK  Name = *****
REMARK                            x       y       z     vdW  Elec       q    Type
REMARK                         _______ _______ _______ _____ _____    ______ ____
ROOT
ATOM      1  C   LIG    1       22.488 -16.403   4.217  0.00  0.00    +0.089 C 
ENDROOT
BRANCH   1   2
ATOM      2  N   LIG    1       21.848 -17.407   3.345  0.00  0.00    -0.302 NA
ATOM      3  C   LIG    1       22.845 -18.105   2.508  0.00  0.00    +0.085 C 
ATOM      4  C   LIG    1       23.870 -18.882   3.336  0.00  0.00    +0.025 C 
ATOM      5  C   LIG    1       23.189 -19.856   4.312  0.00  0.00    +0.044 C 
ATOM      6  C   LIG    1       21.941 -19.267   5.004  0.00  0.00    +0.025 C 
ATOM      7  C   LIG    1       21.078 -18.402   4.084  0.00  0.00    +0.085 C 
BRANCH   5   8
ATOM      8  C   LIG    1       24.174 -20.407   5.314  0.00  0.00    +0.095 A 
ATOM      9  C   LIG    1       25.587 -20.219   5.415  0.00  0.00    +0.045 A 
ATOM     10  C   LIG    1       25.936 -20.943   6.545  0.00  0.00    +0.170 A 
ATOM     11  C   LIG    1       27.227 -21.040   7.060  0.00  0.00    +0.088 A 
ATOM     12  C   LIG    1       28.211 -20.348   6.359  0.00  0.00    +0.127 A 
ATOM     13  C   LIG    1       27.922 -19.613   5.212  0.00  0.00    +0.039 A 
ATOM     14  F   LIG    1       29.475 -20.390   6.800  0.00  0.00    -0.205 F 
ATOM     15  O   LIG    1       24.827 -21.532   7.062  0.00  0.00    -0.354 OA
ATOM     16  C   LIG    1       26.609 -19.539   4.724  0.00  0.00    +0.016 A 
ATOM     17  N   LIG    1       23.724 -21.202   6.296  0.00  0.00    -0.082 NA
ENDBRANCH   5   8
ENDBRANCH   1   2
BRANCH   1  18
ATOM     18  C   LIG    1       22.582 -14.963   3.652  0.00  0.00    +0.058 C 
BRANCH  18  21
ATOM     19  C   LIG    1       22.958 -11.968   4.459  0.00  0.00    +0.066 C 
ATOM     20  C   LIG    1       24.079 -12.947   4.171  0.00  0.00    +0.049 C 
ATOM     21  C   LIG    1       23.912 -14.245   3.844  0.00  0.00    +0.039 C 
ATOM     22  C   LIG    1       25.170 -15.042   3.676  0.00  0.00    +0.258 C 
ATOM     23  O   LIG    1       25.151 -16.221   3.373  0.00  0.00    -0.267 OA
ATOM     24  N   LIG    1       26.358 -14.400   3.929  0.00  0.00    -0.294 N 
ATOM     25  C   LIG    1       27.528 -15.247   4.118  0.00  0.00    +0.127 C 
ATOM     26  C   LIG    1       28.860 -14.546   3.938  0.00  0.00    +0.025 C 
ATOM     27  C   LIG    1       28.851 -13.222   4.684  0.00  0.00    +0.041 C 
ATOM     28  C   LIG    1       27.725 -12.342   4.171  0.00  0.00    +0.180 C 
ATOM     29  C   LIG    1       26.375 -13.056   4.162  0.00  0.00    +0.141 C 
ATOM     30  N   LIG    1       25.304 -12.333   4.261  0.00  0.00    -0.236 NA
BRANCH  28  31
ATOM     31  O   LIG    1       28.010 -11.956   2.825  0.00  0.00    -0.384 OA
ATOM     32  H   LIG    1       27.978 -12.775   2.296  0.00  0.00    +0.210 HD
ENDBRANCH  28  31
ENDBRANCH  18  21
ENDBRANCH   1  18
TORSDOF 5
ENDMDL
MODEL 3
REMARK VINA RESULT:       4.1      1.227      2.010
REMARK  Name = *****
REMARK                            x       y       z     vdW  Elec       q    Type
REMARK                         _______ _______ _______ _____ _____    ______ ____
ROOT
ATOM      1  C   LIG    1       22.020 -19.170   3.939  0.00  0.00    +0.089 C 
ENDROOT
BRANCH   1   2
ATOM      2  N   LIG    1       21.643 -20.484   4.497  0.00  0.00    -0.302 NA
ATOM      3  C   LIG    1       22.442 -21.571   3.898  0.00  0.00    +0.085 C 
ATOM      4  C   LIG    1       23.938 -21.427   4.179  0.00  0.00    +0.025 C 
ATOM      5  C   LIG    1       24.222 -21.298   5.685  0.00  0.00    +0.044 C 
ATOM      6  C   LIG    1       23.218 -20.392   6.429  0.00  0.00    +0.025 C 
ATOM      7  C   LIG    1       21.775 -20.550   5.949  0.00  0.00    +0.085 C 
BRANCH   5   8
ATOM      8  C   LIG    1       25.649 -20.876   5.940  0.00  0.00    +0.095 A 
ATOM      9  C   LIG    1       26.405 -19.800   5.381  0.00  0.00    +0.045 A 
ATOM     10  C   LIG    1       27.634 -19.895   6.017  0.00  0.00    +0.170 A 
ATOM     11  C   LIG    1       28.706 -19.031   5.807  0.00  0.00    +0.088 A 
ATOM     12  C   LIG    1       28.490 -18.011   4.884  0.00  0.00    +0.127 A 
ATOM     13  C   LIG    1       27.280 -17.872   4.207  0.00  0.00    +0.039 A 
ATOM     14  F   LIG    1       29.475 -17.138   4.637  0.00  0.00    -0.205 F 
ATOM     15  O   LIG    1       27.619 -20.954   6.867  0.00  0.00    -0.354 OA
ATOM     16  C   LIG    1       26.223 -18.763   4.445  0.00  0.00    +0.016 A 
ATOM     17  N   LIG    1       26.383 -21.572   6.822  0.00  0.00    -0.082 NA
ENDBRANCH   5   8
ENDBRANCH   1   2
BRANCH   1  18
ATOM     18  C   LIG    1       22.094 -17.994   4.944  0.00  0.00    +0.058 C 
BRANCH  18  21
ATOM     19  C   LIG    1       24.472 -18.116   2.920  0.00  0.00    +0.066 C 
ATOM     20  C   LIG    1       24.057 -16.893   3.713  0.00  0.00    +0.049 C 
ATOM     21  C   LIG    1       23.016 -16.840   4.570  0.00  0.00    +0.039 C 
ATOM     22  C   LIG    1       22.748 -15.500   5.188  0.00  0.00    +0.258 C 
ATOM     23  O   LIG    1       21.843 -15.326   5.983  0.00  0.00    -0.267 OA
ATOM     24  N   LIG    1       23.539 -14.453   4.781  0.00  0.00    -0.294 N 
ATOM     25  C   LIG    1       23.057 -13.114   5.095  0.00  0.00    +0.127 C 
ATOM     26  C   LIG    1       24.116 -12.030   5.061  0.00  0.00    +0.025 C 
ATOM     27  C   LIG    1       24.959 -12.172   3.804  0.00  0.00    +0.041 C 
ATOM     28  C   LIG    1       25.613 -13.541   3.768  0.00  0.00    +0.180 C 
ATOM     29  C   LIG    1       24.616 -14.679   3.975  0.00  0.00    +0.141 C 
ATOM     30  N   LIG    1       24.900 -15.837   3.468  0.00  0.00    -0.236 NA
BRANCH  28  31
ATOM     31  O   LIG    1       26.578 -13.627   4.818  0.00  0.00    -0.384 OA
ATOM     32  H   LIG    1       26.303 -12.976   5.491  0.00  0.00    +0.210 HD
ENDBRANCH  28  31
ENDBRANCH  18  21
ENDBRANCH   1  18
TORSDOF 5
ENDMDL
