MODEL 1
REMARK VINA RESULT:      -0.9      0.000      0.000
REMARK  Name = *****
REMARK                            x       y       z     vdW  Elec       q    Type
REMARK                         _______ _______ _______ _____ _____    ______ ____
ROOT
ATOM      1  C   LIG    1       23.762 -17.119   3.568  0.00  0.00    +0.201 C 
ATOM      2  C   LIG    1       22.465 -17.714   4.131  0.00  0.00    +0.181 C 
ATOM      3  C   LIG    1       22.980 -18.826   5.023  0.00  0.00    +0.195 C 
ATOM      4  C   LIG    1       24.146 -19.348   4.177  0.00  0.00    +0.253 C 
ATOM      5  O   LIG    1       24.718 -18.214   3.492  0.00  0.00    -0.343 OA
ENDROOT
BRANCH   4   6
ATOM      6  N   LIG    1       25.203 -20.038   4.888  0.00  0.00    -0.285 N 
ATOM      7  C   LIG    1       26.512 -19.664   5.022  0.00  0.00    +0.167 A 
ATOM      8  N   LIG    1       27.130 -18.603   4.480  0.00  0.00    -0.216 NA
ATOM      9  C   LIG    1       28.416 -18.530   4.865  0.00  0.00    +0.225 A 
ATOM     10  N   LIG    1       29.089 -19.367   5.676  0.00  0.00    -0.219 NA
ATOM     11  C   LIG    1       28.425 -20.418   6.209  0.00  0.00    +0.147 A 
ATOM     12  C   LIG    1       27.072 -20.604   5.870  0.00  0.00    +0.147 A 
ATOM     13  N   LIG    1       26.145 -21.564   6.218  0.00  0.00    -0.231 NA
ATOM     14  C   LIG    1       25.038 -21.198   5.605  0.00  0.00    +0.203 A 
BRANCH  11  15
ATOM     15  N   LIG    1       29.123 -21.261   7.061  0.00  0.00    -0.341 N 
ATOM     16  H   LIG    1       28.727 -22.191   7.125  0.00  0.00    +0.144 HD
ATOM     17  H   LIG    1       30.123 -21.181   6.937  0.00  0.00    +0.144 HD
ENDBRANCH  11  15
ENDBRANCH   4   6
BRANCH   2  18
ATOM     18  O   LIG    1       21.676 -18.293   3.083  0.00  0.00    -0.386 OA
ATOM     19  H   LIG    1       20.751 -18.220   3.399  0.00  0.00    +0.210 HD
ENDBRANCH   2  18
BRANCH   3  20
ATOM     20  O   LIG    1       21.971 -19.801   5.283  0.00  0.00    -0.385 OA
ATOM     21  H   LIG    1       22.430 -20.654   5.404  0.00  0.00    +0.210 HD
ENDBRANCH   3  20
BRANCH   1  22
ATOM     22  C   LIG    1       24.374 -16.043   4.476  0.00  0.00    +0.311 C 
BRANCH  22  24
ATOM     23  C   LIG    1       23.552 -14.287   2.576  0.00  0.00    +0.340 C 
ATOM     24  S   LIG    1       23.467 -14.471   4.383  0.00  0.00    -0.011 S 
BRANCH  24  25
ATOM     25  C   LIG    1       24.824 -13.314   4.782  0.00  0.00    +0.280 C 
BRANCH  25  26
ATOM     26  C   LIG    1       26.209 -13.959   4.630  0.00  0.00    +0.084 C 
BRANCH  26  27
ATOM     27  CA  LIG    1       27.095 -13.314   3.553  0.00  0.00    +0.165 C 
BRANCH  27  28
ATOM     28  N   LIG    1       27.251 -14.243   2.383  0.00  0.00    -0.318 NA
ATOM     29  H1  LIG    1       28.010 -13.884   1.794  0.00  0.00    +0.119 HD
ATOM     30  H2  LIG    1       26.419 -14.164   1.792  0.00  0.00    +0.119 HD
ENDBRANCH  27  28
BRANCH  27  31
ATOM     31  C   LIG    1       28.503 -12.935   4.058  0.00  0.00    +0.322 C 
ATOM     32  O   LIG    1       28.740 -12.344   5.087  0.00  0.00    -0.249 OA
BRANCH  31  33
ATOM     33  OXT LIG    1       29.473 -13.302   3.177  0.00  0.00    -0.479 OA
ATOM     34  HXT LIG    1       30.163 -12.598   3.213  0.00  0.00    +0.295 HD
ENDBRANCH  31  33
ENDBRANCH  27  31
ENDBRANCH  26  27
ENDBRANCH  25  26
ENDBRANCH  24  25
ENDBRANCH  22  24
ENDBRANCH   1  22
TORSDOF 12
ENDMDL
MODEL 2
REMARK VINA RESULT:      -0.4      3.003      6.880
REMARK  Name = *****
REMARK                            x       y       z     vdW  Elec       q    Type
REMARK                         _______ _______ _______ _____ _____    ______ ____
ROOT
ATOM      1  C   LIG    1       27.028 -20.438   5.703  0.00  0.00    +0.201 C 
ATOM      2  C   LIG    1       28.346 -19.821   6.188  0.00  0.00    +0.181 C 
ATOM      3  C   LIG    1       28.207 -18.376   5.752  0.00  0.00    +0.195 C 
ATOM      4  C   LIG    1       27.517 -18.557   4.396  0.00  0.00    +0.253 C 
ATOM      5  O   LIG    1       26.642 -19.698   4.510  0.00  0.00    -0.343 OA
ENDROOT
BRANCH   4   6
ATOM      6  N   LIG    1       26.746 -17.432   3.907  0.00  0.00    -0.285 N 
ATOM      7  C   LIG    1       27.111 -16.114   3.867  0.00  0.00    +0.167 A 
ATOM      8  N   LIG    1       28.243 -15.554   4.324  0.00  0.00    -0.216 NA
ATOM      9  C   LIG    1       28.274 -14.233   4.076  0.00  0.00    +0.225 A 
ATOM     10  N   LIG    1       27.341 -13.479   3.466  0.00  0.00    -0.219 NA
ATOM     11  C   LIG    1       26.221 -14.087   3.012  0.00  0.00    +0.147 A 
ATOM     12  C   LIG    1       26.069 -15.469   3.222  0.00  0.00    +0.147 A 
ATOM     13  N   LIG    1       25.063 -16.358   2.910  0.00  0.00    -0.231 NA
ATOM     14  C   LIG    1       25.498 -17.524   3.341  0.00  0.00    +0.203 A 
BRANCH  11  15
ATOM     15  N   LIG    1       25.277 -13.303   2.365  0.00  0.00    -0.341 N 
ATOM     16  H   LIG    1       25.278 -12.336   2.667  0.00  0.00    +0.144 HD
ATOM     17  H   LIG    1       25.248 -13.487   1.371  0.00  0.00    +0.144 HD
ENDBRANCH  11  15
ENDBRANCH   4   6
BRANCH   2  18
ATOM     18  O   LIG    1       29.461 -20.403   5.502  0.00  0.00    -0.386 OA
ATOM     19  H   LIG    1       29.087 -20.738   4.659  0.00  0.00    +0.210 HD
ENDBRANCH   2  18
BRANCH   3  20
ATOM     20  O   LIG    1       29.475 -17.726   5.676  0.00  0.00    -0.385 OA
ATOM     21  H   LIG    1       30.089 -18.357   5.256  0.00  0.00    +0.210 HD
ENDBRANCH   3  20
BRANCH   1  22
ATOM     22  C   LIG    1       25.885 -20.291   6.719  0.00  0.00    +0.311 C 
BRANCH  22  24
ATOM     23  C   LIG    1       24.615 -21.571   4.690  0.00  0.00    +0.340 C 
ATOM     24  S   LIG    1       24.613 -21.571   6.507  0.00  0.00    -0.011 S 
BRANCH  24  25
ATOM     25  C   LIG    1       23.114 -20.546   6.722  0.00  0.00    +0.280 C 
BRANCH  25  26
ATOM     26  C   LIG    1       22.848 -19.636   5.515  0.00  0.00    +0.084 C 
BRANCH  26  27
ATOM     27  CA  LIG    1       21.444 -19.781   4.908  0.00  0.00    +0.165 C 
BRANCH  27  28
ATOM     28  N   LIG    1       21.308 -21.111   4.222  0.00  0.00    -0.318 NA
ATOM     29  H1  LIG    1       21.457 -20.965   3.218  0.00  0.00    +0.119 HD
ATOM     30  H2  LIG    1       20.332 -21.412   4.288  0.00  0.00    +0.119 HD
ENDBRANCH  27  28
BRANCH  27  31
ATOM     31  C   LIG    1       21.095 -18.676   3.889  0.00  0.00    +0.322 C 
ATOM     32  O   LIG    1       20.087 -18.635   3.220  0.00  0.00    -0.249 OA
BRANCH  31  33
ATOM     33  OXT LIG    1       22.089 -17.752   3.783  0.00  0.00    -0.479 OA
ATOM     34  HXT LIG    1       21.780 -17.085   3.125  0.00  0.00    +0.295 HD
ENDBRANCH  31  33
ENDBRANCH  27  31
ENDBRANCH  26  27
ENDBRANCH  25  26
ENDBRANCH  24  25
ENDBRANCH  22  24
ENDBRANCH   1  22
TORSDOF 12
ENDMDL
MODEL 3
REMARK VINA RESULT:       0.1      2.146      2.602
REMARK  Name = *****
REMARK                            x       y       z     vdW  Elec       q    Type
REMARK                         _______ _______ _______ _____ _____    ______ ____
ROOT
ATOM      1  C   LIG    1       22.748 -19.906   3.407  0.00  0.00    +0.201 C 
ATOM      2  C   LIG    1       21.839 -20.253   4.593  0.00  0.00    +0.181 C 
ATOM      3  C   LIG    1       22.828 -20.371   5.736  0.00  0.00    +0.195 C 
ATOM      4  C   LIG    1       24.002 -21.050   5.022  0.00  0.00    +0.253 C 
ATOM      5  O   LIG    1       24.029 -20.547   3.670  0.00  0.00    -0.343 OA
ENDROOT
BRANCH   4   6
ATOM      6  N   LIG    1       25.312 -20.863   5.610  0.00  0.00    -0.285 N 
ATOM      7  C   LIG    1       26.269 -19.949   5.262  0.00  0.00    +0.167 A 
ATOM      8  N   LIG    1       26.236 -19.056   4.261  0.00  0.00    -0.216 NA
ATOM      9  C   LIG    1       27.342 -18.291   4.245  0.00  0.00    +0.225 A 
ATOM     10  N   LIG    1       28.400 -18.344   5.073  0.00  0.00    -0.219 NA
ATOM     11  C   LIG    1       28.388 -19.253   6.075  0.00  0.00    +0.147 A 
ATOM     12  C   LIG    1       27.285 -20.118   6.188  0.00  0.00    +0.147 A 
ATOM     13  N   LIG    1       26.985 -21.142   7.062  0.00  0.00    -0.231 NA
ATOM     14  C   LIG    1       25.799 -21.572   6.681  0.00  0.00    +0.203 A 
BRANCH  11  15
ATOM     15  N   LIG    1       29.475 -19.282   6.936  0.00  0.00    -0.341 N 
ATOM     16  H   LIG    1       29.752 -18.367   7.270  0.00  0.00    +0.144 HD
ATOM     17  H   LIG    1       29.401 -20.029   7.614  0.00  0.00    +0.144 HD
ENDBRANCH  11  15
ENDBRANCH   4   6
BRANCH   2  18
ATOM     18  O   LIG    1       21.210 -21.525   4.395  0.00  0.00    -0.386 OA
ATOM     19  H   LIG    1       20.370 -21.469   4.899  0.00  0.00    +0.210 HD
ENDBRANCH   2  18
BRANCH   3  20
ATOM     20  O   LIG    1       22.291 -21.129   6.819  0.00  0.00    -0.385 OA
ATOM     21  H   LIG    1       22.796 -21.964   6.854  0.00  0.00    +0.210 HD
ENDBRANCH   3  20
BRANCH   1  22
ATOM     22  C   LIG    1       23.013 -18.400   3.272  0.00  0.00    +0.311 C 
BRANCH  22  24
ATOM     23  C   LIG    1       20.575 -17.488   4.039  0.00  0.00    +0.340 C 
ATOM     24  S   LIG    1       22.288 -17.452   4.643  0.00  0.00    -0.011 S 
BRANCH  24  25
ATOM     25  C   LIG    1       22.681 -15.758   4.079  0.00  0.00    +0.280 C 
BRANCH  25  26
ATOM     26  C   LIG    1       24.110 -15.333   4.444  0.00  0.00    +0.084 C 
BRANCH  26  27
ATOM     27  CA  LIG    1       24.577 -14.032   3.774  0.00  0.00    +0.165 C 
BRANCH  27  28
ATOM     28  N   LIG    1       23.453 -13.418   2.988  0.00  0.00    -0.318 NA
ATOM     29  H1  LIG    1       23.834 -13.091   2.094  0.00  0.00    +0.119 HD
ATOM     30  H2  LIG    1       23.157 -12.560   3.461  0.00  0.00    +0.119 HD
ENDBRANCH  27  28
BRANCH  27  31
ATOM     31  C   LIG    1       25.779 -14.223   2.825  0.00  0.00    +0.322 C 
ATOM     32  O   LIG    1       26.073 -13.484   1.913  0.00  0.00    -0.249 OA
BRANCH  31  33
ATOM     33  OXT LIG    1       26.464 -15.366   3.100  0.00  0.00    -0.479 OA
ATOM     34  HXT LIG    1       27.356 -15.261   2.690  0.00  0.00    +0.295 HD
ENDBRANCH  31  33
ENDBRANCH  27  31
ENDBRANCH  26  27
ENDBRANCH  25  26
ENDBRANCH  24  25
ENDBRANCH  22  24
ENDBRANCH   1  22
TORSDOF 12
ENDMDL
MODEL 4
REMARK VINA RESULT:       0.2      2.840      5.999
REMARK  Name = *****
REMARK                            x       y       z     vdW  Elec       q    Type
REMARK                         _______ _______ _______ _____ _____    ______ ____
ROOT
ATOM      1  C   LIG    1       22.723 -19.536   5.013  0.00  0.00    +0.201 C 
ATOM      2  C   LIG    1       21.731 -19.448   3.846  0.00  0.00    +0.181 C 
ATOM      3  C   LIG    1       22.063 -18.099   3.240  0.00  0.00    +0.195 C 
ATOM      4  C   LIG    1       22.337 -17.281   4.506  0.00  0.00    +0.253 C 
ATOM      5  O   LIG    1       22.947 -18.170   5.465  0.00  0.00    -0.343 OA
ENDROOT
BRANCH   4   6
ATOM      6  N   LIG    1       23.183 -16.116   4.354  0.00  0.00    -0.285 N 
ATOM      7  C   LIG    1       24.472 -16.064   3.899  0.00  0.00    +0.167 A 
ATOM      8  N   LIG    1       25.267 -17.087   3.544  0.00  0.00    -0.216 NA
ATOM      9  C   LIG    1       26.462 -16.654   3.106  0.00  0.00    +0.225 A 
ATOM     10  N   LIG    1       26.901 -15.387   3.008  0.00  0.00    -0.219 NA
ATOM     11  C   LIG    1       26.064 -14.386   3.367  0.00  0.00    +0.147 A 
ATOM     12  C   LIG    1       24.786 -14.717   3.851  0.00  0.00    +0.147 A 
ATOM     13  N   LIG    1       23.733 -13.953   4.308  0.00  0.00    -0.231 NA
ATOM     14  C   LIG    1       22.792 -14.824   4.609  0.00  0.00    +0.203 A 
BRANCH  11  15
ATOM     15  N   LIG    1       26.521 -13.082   3.240  0.00  0.00    -0.341 N 
ATOM     16  H   LIG    1       27.043 -12.918   2.387  0.00  0.00    +0.144 HD
ATOM     17  H   LIG    1       25.815 -12.407   3.498  0.00  0.00    +0.144 HD
ENDBRANCH  11  15
ENDBRANCH   4   6
BRANCH   2  18
ATOM     18  O   LIG    1       20.382 -19.417   4.328  0.00  0.00    -0.386 OA
ATOM     19  H   LIG    1       19.925 -20.133   3.838  0.00  0.00    +0.210 HD
ENDBRANCH   2  18
BRANCH   3  20
ATOM     20  O   LIG    1       20.986 -17.599   2.448  0.00  0.00    -0.385 OA
ATOM     21  H   LIG    1       21.286 -16.750   2.072  0.00  0.00    +0.210 HD
ENDBRANCH   3  20
BRANCH   1  22
ATOM     22  C   LIG    1       24.087 -20.108   4.603  0.00  0.00    +0.311 C 
BRANCH  22  24
ATOM     23  C   LIG    1       23.123 -21.494   6.728  0.00  0.00    +0.340 C 
ATOM     24  S   LIG    1       24.573 -21.524   5.633  0.00  0.00    -0.011 S 
BRANCH  24  25
ATOM     25  C   LIG    1       25.725 -20.684   6.777  0.00  0.00    +0.280 C 
BRANCH  25  26
ATOM     26  C   LIG    1       26.982 -21.517   7.061  0.00  0.00    +0.084 C 
BRANCH  26  27
ATOM     27  CA  LIG    1       28.216 -21.105   6.244  0.00  0.00    +0.165 C 
BRANCH  27  28
ATOM     28  N   LIG    1       29.473 -21.410   7.008  0.00  0.00    -0.318 NA
ATOM     29  H1  LIG    1       29.215 -21.965   7.831  0.00  0.00    +0.119 HD
ATOM     30  H2  LIG    1       29.835 -20.537   7.400  0.00  0.00    +0.119 HD
ENDBRANCH  27  28
BRANCH  27  31
ATOM     31  C   LIG    1       28.233 -19.609   5.864  0.00  0.00    +0.322 C 
ATOM     32  O   LIG    1       28.826 -18.743   6.466  0.00  0.00    -0.249 OA
BRANCH  31  33
ATOM     33  OXT LIG    1       27.452 -19.352   4.780  0.00  0.00    -0.479 OA
ATOM     34  HXT LIG    1       27.191 -20.229   4.411  0.00  0.00    +0.295 HD
ENDBRANCH  31  33
ENDBRANCH  27  31
ENDBRANCH  26  27
ENDBRANCH  25  26
ENDBRANCH  24  25
ENDBRANCH  22  24
ENDBRANCH   1  22
TORSDOF 12
ENDMDL
MODEL 5
REMARK VINA RESULT:       1.7      2.988      7.192
REMARK  Name = *****
REMARK                            x       y       z     vdW  Elec       q    Type
REMARK                         _______ _______ _______ _____ _____    ______ ____
ROOT
ATOM      1  C   LIG    1       26.671 -19.484   4.649  0.00  0.00    +0.201 C 
ATOM      2  C   LIG    1       27.999 -19.237   5.377  0.00  0.00    +0.181 C 
ATOM      3  C   LIG    1       28.115 -17.727   5.335  0.00  0.00    +0.195 C 
ATOM      4  C   LIG    1       27.568 -17.442   3.932  0.00  0.00    +0.253 C 
ATOM      5  O   LIG    1       26.533 -18.414   3.672  0.00  0.00    -0.343 OA
ENDROOT
BRANCH   4   6
ATOM      6  N   LIG    1       27.024 -16.118   3.707  0.00  0.00    -0.285 N 
ATOM      7  C   LIG    1       25.717 -15.721   3.778  0.00  0.00    +0.167 A 
ATOM      8  N   LIG    1       24.633 -16.476   4.016  0.00  0.00    -0.216 NA
ATOM      9  C   LIG    1       23.513 -15.734   4.052  0.00  0.00    +0.225 A 
ATOM     10  N   LIG    1       23.389 -14.407   3.875  0.00  0.00    -0.219 NA
ATOM     11  C   LIG    1       24.509 -13.682   3.647  0.00  0.00    +0.147 A 
ATOM     12  C   LIG    1       25.744 -14.351   3.578  0.00  0.00    +0.147 A 
ATOM     13  N   LIG    1       27.031 -13.916   3.344  0.00  0.00    -0.231 NA
ATOM     14  C   LIG    1       27.772 -15.002   3.420  0.00  0.00    +0.203 A 
BRANCH  11  15
ATOM     15  N   LIG    1       24.371 -12.310   3.489  0.00  0.00    -0.341 N 
ATOM     16  H   LIG    1       23.749 -12.051   2.733  0.00  0.00    +0.144 HD
ATOM     17  H   LIG    1       24.261 -11.836   4.374  0.00  0.00    +0.144 HD
ENDBRANCH  11  15
ENDBRANCH   4   6
BRANCH   2  18
ATOM     18  O   LIG    1       29.092 -19.804   4.644  0.00  0.00    -0.386 OA
ATOM     19  H   LIG    1       29.894 -19.409   5.048  0.00  0.00    +0.210 HD
ENDBRANCH   2  18
BRANCH   3  20
ATOM     20  O   LIG    1       29.462 -17.298   5.529  0.00  0.00    -0.385 OA
ATOM     21  H   LIG    1       29.423 -16.357   5.784  0.00  0.00    +0.210 HD
ENDBRANCH   3  20
BRANCH   1  22
ATOM     22  C   LIG    1       25.452 -19.411   5.579  0.00  0.00    +0.311 C 
BRANCH  22  24
ATOM     23  C   LIG    1       26.897 -21.571   6.360  0.00  0.00    +0.340 C 
ATOM     24  S   LIG    1       25.659 -20.441   7.062  0.00  0.00    -0.011 S 
BRANCH  24  25
ATOM     25  C   LIG    1       24.219 -21.549   6.863  0.00  0.00    +0.280 C 
BRANCH  25  26
ATOM     26  C   LIG    1       23.653 -21.528   5.437  0.00  0.00    +0.084 C 
BRANCH  26  27
ATOM     27  CA  LIG    1       22.349 -20.730   5.282  0.00  0.00    +0.165 C 
BRANCH  27  28
ATOM     28  N   LIG    1       21.299 -21.572   4.615  0.00  0.00    -0.318 NA
ATOM     29  H1  LIG    1       21.772 -22.345   4.136  0.00  0.00    +0.119 HD
ATOM     30  H2  LIG    1       20.880 -21.029   3.857  0.00  0.00    +0.119 HD
ENDBRANCH  27  28
BRANCH  27  31
ATOM     31  C   LIG    1       22.515 -19.430   4.466  0.00  0.00    +0.322 C 
ATOM     32  O   LIG    1       21.845 -18.432   4.600  0.00  0.00    -0.249 OA
BRANCH  31  33
ATOM     33  OXT LIG    1       23.488 -19.545   3.522  0.00  0.00    -0.479 OA
ATOM     34  HXT LIG    1       24.339 -19.334   3.973  0.00  0.00    +0.295 HD
ENDBRANCH  31  33
ENDBRANCH  27  31
ENDBRANCH  26  27
ENDBRANCH  25  26
ENDBRANCH  24  25
ENDBRANCH  22  24
ENDBRANCH   1  22
TORSDOF 12
ENDMDL
