MODEL 1
REMARK VINA RESULT:      -3.9      0.000      0.000
REMARK  Name = *****
REMARK                            x       y       z     vdW  Elec       q    Type
REMARK                         _______ _______ _______ _____ _____    ______ ____
ROOT
ATOM      1  S   LIG    1       23.802 -14.646   4.132  0.00  0.00    +0.025 S 
ATOM      2  O   LIG    1       23.329 -14.286   5.456  0.00  0.00    -0.164 OA
ATOM      3  O   LIG    1       23.107 -14.158   2.952  0.00  0.00    -0.164 OA
ENDROOT
BRANCH   1   7
ATOM      4  C   LIG    1       23.820 -19.209   3.783  0.00  0.00    +0.025 A 
ATOM      5  C   LIG    1       24.965 -18.469   3.473  0.00  0.00    +0.024 A 
ATOM      6  C   LIG    1       24.963 -17.075   3.570  0.00  0.00    +0.029 A 
ATOM      7  C   LIG    1       23.820 -16.422   4.034  0.00  0.00    +0.094 A 
ATOM      8  C   LIG    1       22.684 -17.149   4.394  0.00  0.00    +0.029 A 
ATOM      9  C   LIG    1       22.702 -18.541   4.293  0.00  0.00    +0.024 A 
BRANCH   4  10
ATOM     10  N   LIG    1       23.870 -20.608   3.799  0.00  0.00    -0.358 N 
ATOM     11  H   LIG    1       23.316 -21.045   3.068  0.00  0.00    +0.142 HD
ATOM     12  H   LIG    1       23.683 -21.014   4.711  0.00  0.00    +0.142 HD
ENDBRANCH   4  10
ENDBRANCH   1   7
BRANCH   1  13
ATOM     13  C   LIG    1       25.495 -14.121   4.012  0.00  0.00    +0.094 A 
ATOM     14  C   LIG    1       26.189 -13.752   5.166  0.00  0.00    +0.029 A 
ATOM     15  C   LIG    1       27.522 -13.347   5.064  0.00  0.00    +0.024 A 
ATOM     16  C   LIG    1       28.184 -13.358   3.832  0.00  0.00    +0.025 A 
ATOM     17  C   LIG    1       27.460 -13.688   2.681  0.00  0.00    +0.024 A 
ATOM     18  C   LIG    1       26.126 -14.097   2.767  0.00  0.00    +0.029 A 
BRANCH  16  19
ATOM     19  N   LIG    1       29.475 -12.828   3.724  0.00  0.00    -0.358 N 
ATOM     20  H   LIG    1       29.642 -12.332   2.855  0.00  0.00    +0.142 HD
ATOM     21  H   LIG    1       29.767 -12.289   4.533  0.00  0.00    +0.142 HD
ENDBRANCH  16  19
ENDBRANCH   1  13
TORSDOF 4
ENDMDL
MODEL 2
REMARK VINA RESULT:      -3.9      0.023      5.686
REMARK  Name = *****
REMARK                            x       y       z     vdW  Elec       q    Type
REMARK                         _______ _______ _______ _____ _____    ______ ____
ROOT
ATOM      1  S   LIG    1       23.786 -14.631   4.124  0.00  0.00    +0.025 S 
ATOM      2  O   LIG    1       23.092 -14.138   2.947  0.00  0.00    -0.164 OA
ATOM      3  O   LIG    1       23.315 -14.272   5.451  0.00  0.00    -0.164 OA
ENDROOT
BRANCH   1   7
ATOM      4  C   LIG    1       28.175 -13.367   3.829  0.00  0.00    +0.025 A 
ATOM      5  C   LIG    1       27.448 -13.683   2.677  0.00  0.00    +0.024 A 
ATOM      6  C   LIG    1       26.110 -14.076   2.762  0.00  0.00    +0.029 A 
ATOM      7  C   LIG    1       25.480 -14.102   4.007  0.00  0.00    +0.094 A 
ATOM      8  C   LIG    1       26.177 -13.744   5.162  0.00  0.00    +0.029 A 
ATOM      9  C   LIG    1       27.513 -13.352   5.062  0.00  0.00    +0.024 A 
BRANCH   4  10
ATOM     10  N   LIG    1       29.475 -12.859   3.724  0.00  0.00    -0.358 N 
ATOM     11  H   LIG    1       29.857 -12.527   4.605  0.00  0.00    +0.142 HD
ATOM     12  H   LIG    1       29.589 -12.177   2.980  0.00  0.00    +0.142 HD
ENDBRANCH   4  10
ENDBRANCH   1   7
BRANCH   1  13
ATOM     13  C   LIG    1       23.807 -16.405   4.024  0.00  0.00    +0.094 A 
ATOM     14  C   LIG    1       22.671 -17.132   4.385  0.00  0.00    +0.029 A 
ATOM     15  C   LIG    1       22.693 -18.526   4.297  0.00  0.00    +0.024 A 
ATOM     16  C   LIG    1       23.816 -19.196   3.803  0.00  0.00    +0.025 A 
ATOM     17  C   LIG    1       24.960 -18.455   3.490  0.00  0.00    +0.024 A 
ATOM     18  C   LIG    1       24.954 -17.060   3.570  0.00  0.00    +0.029 A 
BRANCH  16  19
ATOM     19  N   LIG    1       23.873 -20.594   3.842  0.00  0.00    -0.358 N 
ATOM     20  H   LIG    1       24.355 -21.008   3.051  0.00  0.00    +0.142 HD
ATOM     21  H   LIG    1       24.205 -20.967   4.727  0.00  0.00    +0.142 HD
ENDBRANCH  16  19
ENDBRANCH   1  13
TORSDOF 4
ENDMDL
MODEL 3
REMARK VINA RESULT:      -3.3      3.870      5.900
REMARK  Name = *****
REMARK                            x       y       z     vdW  Elec       q    Type
REMARK                         _______ _______ _______ _____ _____    ______ ____
ROOT
ATOM      1  S   LIG    1       23.896 -19.772   4.202  0.00  0.00    +0.025 S 
ATOM      2  O   LIG    1       24.014 -20.278   2.846  0.00  0.00    -0.164 OA
ATOM      3  O   LIG    1       22.774 -20.174   5.035  0.00  0.00    -0.164 OA
ENDROOT
BRANCH   1   7
ATOM      4  C   LIG    1       23.879 -15.198   4.062  0.00  0.00    +0.025 A 
ATOM      5  C   LIG    1       24.998 -15.917   3.634  0.00  0.00    +0.024 A 
ATOM      6  C   LIG    1       25.012 -17.313   3.681  0.00  0.00    +0.029 A 
ATOM      7  C   LIG    1       23.874 -17.996   4.112  0.00  0.00    +0.094 A 
ATOM      8  C   LIG    1       22.730 -17.295   4.498  0.00  0.00    +0.029 A 
ATOM      9  C   LIG    1       22.731 -15.900   4.443  0.00  0.00    +0.024 A 
BRANCH   4  10
ATOM     10  N   LIG    1       23.829 -13.809   3.897  0.00  0.00    -0.358 N 
ATOM     11  H   LIG    1       22.911 -13.460   3.638  0.00  0.00    +0.142 HD
ATOM     12  H   LIG    1       24.559 -13.441   3.293  0.00  0.00    +0.142 HD
ENDBRANCH   4  10
ENDBRANCH   1   7
BRANCH   1  13
ATOM     13  C   LIG    1       25.387 -20.211   5.064  0.00  0.00    +0.094 A 
ATOM     14  C   LIG    1       26.602 -19.643   4.677  0.00  0.00    +0.029 A 
ATOM     15  C   LIG    1       27.769 -19.988   5.365  0.00  0.00    +0.024 A 
ATOM     16  C   LIG    1       27.726 -20.849   6.466  0.00  0.00    +0.025 A 
ATOM     17  C   LIG    1       26.507 -21.442   6.810  0.00  0.00    +0.024 A 
ATOM     18  C   LIG    1       25.331 -21.107   6.133  0.00  0.00    +0.029 A 
BRANCH  16  19
ATOM     19  N   LIG    1       28.914 -21.286   7.062  0.00  0.00    -0.358 N 
ATOM     20  H   LIG    1       29.557 -20.537   7.293  0.00  0.00    +0.142 HD
ATOM     21  H   LIG    1       28.773 -21.920   7.843  0.00  0.00    +0.142 HD
ENDBRANCH  16  19
ENDBRANCH   1  13
TORSDOF 4
ENDMDL
MODEL 4
REMARK VINA RESULT:      -3.2      3.774      4.875
REMARK  Name = *****
REMARK                            x       y       z     vdW  Elec       q    Type
REMARK                         _______ _______ _______ _____ _____    ______ ____
ROOT
ATOM      1  S   LIG    1       23.809 -19.608   4.209  0.00  0.00    +0.025 S 
ATOM      2  O   LIG    1       22.680 -19.960   5.052  0.00  0.00    -0.164 OA
ATOM      3  O   LIG    1       23.895 -20.122   2.852  0.00  0.00    -0.164 OA
ENDROOT
BRANCH   1   7
ATOM      4  C   LIG    1       27.603 -20.836   6.456  0.00  0.00    +0.025 A 
ATOM      5  C   LIG    1       26.356 -21.338   6.840  0.00  0.00    +0.024 A 
ATOM      6  C   LIG    1       25.194 -20.961   6.163  0.00  0.00    +0.029 A 
ATOM      7  C   LIG    1       25.288 -20.115   5.057  0.00  0.00    +0.094 A 
ATOM      8  C   LIG    1       26.530 -19.642   4.630  0.00  0.00    +0.029 A 
ATOM      9  C   LIG    1       27.683 -20.028   5.316  0.00  0.00    +0.024 A 
BRANCH   4  10
ATOM     10  N   LIG    1       28.771 -21.313   7.061  0.00  0.00    -0.358 N 
ATOM     11  H   LIG    1       28.716 -21.361   8.075  0.00  0.00    +0.142 HD
ATOM     12  H   LIG    1       29.616 -20.843   6.750  0.00  0.00    +0.142 HD
ENDBRANCH   4  10
ENDBRANCH   1   7
BRANCH   1  13
ATOM     13  C   LIG    1       23.869 -17.835   4.115  0.00  0.00    +0.094 A 
ATOM     14  C   LIG    1       22.761 -17.083   4.509  0.00  0.00    +0.029 A 
ATOM     15  C   LIG    1       22.818 -15.689   4.439  0.00  0.00    +0.024 A 
ATOM     16  C   LIG    1       23.986 -15.038   4.031  0.00  0.00    +0.025 A 
ATOM     17  C   LIG    1       25.070 -15.808   3.597  0.00  0.00    +0.024 A 
ATOM     18  C   LIG    1       25.030 -17.204   3.663  0.00  0.00    +0.029 A 
BRANCH  16  19
ATOM     19  N   LIG    1       23.988 -13.651   3.841  0.00  0.00    -0.358 N 
ATOM     20  H   LIG    1       24.916 -13.247   3.779  0.00  0.00    +0.142 HD
ATOM     21  H   LIG    1       23.386 -13.339   3.086  0.00  0.00    +0.142 HD
ENDBRANCH  16  19
ENDBRANCH   1  13
TORSDOF 4
ENDMDL
MODEL 5
REMARK VINA RESULT:      -3.1      3.611      5.987
REMARK  Name = *****
REMARK                            x       y       z     vdW  Elec       q    Type
REMARK                         _______ _______ _______ _____ _____    ______ ____
ROOT
ATOM      1  S   LIG    1       23.789 -19.359   4.095  0.00  0.00    +0.025 S 
ATOM      2  O   LIG    1       23.883 -19.862   2.736  0.00  0.00    -0.164 OA
ATOM      3  O   LIG    1       22.606 -19.636   4.894  0.00  0.00    -0.164 OA
ENDROOT
BRANCH   1   7
ATOM      4  C   LIG    1       24.225 -14.811   3.828  0.00  0.00    +0.025 A 
ATOM      5  C   LIG    1       23.066 -15.383   4.361  0.00  0.00    +0.024 A 
ATOM      6  C   LIG    1       22.924 -16.771   4.438  0.00  0.00    +0.029 A 
ATOM      7  C   LIG    1       23.975 -17.592   4.027  0.00  0.00    +0.094 A 
ATOM      8  C   LIG    1       25.159 -17.037   3.536  0.00  0.00    +0.029 A 
ATOM      9  C   LIG    1       25.286 -15.648   3.467  0.00  0.00    +0.024 A 
BRANCH   4  10
ATOM     10  N   LIG    1       24.407 -13.424   3.867  0.00  0.00    -0.358 N 
ATOM     11  H   LIG    1       24.897 -13.099   4.695  0.00  0.00    +0.142 HD
ATOM     12  H   LIG    1       23.558 -12.894   3.696  0.00  0.00    +0.142 HD
ENDBRANCH   4  10
ENDBRANCH   1   7
BRANCH   1  13
ATOM     13  C   LIG    1       25.195 -19.976   4.989  0.00  0.00    +0.094 A 
ATOM     14  C   LIG    1       26.478 -19.546   4.645  0.00  0.00    +0.029 A 
ATOM     15  C   LIG    1       27.577 -20.030   5.357  0.00  0.00    +0.024 A 
ATOM     16  C   LIG    1       27.406 -20.896   6.442  0.00  0.00    +0.025 A 
ATOM     17  C   LIG    1       26.118 -21.352   6.743  0.00  0.00    +0.024 A 
ATOM     18  C   LIG    1       25.007 -20.875   6.041  0.00  0.00    +0.029 A 
BRANCH  16  19
ATOM     19  N   LIG    1       28.519 -21.474   7.062  0.00  0.00    -0.358 N 
ATOM     20  H   LIG    1       28.478 -21.459   8.075  0.00  0.00    +0.142 HD
ATOM     21  H   LIG    1       28.757 -22.395   6.705  0.00  0.00    +0.142 HD
ENDBRANCH  16  19
ENDBRANCH   1  13
TORSDOF 4
ENDMDL
MODEL 6
REMARK VINA RESULT:      -3.0      3.316      5.800
REMARK  Name = *****
REMARK                            x       y       z     vdW  Elec       q    Type
REMARK                         _______ _______ _______ _____ _____    ______ ____
ROOT
ATOM      1  S   LIG    1       23.527 -18.933   4.175  0.00  0.00    +0.025 S 
ATOM      2  O   LIG    1       23.446 -19.515   2.847  0.00  0.00    -0.164 OA
ATOM      3  O   LIG    1       22.371 -18.965   5.057  0.00  0.00    -0.164 OA
ENDROOT
BRANCH   1   7
ATOM      4  C   LIG    1       24.782 -14.550   3.776  0.00  0.00    +0.025 A 
ATOM      5  C   LIG    1       25.615 -15.573   3.311  0.00  0.00    +0.024 A 
ATOM      6  C   LIG    1       25.240 -16.913   3.437  0.00  0.00    +0.029 A 
ATOM      7  C   LIG    1       23.996 -17.228   3.986  0.00  0.00    +0.094 A 
ATOM      8  C   LIG    1       23.132 -16.218   4.411  0.00  0.00    +0.029 A 
ATOM      9  C   LIG    1       23.520 -14.884   4.278  0.00  0.00    +0.024 A 
BRANCH   4  10
ATOM     10  N   LIG    1       25.111 -13.211   3.536  0.00  0.00    -0.358 N 
ATOM     11  H   LIG    1       25.795 -13.084   2.795  0.00  0.00    +0.142 HD
ATOM     12  H   LIG    1       25.360 -12.694   4.374  0.00  0.00    +0.142 HD
ENDBRANCH   4  10
ENDBRANCH   1   7
BRANCH   1  13
ATOM     13  C   LIG    1       24.869 -19.730   5.024  0.00  0.00    +0.094 A 
ATOM     14  C   LIG    1       24.618 -20.455   6.191  0.00  0.00    +0.029 A 
ATOM     15  C   LIG    1       25.677 -21.085   6.848  0.00  0.00    +0.024 A 
ATOM     16  C   LIG    1       26.973 -21.044   6.324  0.00  0.00    +0.025 A 
ATOM     17  C   LIG    1       27.213 -20.276   5.180  0.00  0.00    +0.024 A 
ATOM     18  C   LIG    1       26.164 -19.642   4.509  0.00  0.00    +0.029 A 
BRANCH  16  19
ATOM     19  N   LIG    1       28.044 -21.567   7.058  0.00  0.00    -0.358 N 
ATOM     20  H   LIG    1       28.870 -21.755   6.500  0.00  0.00    +0.142 HD
ATOM     21  H   LIG    1       28.263 -21.040   7.897  0.00  0.00    +0.142 HD
ENDBRANCH  16  19
ENDBRANCH   1  13
TORSDOF 4
ENDMDL
MODEL 7
REMARK VINA RESULT:      -2.2      3.055      5.525
REMARK  Name = *****
REMARK                            x       y       z     vdW  Elec       q    Type
REMARK                         _______ _______ _______ _____ _____    ______ ____
ROOT
ATOM      1  S   LIG    1       27.254 -14.618   3.256  0.00  0.00    +0.025 S 
ATOM      2  O   LIG    1       28.469 -14.268   3.970  0.00  0.00    -0.164 OA
ATOM      3  O   LIG    1       27.181 -14.448   1.815  0.00  0.00    -0.164 OA
ENDROOT
BRANCH   1   7
ATOM      4  C   LIG    1       23.867 -12.106   5.034  0.00  0.00    +0.025 A 
ATOM      5  C   LIG    1       23.707 -12.741   3.798  0.00  0.00    +0.024 A 
ATOM      6  C   LIG    1       24.740 -13.503   3.247  0.00  0.00    +0.029 A 
ATOM      7  C   LIG    1       25.925 -13.674   3.966  0.00  0.00    +0.094 A 
ATOM      8  C   LIG    1       26.084 -13.086   5.222  0.00  0.00    +0.029 A 
ATOM      9  C   LIG    1       25.042 -12.329   5.760  0.00  0.00    +0.024 A 
BRANCH   4  10
ATOM     10  N   LIG    1       22.786 -11.447   5.631  0.00  0.00    -0.358 N 
ATOM     11  H   LIG    1       22.510 -10.595   5.151  0.00  0.00    +0.142 HD
ATOM     12  H   LIG    1       22.897 -11.300   6.630  0.00  0.00    +0.142 HD
ENDBRANCH   4  10
ENDBRANCH   1   7
BRANCH   1  13
ATOM     13  C   LIG    1       26.902 -16.323   3.613  0.00  0.00    +0.094 A 
ATOM     14  C   LIG    1       27.818 -17.080   4.346  0.00  0.00    +0.029 A 
ATOM     15  C   LIG    1       27.531 -18.418   4.628  0.00  0.00    +0.024 A 
ATOM     16  C   LIG    1       26.318 -18.991   4.233  0.00  0.00    +0.025 A 
ATOM     17  C   LIG    1       25.434 -18.231   3.461  0.00  0.00    +0.024 A 
ATOM     18  C   LIG    1       25.706 -16.891   3.172  0.00  0.00    +0.029 A 
BRANCH  16  19
ATOM     19  N   LIG    1       26.100 -20.362   4.407  0.00  0.00    -0.358 N 
ATOM     20  H   LIG    1       26.858 -20.945   4.068  0.00  0.00    +0.142 HD
ATOM     21  H   LIG    1       25.817 -20.617   5.348  0.00  0.00    +0.142 HD
ENDBRANCH  16  19
ENDBRANCH   1  13
TORSDOF 4
ENDMDL
MODEL 8
REMARK VINA RESULT:      -2.1      3.591      4.332
REMARK  Name = *****
REMARK                            x       y       z     vdW  Elec       q    Type
REMARK                         _______ _______ _______ _____ _____    ______ ____
ROOT
ATOM      1  S   LIG    1       24.976 -18.721   3.638  0.00  0.00    +0.025 S 
ATOM      2  O   LIG    1       23.735 -19.129   4.272  0.00  0.00    -0.164 OA
ATOM      3  O   LIG    1       25.268 -19.132   2.275  0.00  0.00    -0.164 OA
ENDROOT
BRANCH   1   7
ATOM      4  C   LIG    1       28.450 -20.264   6.188  0.00  0.00    +0.025 A 
ATOM      5  C   LIG    1       28.615 -19.147   5.363  0.00  0.00    +0.024 A 
ATOM      6  C   LIG    1       27.561 -18.676   4.577  0.00  0.00    +0.029 A 
ATOM      7  C   LIG    1       26.314 -19.298   4.658  0.00  0.00    +0.094 A 
ATOM      8  C   LIG    1       26.117 -20.385   5.512  0.00  0.00    +0.029 A 
ATOM      9  C   LIG    1       27.180 -20.843   6.293  0.00  0.00    +0.024 A 
BRANCH   4  10
ATOM     10  N   LIG    1       29.473 -20.653   7.060  0.00  0.00    -0.358 N 
ATOM     11  H   LIG    1       29.334 -21.572   7.470  0.00  0.00    +0.142 HD
ATOM     12  H   LIG    1       29.701 -19.955   7.762  0.00  0.00    +0.142 HD
ENDBRANCH   4  10
ENDBRANCH   1   7
BRANCH   1  13
ATOM     13  C   LIG    1       25.039 -16.946   3.688  0.00  0.00    +0.094 A 
ATOM     14  C   LIG    1       26.211 -16.284   3.315  0.00  0.00    +0.029 A 
ATOM     15  C   LIG    1       26.250 -14.888   3.349  0.00  0.00    +0.024 A 
ATOM     16  C   LIG    1       25.117 -14.147   3.700  0.00  0.00    +0.025 A 
ATOM     17  C   LIG    1       23.967 -14.827   4.113  0.00  0.00    +0.024 A 
ATOM     18  C   LIG    1       23.912 -16.223   4.082  0.00  0.00    +0.029 A 
BRANCH  16  19
ATOM     19  N   LIG    1       25.208 -12.759   3.856  0.00  0.00    -0.358 N 
ATOM     20  H   LIG    1       26.097 -12.370   3.561  0.00  0.00    +0.142 HD
ATOM     21  H   LIG    1       24.422 -12.249   3.463  0.00  0.00    +0.142 HD
ENDBRANCH  16  19
ENDBRANCH   1  13
TORSDOF 4
ENDMDL
MODEL 9
REMARK VINA RESULT:      -1.9      2.838      6.327
REMARK  Name = *****
REMARK                            x       y       z     vdW  Elec       q    Type
REMARK                         _______ _______ _______ _____ _____    ______ ____
ROOT
ATOM      1  S   LIG    1       25.992 -17.937   3.491  0.00  0.00    +0.025 S 
ATOM      2  O   LIG    1       27.086 -18.097   4.432  0.00  0.00    -0.164 OA
ATOM      3  O   LIG    1       26.210 -18.172   2.073  0.00  0.00    -0.164 OA
ENDROOT
BRANCH   1   7
ATOM      4  C   LIG    1       24.449 -13.661   4.019  0.00  0.00    +0.025 A 
ATOM      5  C   LIG    1       25.732 -13.896   3.517  0.00  0.00    +0.024 A 
ATOM      6  C   LIG    1       26.212 -15.199   3.360  0.00  0.00    +0.029 A 
ATOM      7  C   LIG    1       25.377 -16.277   3.660  0.00  0.00    +0.094 A 
ATOM      8  C   LIG    1       24.076 -16.062   4.118  0.00  0.00    +0.029 A 
ATOM      9  C   LIG    1       23.611 -14.754   4.267  0.00  0.00    +0.024 A 
BRANCH   4  10
ATOM     10  N   LIG    1       23.936 -12.360   4.058  0.00  0.00    -0.358 N 
ATOM     11  H   LIG    1       24.363 -11.731   3.383  0.00  0.00    +0.142 HD
ATOM     12  H   LIG    1       23.912 -11.956   4.989  0.00  0.00    +0.142 HD
ENDBRANCH   4  10
ENDBRANCH   1   7
BRANCH   1  13
ATOM     13  C   LIG    1       24.678 -19.013   4.016  0.00  0.00    +0.094 A 
ATOM     14  C   LIG    1       24.972 -20.315   4.426  0.00  0.00    +0.029 A 
ATOM     15  C   LIG    1       23.935 -21.152   4.845  0.00  0.00    +0.024 A 
ATOM     16  C   LIG    1       22.618 -20.687   4.908  0.00  0.00    +0.025 A 
ATOM     17  C   LIG    1       22.337 -19.395   4.450  0.00  0.00    +0.024 A 
ATOM     18  C   LIG    1       23.363 -18.545   4.031  0.00  0.00    +0.029 A 
BRANCH  16  19
ATOM     19  N   LIG    1       21.574 -21.571   5.203  0.00  0.00    -0.358 N 
ATOM     20  H   LIG    1       21.884 -22.460   5.582  0.00  0.00    +0.142 HD
ATOM     21  H   LIG    1       20.831 -21.159   5.759  0.00  0.00    +0.142 HD
ENDBRANCH  16  19
ENDBRANCH   1  13
TORSDOF 4
ENDMDL
