MODEL 1
REMARK VINA RESULT:      -6.0      0.000      0.000
REMARK  Name = *****
REMARK                            x       y       z     vdW  Elec       q    Type
REMARK                         _______ _______ _______ _____ _____    ______ ____
ROOT
ATOM      1  C   LIG    1       26.158 -19.885   4.787  0.00  0.00    +0.043 A 
ATOM      2  C   LIG    1       25.270 -19.267   3.876  0.00  0.00    -0.011 A 
ATOM      3  C   LIG    1       23.911 -19.631   3.885  0.00  0.00    +0.022 A 
ATOM      4  C   LIG    1       23.432 -20.555   4.811  0.00  0.00    +0.019 A 
ATOM      5 BR   LIG    1       21.601 -21.028   4.800  0.00  0.00    -0.050 Br
ATOM      6  C   LIG    1       24.285 -21.123   5.751  0.00  0.00    +0.032 A 
ATOM      7  C   LIG    1       25.636 -20.771   5.748  0.00  0.00    +0.040 A 
ATOM      8 BR   LIG    1       26.762 -21.564   7.062  0.00  0.00    -0.048 Br
ENDROOT
BRANCH   1   9
ATOM      9  N   LIG    1       27.500 -19.450   4.852  0.00  0.00    -0.357 N 
ATOM     10  H   LIG    1       28.130 -20.243   5.007  0.00  0.00    +0.142 HD
ATOM     11  H   LIG    1       27.637 -18.714   5.542  0.00  0.00    +0.142 HD
ENDBRANCH   1   9
BRANCH   2  12
ATOM     12  C   LIG    1       25.736 -18.202   2.902  0.00  0.00    +0.118 C 
BRANCH  12  13
ATOM     13  N   LIG    1       26.522 -17.169   3.584  0.00  0.00    -0.309 NA
ATOM     14  H   LIG    1       27.504 -17.308   3.339  0.00  0.00    +0.122 HD
BRANCH  13  15
ATOM     15  C   LIG    1       26.132 -15.797   3.229  0.00  0.00    +0.054 C 
ATOM     16  C   LIG    1       27.339 -14.891   3.531  0.00  0.00    +0.021 C 
ATOM     17  C   LIG    1       27.033 -13.409   3.314  0.00  0.00    +0.033 C 
ATOM     18  C   LIG    1       25.792 -12.952   4.075  0.00  0.00    +0.115 C 
ATOM     19  C   LIG    1       24.589 -13.840   3.769  0.00  0.00    +0.033 C 
ATOM     20  C   LIG    1       24.882 -15.324   3.990  0.00  0.00    +0.021 C 
BRANCH  18  21
ATOM     21  O   LIG    1       26.048 -12.934   5.476  0.00  0.00    -0.392 OA
ATOM     22  H   LIG    1       26.599 -13.700   5.708  0.00  0.00    +0.210 HD
ENDBRANCH  18  21
ENDBRANCH  13  15
ENDBRANCH  12  13
ENDBRANCH   2  12
TORSDOF 5
ENDMDL
MODEL 2
REMARK VINA RESULT:      -5.9      1.375      2.572
REMARK  Name = *****
REMARK                            x       y       z     vdW  Elec       q    Type
REMARK                         _______ _______ _______ _____ _____    ______ ____
ROOT
ATOM      1  C   LIG    1       24.516 -19.759   4.930  0.00  0.00    +0.043 A 
ATOM      2  C   LIG    1       25.688 -19.190   4.381  0.00  0.00    -0.011 A 
ATOM      3  C   LIG    1       26.936 -19.496   4.954  0.00  0.00    +0.022 A 
ATOM      4  C   LIG    1       27.025 -20.385   6.022  0.00  0.00    +0.019 A 
ATOM      5 BR   LIG    1       28.715 -20.778   6.775  0.00  0.00    -0.050 Br
ATOM      6  C   LIG    1       25.885 -20.998   6.531  0.00  0.00    +0.032 A 
ATOM      7  C   LIG    1       24.641 -20.699   5.971  0.00  0.00    +0.040 A 
ATOM      8 BR   LIG    1       23.111 -21.572   6.691  0.00  0.00    -0.048 Br
ENDROOT
BRANCH   1   9
ATOM      9  N   LIG    1       23.273 -19.538   4.296  0.00  0.00    -0.357 N 
ATOM     10  H   LIG    1       23.041 -18.541   4.294  0.00  0.00    +0.142 HD
ATOM     11  H   LIG    1       22.526 -20.102   4.698  0.00  0.00    +0.142 HD
ENDBRANCH   1   9
BRANCH   2  12
ATOM     12  C   LIG    1       25.642 -18.275   3.171  0.00  0.00    +0.118 C 
BRANCH  12  13
ATOM     13  N   LIG    1       26.615 -17.185   3.296  0.00  0.00    -0.309 NA
ATOM     14  H   LIG    1       27.358 -17.348   2.614  0.00  0.00    +0.122 HD
BRANCH  13  15
ATOM     15  C   LIG    1       26.042 -15.851   3.067  0.00  0.00    +0.054 C 
ATOM     16  C   LIG    1       27.176 -14.831   3.270  0.00  0.00    +0.021 C 
ATOM     17  C   LIG    1       26.692 -13.384   3.175  0.00  0.00    +0.033 C 
ATOM     18  C   LIG    1       25.517 -13.099   4.105  0.00  0.00    +0.115 C 
ATOM     19  C   LIG    1       24.384 -14.101   3.899  0.00  0.00    +0.033 C 
ATOM     20  C   LIG    1       24.856 -15.552   4.000  0.00  0.00    +0.021 C 
BRANCH  18  21
ATOM     21  O   LIG    1       25.946 -13.111   5.464  0.00  0.00    -0.392 OA
ATOM     22  H   LIG    1       26.786 -12.627   5.536  0.00  0.00    +0.210 HD
ENDBRANCH  18  21
ENDBRANCH  13  15
ENDBRANCH  12  13
ENDBRANCH   2  12
TORSDOF 5
ENDMDL
MODEL 3
REMARK VINA RESULT:      -5.3      1.543      1.983
REMARK  Name = *****
REMARK                            x       y       z     vdW  Elec       q    Type
REMARK                         _______ _______ _______ _____ _____    ______ ____
ROOT
ATOM      1  C   LIG    1       27.430 -19.321   5.038  0.00  0.00    +0.043 A 
ATOM      2  C   LIG    1       26.408 -18.749   4.245  0.00  0.00    -0.011 A 
ATOM      3  C   LIG    1       25.122 -19.320   4.262  0.00  0.00    +0.022 A 
ATOM      4  C   LIG    1       24.843 -20.409   5.084  0.00  0.00    +0.019 A 
ATOM      5 BR   LIG    1       23.106 -21.158   5.086  0.00  0.00    -0.050 Br
ATOM      6  C   LIG    1       25.824 -20.942   5.913  0.00  0.00    +0.032 A 
ATOM      7  C   LIG    1       27.104 -20.385   5.901  0.00  0.00    +0.040 A 
ATOM      8 BR   LIG    1       28.410 -21.139   7.062  0.00  0.00    -0.048 Br
ENDROOT
BRANCH   1   9
ATOM      9  N   LIG    1       28.693 -18.692   5.104  0.00  0.00    -0.357 N 
ATOM     10  H   LIG    1       29.442 -19.365   4.919  0.00  0.00    +0.142 HD
ATOM     11  H   LIG    1       28.834 -18.197   5.982  0.00  0.00    +0.142 HD
ENDBRANCH   1   9
BRANCH   2  12
ATOM     12  C   LIG    1       26.651 -17.518   3.393  0.00  0.00    +0.118 C 
BRANCH  12  13
ATOM     13  N   LIG    1       25.425 -16.728   3.242  0.00  0.00    -0.309 NA
ATOM     14  H   LIG    1       24.713 -17.134   3.852  0.00  0.00    +0.122 HD
BRANCH  13  15
ATOM     15  C   LIG    1       25.590 -15.307   3.580  0.00  0.00    +0.054 C 
ATOM     16  C   LIG    1       24.201 -14.771   3.969  0.00  0.00    +0.021 C 
ATOM     17  C   LIG    1       24.204 -13.266   4.236  0.00  0.00    +0.033 C 
ATOM     18  C   LIG    1       24.803 -12.469   3.081  0.00  0.00    +0.115 C 
ATOM     19  C   LIG    1       26.185 -12.989   2.699  0.00  0.00    +0.033 C 
ATOM     20  C   LIG    1       26.193 -14.493   2.422  0.00  0.00    +0.021 C 
BRANCH  18  21
ATOM     21  O   LIG    1       23.933 -12.503   1.952  0.00  0.00    -0.392 OA
ATOM     22  H   LIG    1       23.040 -12.240   2.231  0.00  0.00    +0.210 HD
ENDBRANCH  18  21
ENDBRANCH  13  15
ENDBRANCH  12  13
ENDBRANCH   2  12
TORSDOF 5
ENDMDL
MODEL 4
REMARK VINA RESULT:      -4.9      3.786      6.881
REMARK  Name = *****
REMARK                            x       y       z     vdW  Elec       q    Type
REMARK                         _______ _______ _______ _____ _____    ______ ____
ROOT
ATOM      1  C   LIG    1       24.614 -14.566   3.955  0.00  0.00    +0.043 A 
ATOM      2  C   LIG    1       25.603 -15.494   3.554  0.00  0.00    -0.011 A 
ATOM      3  C   LIG    1       26.942 -15.075   3.456  0.00  0.00    +0.022 A 
ATOM      4  C   LIG    1       27.302 -13.773   3.794  0.00  0.00    +0.019 A 
ATOM      5 BR   LIG    1       29.110 -13.235   3.652  0.00  0.00    -0.050 Br
ATOM      6  C   LIG    1       26.348 -12.869   4.248  0.00  0.00    +0.032 A 
ATOM      7  C   LIG    1       25.015 -13.274   4.346  0.00  0.00    +0.040 A 
ATOM      8 BR   LIG    1       23.748 -12.007   4.984  0.00  0.00    -0.048 Br
ENDROOT
BRANCH   1   9
ATOM      9  N   LIG    1       23.287 -15.006   4.153  0.00  0.00    -0.357 N 
ATOM     10  H   LIG    1       22.872 -14.547   4.969  0.00  0.00    +0.142 HD
ATOM     11  H   LIG    1       23.219 -16.021   4.212  0.00  0.00    +0.142 HD
ENDBRANCH   1   9
BRANCH   2  12
ATOM     12  C   LIG    1       25.264 -16.941   3.248  0.00  0.00    +0.118 C 
BRANCH  12  13
ATOM     13  N   LIG    1       26.378 -17.830   3.595  0.00  0.00    -0.309 NA
ATOM     14  H   LIG    1       26.814 -17.469   4.445  0.00  0.00    +0.122 HD
BRANCH  13  15
ATOM     15  C   LIG    1       25.974 -19.225   3.821  0.00  0.00    +0.054 C 
ATOM     16  C   LIG    1       24.445 -19.285   3.657  0.00  0.00    +0.021 C 
ATOM     17  C   LIG    1       23.871 -20.665   3.979  0.00  0.00    +0.033 C 
ATOM     18  C   LIG    1       24.303 -21.170   5.353  0.00  0.00    +0.115 C 
ATOM     19  C   LIG    1       25.819 -21.124   5.516  0.00  0.00    +0.033 C 
ATOM     20  C   LIG    1       26.403 -19.746   5.203  0.00  0.00    +0.021 C 
BRANCH  18  21
ATOM     21  O   LIG    1       23.672 -20.411   6.381  0.00  0.00    -0.392 OA
ATOM     22  H   LIG    1       24.348 -20.102   7.008  0.00  0.00    +0.210 HD
ENDBRANCH  18  21
ENDBRANCH  13  15
ENDBRANCH  12  13
ENDBRANCH   2  12
TORSDOF 5
ENDMDL
MODEL 5
REMARK VINA RESULT:      -4.8      1.559      2.131
REMARK  Name = *****
REMARK                            x       y       z     vdW  Elec       q    Type
REMARK                         _______ _______ _______ _____ _____    ______ ____
ROOT
ATOM      1  C   LIG    1       24.790 -19.965   5.098  0.00  0.00    +0.043 A 
ATOM      2  C   LIG    1       24.844 -18.988   4.076  0.00  0.00    -0.011 A 
ATOM      3  C   LIG    1       23.646 -18.488   3.536  0.00  0.00    +0.022 A 
ATOM      4  C   LIG    1       22.415 -18.914   4.031  0.00  0.00    +0.019 A 
ATOM      5 BR   LIG    1       20.819 -18.227   3.286  0.00  0.00    -0.050 Br
ATOM      6  C   LIG    1       22.350 -19.828   5.078  0.00  0.00    +0.032 A 
ATOM      7  C   LIG    1       23.535 -20.333   5.618  0.00  0.00    +0.040 A 
ATOM      8 BR   LIG    1       23.396 -21.571   7.056  0.00  0.00    -0.048 Br
ENDROOT
BRANCH   1   9
ATOM      9  N   LIG    1       25.986 -20.394   5.713  0.00  0.00    -0.357 N 
ATOM     10  H   LIG    1       26.740 -20.474   5.024  0.00  0.00    +0.142 HD
ATOM     11  H   LIG    1       25.863 -21.254   6.244  0.00  0.00    +0.142 HD
ENDBRANCH   1   9
BRANCH   2  12
ATOM     12  C   LIG    1       26.163 -18.444   3.560  0.00  0.00    +0.118 C 
BRANCH  12  13
ATOM     13  N   LIG    1       25.968 -17.183   2.837  0.00  0.00    -0.309 NA
ATOM     14  H   LIG    1       25.048 -17.214   2.394  0.00  0.00    +0.122 HD
BRANCH  13  15
ATOM     15  C   LIG    1       26.045 -15.991   3.693  0.00  0.00    +0.054 C 
ATOM     16  C   LIG    1       24.677 -15.290   3.616  0.00  0.00    +0.021 C 
ATOM     17  C   LIG    1       24.650 -13.963   4.375  0.00  0.00    +0.033 C 
ATOM     18  C   LIG    1       25.778 -13.026   3.952  0.00  0.00    +0.115 C 
ATOM     19  C   LIG    1       27.138 -13.713   4.038  0.00  0.00    +0.033 C 
ATOM     20  C   LIG    1       27.178 -15.038   3.276  0.00  0.00    +0.021 C 
BRANCH  18  21
ATOM     21  O   LIG    1       25.552 -12.543   2.631  0.00  0.00    -0.392 OA
ATOM     22  H   LIG    1       25.855 -11.621   2.574  0.00  0.00    +0.210 HD
ENDBRANCH  18  21
ENDBRANCH  13  15
ENDBRANCH  12  13
ENDBRANCH   2  12
TORSDOF 5
ENDMDL
MODEL 6
REMARK VINA RESULT:      -4.6      3.965      6.701
REMARK  Name = *****
REMARK                            x       y       z     vdW  Elec       q    Type
REMARK                         _______ _______ _______ _____ _____    ______ ____
ROOT
ATOM      1  C   LIG    1       27.229 -15.064   3.788  0.00  0.00    +0.043 A 
ATOM      2  C   LIG    1       26.013 -15.606   3.311  0.00  0.00    -0.011 A 
ATOM      3  C   LIG    1       25.056 -14.751   2.734  0.00  0.00    +0.022 A 
ATOM      4  C   LIG    1       25.319 -13.391   2.591  0.00  0.00    +0.019 A 
ATOM      5 BR   LIG    1       24.015 -12.263   1.813  0.00  0.00    -0.050 Br
ATOM      6  C   LIG    1       26.536 -12.857   3.000  0.00  0.00    +0.032 A 
ATOM      7  C   LIG    1       27.491 -13.697   3.577  0.00  0.00    +0.040 A 
ATOM      8 BR   LIG    1       29.145 -12.923   4.110  0.00  0.00    -0.048 Br
ENDROOT
BRANCH   1   9
ATOM      9  N   LIG    1       28.233 -15.930   4.274  0.00  0.00    -0.357 N 
ATOM     10  H   LIG    1       28.914 -16.143   3.539  0.00  0.00    +0.142 HD
ATOM     11  H   LIG    1       27.848 -16.775   4.692  0.00  0.00    +0.142 HD
ENDBRANCH   1   9
BRANCH   2  12
ATOM     12  C   LIG    1       25.718 -17.093   3.381  0.00  0.00    +0.118 C 
BRANCH  12  13
ATOM     13  N   LIG    1       24.313 -17.339   3.720  0.00  0.00    -0.309 NA
ATOM     14  H   LIG    1       23.735 -16.865   3.025  0.00  0.00    +0.122 HD
BRANCH  13  15
ATOM     15  C   LIG    1       23.952 -18.763   3.751  0.00  0.00    +0.054 C 
ATOM     16  C   LIG    1       22.724 -18.898   4.669  0.00  0.00    +0.021 C 
ATOM     17  C   LIG    1       22.307 -20.353   4.885  0.00  0.00    +0.033 C 
ATOM     18  C   LIG    1       23.461 -21.226   5.369  0.00  0.00    +0.115 C 
ATOM     19  C   LIG    1       24.676 -21.105   4.455  0.00  0.00    +0.033 C 
ATOM     20  C   LIG    1       25.108 -19.654   4.238  0.00  0.00    +0.021 C 
BRANCH  18  21
ATOM     21  O   LIG    1       23.813 -20.885   6.707  0.00  0.00    -0.392 OA
ATOM     22  H   LIG    1       24.007 -19.933   6.751  0.00  0.00    +0.210 HD
ENDBRANCH  18  21
ENDBRANCH  13  15
ENDBRANCH  12  13
ENDBRANCH   2  12
TORSDOF 5
ENDMDL
MODEL 7
REMARK VINA RESULT:      -4.3      1.995      3.266
REMARK  Name = *****
REMARK                            x       y       z     vdW  Elec       q    Type
REMARK                         _______ _______ _______ _____ _____    ______ ____
ROOT
ATOM      1  C   LIG    1       25.679 -18.868   4.128  0.00  0.00    +0.043 A 
ATOM      2  C   LIG    1       26.818 -18.029   4.128  0.00  0.00    -0.011 A 
ATOM      3  C   LIG    1       27.941 -18.392   4.893  0.00  0.00    +0.022 A 
ATOM      4  C   LIG    1       27.953 -19.588   5.609  0.00  0.00    +0.019 A 
ATOM      5 BR   LIG    1       29.475 -20.051   6.631  0.00  0.00    -0.050 Br
ATOM      6  C   LIG    1       26.862 -20.450   5.567  0.00  0.00    +0.032 A 
ATOM      7  C   LIG    1       25.742 -20.096   4.813  0.00  0.00    +0.040 A 
ATOM      8 BR   LIG    1       24.279 -21.313   4.775  0.00  0.00    -0.048 Br
ENDROOT
BRANCH   1   9
ATOM      9  N   LIG    1       24.590 -18.561   3.283  0.00  0.00    -0.357 N 
ATOM     10  H   LIG    1       23.701 -18.718   3.766  0.00  0.00    +0.142 HD
ATOM     11  H   LIG    1       24.634 -19.060   2.396  0.00  0.00    +0.142 HD
ENDBRANCH   1   9
BRANCH   2  12
ATOM     12  C   LIG    1       26.874 -16.756   3.305  0.00  0.00    +0.118 C 
BRANCH  12  13
ATOM     13  N   LIG    1       27.528 -15.674   4.047  0.00  0.00    -0.309 NA
ATOM     14  H   LIG    1       28.514 -15.663   3.782  0.00  0.00    +0.122 HD
BRANCH  13  15
ATOM     15  C   LIG    1       26.950 -14.347   3.791  0.00  0.00    +0.054 C 
ATOM     16  C   LIG    1       25.822 -14.140   4.817  0.00  0.00    +0.021 C 
ATOM     17  C   LIG    1       25.052 -12.838   4.592  0.00  0.00    +0.033 C 
ATOM     18  C   LIG    1       24.534 -12.705   3.163  0.00  0.00    +0.115 C 
ATOM     19  C   LIG    1       25.652 -12.898   2.142  0.00  0.00    +0.033 C 
ATOM     20  C   LIG    1       26.424 -14.201   2.353  0.00  0.00    +0.021 C 
BRANCH  18  21
ATOM     21  O   LIG    1       23.484 -13.640   2.928  0.00  0.00    -0.392 OA
ATOM     22  H   LIG    1       23.790 -14.308   2.292  0.00  0.00    +0.210 HD
ENDBRANCH  18  21
ENDBRANCH  13  15
ENDBRANCH  12  13
ENDBRANCH   2  12
TORSDOF 5
ENDMDL
MODEL 8
REMARK VINA RESULT:      -4.1      1.500      1.819
REMARK  Name = *****
REMARK                            x       y       z     vdW  Elec       q    Type
REMARK                         _______ _______ _______ _____ _____    ______ ____
ROOT
ATOM      1  C   LIG    1       26.035 -19.377   4.614  0.00  0.00    +0.043 A 
ATOM      2  C   LIG    1       25.493 -18.350   3.808  0.00  0.00    -0.011 A 
ATOM      3  C   LIG    1       24.098 -18.266   3.645  0.00  0.00    +0.022 A 
ATOM      4  C   LIG    1       23.254 -19.154   4.307  0.00  0.00    +0.019 A 
ATOM      5 BR   LIG    1       21.383 -19.020   4.070  0.00  0.00    -0.050 Br
ATOM      6  C   LIG    1       23.773 -20.130   5.152  0.00  0.00    +0.032 A 
ATOM      7  C   LIG    1       25.157 -20.224   5.317  0.00  0.00    +0.040 A 
ATOM      8 BR   LIG    1       25.820 -21.566   6.492  0.00  0.00    -0.048 Br
ENDROOT
BRANCH   1   9
ATOM      9  N   LIG    1       27.425 -19.404   4.863  0.00  0.00    -0.357 N 
ATOM     10  H   LIG    1       27.635 -19.016   5.787  0.00  0.00    +0.142 HD
ATOM     11  H   LIG    1       27.961 -18.947   4.128  0.00  0.00    +0.142 HD
ENDBRANCH   1   9
BRANCH   2  12
ATOM     12  C   LIG    1       26.373 -17.317   3.129  0.00  0.00    +0.118 C 
BRANCH  12  13
ATOM     13  N   LIG    1       25.595 -16.140   2.729  0.00  0.00    -0.309 NA
ATOM     14  H   LIG    1       24.613 -16.326   2.942  0.00  0.00    +0.122 HD
BRANCH  13  15
ATOM     15  C   LIG    1       26.005 -14.902   3.406  0.00  0.00    +0.054 C 
ATOM     16  C   LIG    1       26.488 -13.929   2.315  0.00  0.00    +0.021 C 
ATOM     17  C   LIG    1       27.055 -12.632   2.892  0.00  0.00    +0.033 C 
ATOM     18  C   LIG    1       28.142 -12.881   3.933  0.00  0.00    +0.115 C 
ATOM     19  C   LIG    1       27.663 -13.836   5.023  0.00  0.00    +0.033 C 
ATOM     20  C   LIG    1       27.101 -15.141   4.458  0.00  0.00    +0.021 C 
BRANCH  18  21
ATOM     21  O   LIG    1       29.317 -13.392   3.310  0.00  0.00    -0.392 OA
ATOM     22  H   LIG    1       29.770 -13.990   3.929  0.00  0.00    +0.210 HD
ENDBRANCH  18  21
ENDBRANCH  13  15
ENDBRANCH  12  13
ENDBRANCH   2  12
TORSDOF 5
ENDMDL
