MODEL 1
REMARK VINA RESULT:      -2.5      0.000      0.000
REMARK  Name = *****
REMARK                            x       y       z     vdW  Elec       q    Type
REMARK                         _______ _______ _______ _____ _____    ______ ____
ROOT
ATOM      1  C   LIG    1       25.002 -21.570   5.842  0.00  0.00    +0.155 C 
ATOM      2  N   LIG    1       26.010 -20.562   5.583  0.00  0.00    -0.280 N 
ATOM      3  C   LIG    1       27.241 -20.658   6.235  0.00  0.00    +0.333 C 
ATOM      4  O   LIG    1       27.475 -21.568   7.036  0.00  0.00    -0.246 OA
ATOM      5  N   LIG    1       28.203 -19.671   5.945  0.00  0.00    -0.262 N 
ATOM      6  C   LIG    1       29.475 -19.784   6.628  0.00  0.00    +0.157 C 
ATOM      7  C   LIG    1       27.998 -18.557   5.125  0.00  0.00    +0.282 C 
ATOM      8  O   LIG    1       28.805 -17.641   4.987  0.00  0.00    -0.265 OA
ATOM      9  C   LIG    1       26.737 -18.574   4.472  0.00  0.00    +0.152 A 
ATOM     10  N   LIG    1       26.175 -17.741   3.546  0.00  0.00    -0.320 N 
ATOM     11  C   LIG    1       24.920 -18.228   3.281  0.00  0.00    +0.202 A 
ATOM     12  N   LIG    1       24.666 -19.322   3.968  0.00  0.00    -0.218 NA
ATOM     13  C   LIG    1       25.794 -19.534   4.700  0.00  0.00    +0.168 A 
ENDROOT
BRANCH  10  14
ATOM     14  C   LIG    1       26.778 -16.595   2.898  0.00  0.00    +0.184 C 
BRANCH  14  15
ATOM     15  C   LIG    1       26.282 -15.263   3.457  0.00  0.00    +0.270 C 
ATOM     16  O   LIG    1       27.236 -14.771   4.414  0.00  0.00    -0.347 OA
ATOM     17  C   LIG    1       27.369 -13.384   4.110  0.00  0.00    +0.191 C 
ATOM     18  C   LIG    1       27.173 -13.343   2.621  0.00  0.00    +0.191 C 
ATOM     19  O   LIG    1       26.137 -14.297   2.398  0.00  0.00    -0.347 OA
ENDBRANCH  14  15
ENDBRANCH  10  14
TORSDOF 2
ENDMDL
MODEL 2
REMARK VINA RESULT:      -2.1      1.796      3.019
REMARK  Name = *****
REMARK                            x       y       z     vdW  Elec       q    Type
REMARK                         _______ _______ _______ _____ _____    ______ ____
ROOT
ATOM      1  C   LIG    1       26.304 -21.572   7.055  0.00  0.00    +0.155 C 
ATOM      2  N   LIG    1       25.678 -20.685   6.095  0.00  0.00    -0.280 N 
ATOM      3  C   LIG    1       24.295 -20.758   5.914  0.00  0.00    +0.333 C 
ATOM      4  O   LIG    1       23.607 -21.572   6.538  0.00  0.00    -0.246 OA
ATOM      5  N   LIG    1       23.719 -19.869   4.986  0.00  0.00    -0.262 N 
ATOM      6  C   LIG    1       22.284 -19.955   4.811  0.00  0.00    +0.157 C 
ATOM      7  C   LIG    1       24.425 -18.979   4.171  0.00  0.00    +0.282 C 
ATOM      8  O   LIG    1       23.916 -18.305   3.279  0.00  0.00    -0.265 OA
ATOM      9  C   LIG    1       25.815 -18.945   4.462  0.00  0.00    +0.152 A 
ATOM     10  N   LIG    1       26.833 -18.178   3.971  0.00  0.00    -0.320 N 
ATOM     11  C   LIG    1       27.981 -18.589   4.599  0.00  0.00    +0.202 A 
ATOM     12  N   LIG    1       27.745 -19.552   5.466  0.00  0.00    -0.218 NA
ATOM     13  C   LIG    1       26.403 -19.764   5.380  0.00  0.00    +0.168 A 
ENDROOT
BRANCH  10  14
ATOM     14  C   LIG    1       26.749 -17.090   3.018  0.00  0.00    +0.184 C 
BRANCH  14  15
ATOM     15  C   LIG    1       26.469 -15.741   3.676  0.00  0.00    +0.270 C 
ATOM     16  O   LIG    1       27.720 -15.120   4.023  0.00  0.00    -0.347 OA
ATOM     17  C   LIG    1       27.571 -13.761   3.621  0.00  0.00    +0.191 C 
ATOM     18  C   LIG    1       26.682 -13.859   2.414  0.00  0.00    +0.191 C 
ATOM     19  O   LIG    1       25.752 -14.880   2.771  0.00  0.00    -0.347 OA
ENDBRANCH  14  15
ENDBRANCH  10  14
TORSDOF 2
ENDMDL
MODEL 3
REMARK VINA RESULT:      -2.0      2.757      6.499
REMARK  Name = *****
REMARK                            x       y       z     vdW  Elec       q    Type
REMARK                         _______ _______ _______ _____ _____    ______ ____
ROOT
ATOM      1  C   LIG    1       28.049 -14.101   3.313  0.00  0.00    +0.155 C 
ATOM      2  N   LIG    1       26.667 -14.431   3.599  0.00  0.00    -0.280 N 
ATOM      3  C   LIG    1       25.783 -13.399   3.922  0.00  0.00    +0.333 C 
ATOM      4  O   LIG    1       26.160 -12.226   3.986  0.00  0.00    -0.246 OA
ATOM      5  N   LIG    1       24.444 -13.755   4.176  0.00  0.00    -0.262 N 
ATOM      6  C   LIG    1       23.538 -12.675   4.508  0.00  0.00    +0.157 C 
ATOM      7  C   LIG    1       23.947 -15.061   4.216  0.00  0.00    +0.282 C 
ATOM      8  O   LIG    1       22.807 -15.358   4.565  0.00  0.00    -0.265 OA
ATOM      9  C   LIG    1       24.908 -16.032   3.829  0.00  0.00    +0.152 A 
ATOM     10  N   LIG    1       24.824 -17.385   3.657  0.00  0.00    -0.320 N 
ATOM     11  C   LIG    1       26.073 -17.820   3.295  0.00  0.00    +0.202 A 
ATOM     12  N   LIG    1       26.931 -16.825   3.212  0.00  0.00    -0.218 NA
ATOM     13  C   LIG    1       26.205 -15.722   3.540  0.00  0.00    +0.168 A 
ENDROOT
BRANCH  10  14
ATOM     14  C   LIG    1       23.647 -18.224   3.763  0.00  0.00    +0.184 C 
BRANCH  14  15
ATOM     15  C   LIG    1       23.981 -19.693   4.013  0.00  0.00    +0.270 C 
ATOM     16  O   LIG    1       24.812 -19.792   5.183  0.00  0.00    -0.347 OA
ATOM     17  C   LIG    1       24.270 -20.887   5.918  0.00  0.00    +0.191 C 
ATOM     18  C   LIG    1       22.802 -20.812   5.605  0.00  0.00    +0.191 C 
ATOM     19  O   LIG    1       22.776 -20.453   4.225  0.00  0.00    -0.347 OA
ENDBRANCH  14  15
ENDBRANCH  10  14
TORSDOF 2
ENDMDL
MODEL 4
REMARK VINA RESULT:      -1.7      1.579      2.889
REMARK  Name = *****
REMARK                            x       y       z     vdW  Elec       q    Type
REMARK                         _______ _______ _______ _____ _____    ______ ____
ROOT
ATOM      1  C   LIG    1       29.323 -19.918   6.716  0.00  0.00    +0.155 C 
ATOM      2  N   LIG    1       28.124 -19.646   5.950  0.00  0.00    -0.280 N 
ATOM      3  C   LIG    1       27.059 -20.547   6.024  0.00  0.00    +0.333 C 
ATOM      4  O   LIG    1       27.130 -21.571   6.710  0.00  0.00    -0.246 OA
ATOM      5  N   LIG    1       25.903 -20.241   5.280  0.00  0.00    -0.262 N 
ATOM      6  C   LIG    1       24.807 -21.183   5.368  0.00  0.00    +0.157 C 
ATOM      7  C   LIG    1       25.765 -19.156   4.408  0.00  0.00    +0.282 C 
ATOM      8  O   LIG    1       24.798 -18.978   3.672  0.00  0.00    -0.265 OA
ATOM      9  C   LIG    1       26.879 -18.275   4.438  0.00  0.00    +0.152 A 
ATOM     10  N   LIG    1       27.119 -17.082   3.817  0.00  0.00    -0.320 N 
ATOM     11  C   LIG    1       28.376 -16.681   4.194  0.00  0.00    +0.202 A 
ATOM     12  N   LIG    1       28.932 -17.539   5.024  0.00  0.00    -0.218 NA
ATOM     13  C   LIG    1       28.001 -18.520   5.175  0.00  0.00    +0.168 A 
ENDROOT
BRANCH  10  14
ATOM     14  C   LIG    1       26.221 -16.324   2.971  0.00  0.00    +0.184 C 
BRANCH  14  15
ATOM     15  C   LIG    1       26.288 -14.819   3.225  0.00  0.00    +0.270 C 
ATOM     16  O   LIG    1       26.171 -14.126   1.969  0.00  0.00    -0.347 OA
ATOM     17  C   LIG    1       25.264 -13.058   2.231  0.00  0.00    +0.191 C 
ATOM     18  C   LIG    1       24.341 -13.642   3.263  0.00  0.00    +0.191 C 
ATOM     19  O   LIG    1       25.214 -14.407   4.092  0.00  0.00    -0.347 OA
ENDBRANCH  14  15
ENDBRANCH  10  14
TORSDOF 2
ENDMDL
MODEL 5
REMARK VINA RESULT:      -1.7      2.536      5.761
REMARK  Name = *****
REMARK                            x       y       z     vdW  Elec       q    Type
REMARK                         _______ _______ _______ _____ _____    ______ ____
ROOT
ATOM      1  C   LIG    1       22.363 -14.931   4.996  0.00  0.00    +0.155 C 
ATOM      2  N   LIG    1       23.405 -15.782   4.458  0.00  0.00    -0.280 N 
ATOM      3  C   LIG    1       24.625 -15.206   4.098  0.00  0.00    +0.333 C 
ATOM      4  O   LIG    1       24.821 -13.992   4.210  0.00  0.00    -0.246 OA
ATOM      5  N   LIG    1       25.621 -16.066   3.595  0.00  0.00    -0.262 N 
ATOM      6  C   LIG    1       26.881 -15.455   3.227  0.00  0.00    +0.157 C 
ATOM      7  C   LIG    1       25.461 -17.433   3.349  0.00  0.00    +0.282 C 
ATOM      8  O   LIG    1       26.298 -18.139   2.792  0.00  0.00    -0.265 OA
ATOM      9  C   LIG    1       24.207 -17.933   3.791  0.00  0.00    +0.152 A 
ATOM     10  N   LIG    1       23.682 -19.194   3.816  0.00  0.00    -0.320 N 
ATOM     11  C   LIG    1       22.415 -19.090   4.332  0.00  0.00    +0.202 A 
ATOM     12  N   LIG    1       22.119 -17.846   4.649  0.00  0.00    -0.218 NA
ATOM     13  C   LIG    1       23.232 -17.136   4.316  0.00  0.00    +0.168 A 
ENDROOT
BRANCH  10  14
ATOM     14  C   LIG    1       24.329 -20.434   3.439  0.00  0.00    +0.184 C 
BRANCH  14  15
ATOM     15  C   LIG    1       24.886 -21.205   4.634  0.00  0.00    +0.270 C 
ATOM     16  O   LIG    1       25.838 -20.375   5.324  0.00  0.00    -0.347 OA
ATOM     17  C   LIG    1       25.530 -20.546   6.705  0.00  0.00    +0.191 C 
ATOM     18  C   LIG    1       24.042 -20.751   6.699  0.00  0.00    +0.191 C 
ATOM     19  O   LIG    1       23.825 -21.558   5.543  0.00  0.00    -0.347 OA
ENDBRANCH  14  15
ENDBRANCH  10  14
TORSDOF 2
ENDMDL
MODEL 6
REMARK VINA RESULT:      -1.5      2.951      4.143
REMARK  Name = *****
REMARK                            x       y       z     vdW  Elec       q    Type
REMARK                         _______ _______ _______ _____ _____    ______ ____
ROOT
ATOM      1  C   LIG    1       21.703 -16.314   5.009  0.00  0.00    +0.155 C 
ATOM      2  N   LIG    1       23.012 -16.561   4.438  0.00  0.00    -0.280 N 
ATOM      3  C   LIG    1       23.426 -17.882   4.251  0.00  0.00    +0.333 C 
ATOM      4  O   LIG    1       22.710 -18.832   4.579  0.00  0.00    -0.246 OA
ATOM      5  N   LIG    1       24.696 -18.083   3.677  0.00  0.00    -0.262 N 
ATOM      6  C   LIG    1       25.112 -19.458   3.488  0.00  0.00    +0.157 C 
ATOM      7  C   LIG    1       25.610 -17.074   3.358  0.00  0.00    +0.282 C 
ATOM      8  O   LIG    1       26.761 -17.277   2.978  0.00  0.00    -0.265 OA
ATOM      9  C   LIG    1       25.080 -15.769   3.539  0.00  0.00    +0.152 A 
ATOM     10  N   LIG    1       25.593 -14.529   3.280  0.00  0.00    -0.320 N 
ATOM     11  C   LIG    1       24.648 -13.616   3.674  0.00  0.00    +0.202 A 
ATOM     12  N   LIG    1       23.569 -14.204   4.147  0.00  0.00    -0.218 NA
ATOM     13  C   LIG    1       23.841 -15.535   4.058  0.00  0.00    +0.168 A 
ENDROOT
BRANCH  10  14
ATOM     14  C   LIG    1       26.857 -14.203   2.652  0.00  0.00    +0.184 C 
BRANCH  14  15
ATOM     15  C   LIG    1       28.001 -14.054   3.653  0.00  0.00    +0.270 C 
ATOM     16  O   LIG    1       28.578 -12.744   3.513  0.00  0.00    -0.347 OA
ATOM     17  C   LIG    1       28.756 -12.285   4.851  0.00  0.00    +0.191 C 
ATOM     18  C   LIG    1       27.604 -12.914   5.582  0.00  0.00    +0.191 C 
ATOM     19  O   LIG    1       27.513 -14.213   4.999  0.00  0.00    -0.347 OA
ENDBRANCH  14  15
ENDBRANCH  10  14
TORSDOF 2
ENDMDL
MODEL 7
REMARK VINA RESULT:      -1.2      3.083      6.283
REMARK  Name = *****
REMARK                            x       y       z     vdW  Elec       q    Type
REMARK                         _______ _______ _______ _____ _____    ______ ____
ROOT
ATOM      1  C   LIG    1       23.850 -12.552   4.837  0.00  0.00    +0.155 C 
ATOM      2  N   LIG    1       24.545 -13.747   4.402  0.00  0.00    -0.280 N 
ATOM      3  C   LIG    1       25.896 -13.653   4.062  0.00  0.00    +0.333 C 
ATOM      4  O   LIG    1       26.497 -12.576   4.107  0.00  0.00    -0.246 OA
ATOM      5  N   LIG    1       26.543 -14.838   3.661  0.00  0.00    -0.262 N 
ATOM      6  C   LIG    1       27.945 -14.726   3.313  0.00  0.00    +0.157 C 
ATOM      7  C   LIG    1       25.926 -16.081   3.493  0.00  0.00    +0.282 C 
ATOM      8  O   LIG    1       26.479 -17.071   3.020  0.00  0.00    -0.265 OA
ATOM      9  C   LIG    1       24.567 -16.086   3.908  0.00  0.00    +0.152 A 
ATOM     10  N   LIG    1       23.638 -17.084   3.987  0.00  0.00    -0.320 N 
ATOM     11  C   LIG    1       22.475 -16.513   4.437  0.00  0.00    +0.202 A 
ATOM     12  N   LIG    1       22.621 -15.223   4.662  0.00  0.00    -0.218 NA
ATOM     13  C   LIG    1       23.916 -14.966   4.337  0.00  0.00    +0.168 A 
ENDROOT
BRANCH  10  14
ATOM     14  C   LIG    1       23.824 -18.495   3.718  0.00  0.00    +0.184 C 
BRANCH  14  15
ATOM     15  C   LIG    1       23.694 -19.363   4.968  0.00  0.00    +0.270 C 
ATOM     16  O   LIG    1       22.463 -20.105   4.898  0.00  0.00    -0.347 OA
ATOM     17  C   LIG    1       22.813 -21.424   5.308  0.00  0.00    +0.191 C 
ATOM     18  C   LIG    1       24.223 -21.571   4.809  0.00  0.00    +0.191 C 
ATOM     19  O   LIG    1       24.795 -20.288   5.054  0.00  0.00    -0.347 OA
ENDBRANCH  14  15
ENDBRANCH  10  14
TORSDOF 2
ENDMDL
MODEL 8
REMARK VINA RESULT:      -1.1      2.755      3.690
REMARK  Name = *****
REMARK                            x       y       z     vdW  Elec       q    Type
REMARK                         _______ _______ _______ _____ _____    ______ ____
ROOT
ATOM      1  C   LIG    1       21.428 -17.565   4.694  0.00  0.00    +0.155 C 
ATOM      2  N   LIG    1       22.814 -17.620   4.271  0.00  0.00    -0.280 N 
ATOM      3  C   LIG    1       23.394 -18.867   4.029  0.00  0.00    +0.333 C 
ATOM      4  O   LIG    1       22.758 -19.913   4.185  0.00  0.00    -0.246 OA
ATOM      5  N   LIG    1       24.736 -18.880   3.603  0.00  0.00    -0.262 N 
ATOM      6  C   LIG    1       25.324 -20.180   3.353  0.00  0.00    +0.157 C 
ATOM      7  C   LIG    1       25.560 -17.757   3.485  0.00  0.00    +0.282 C 
ATOM      8  O   LIG    1       26.762 -17.802   3.236  0.00  0.00    -0.265 OA
ATOM      9  C   LIG    1       24.868 -16.536   3.707  0.00  0.00    +0.152 A 
ATOM     10  N   LIG    1       25.262 -15.231   3.616  0.00  0.00    -0.320 N 
ATOM     11  C   LIG    1       24.181 -14.462   3.964  0.00  0.00    +0.202 A 
ATOM     12  N   LIG    1       23.129 -15.201   4.249  0.00  0.00    -0.218 NA
ATOM     13  C   LIG    1       23.558 -16.482   4.084  0.00  0.00    +0.168 A 
ENDROOT
BRANCH  10  14
ATOM     14  C   LIG    1       26.545 -14.718   3.180  0.00  0.00    +0.184 C 
BRANCH  14  15
ATOM     15  C   LIG    1       26.855 -13.331   3.740  0.00  0.00    +0.270 C 
ATOM     16  O   LIG    1       27.236 -13.459   5.122  0.00  0.00    -0.347 OA
ATOM     17  C   LIG    1       28.371 -12.607   5.262  0.00  0.00    +0.191 C 
ATOM     18  C   LIG    1       29.035 -12.702   3.917  0.00  0.00    +0.191 C 
ATOM     19  O   LIG    1       27.936 -12.724   3.008  0.00  0.00    -0.347 OA
ENDBRANCH  14  15
ENDBRANCH  10  14
TORSDOF 2
ENDMDL
MODEL 9
REMARK VINA RESULT:      -0.4      2.907      4.687
REMARK  Name = *****
REMARK                            x       y       z     vdW  Elec       q    Type
REMARK                         _______ _______ _______ _____ _____    ______ ____
ROOT
ATOM      1  C   LIG    1       28.750 -20.562   7.059  0.00  0.00    +0.155 C 
ATOM      2  N   LIG    1       27.886 -19.905   6.099  0.00  0.00    -0.280 N 
ATOM      3  C   LIG    1       28.351 -18.760   5.449  0.00  0.00    +0.333 C 
ATOM      4  O   LIG    1       29.468 -18.292   5.691  0.00  0.00    -0.246 OA
ATOM      5  N   LIG    1       27.491 -18.158   4.511  0.00  0.00    -0.262 N 
ATOM      6  C   LIG    1       27.988 -16.972   3.843  0.00  0.00    +0.157 C 
ATOM      7  C   LIG    1       26.180 -18.561   4.238  0.00  0.00    +0.282 C 
ATOM      8  O   LIG    1       25.404 -17.946   3.511  0.00  0.00    -0.265 OA
ATOM      9  C   LIG    1       25.817 -19.758   4.911  0.00  0.00    +0.152 A 
ATOM     10  N   LIG    1       24.687 -20.525   4.869  0.00  0.00    -0.320 N 
ATOM     11  C   LIG    1       24.875 -21.563   5.746  0.00  0.00    +0.202 A 
ATOM     12  N   LIG    1       26.058 -21.505   6.322  0.00  0.00    -0.218 NA
ATOM     13  C   LIG    1       26.637 -20.390   5.799  0.00  0.00    +0.168 A 
ENDROOT
BRANCH  10  14
ATOM     14  C   LIG    1       23.522 -20.346   4.026  0.00  0.00    +0.184 C 
BRANCH  14  15
ATOM     15  C   LIG    1       22.391 -19.593   4.724  0.00  0.00    +0.270 C 
ATOM     16  O   LIG    1       22.545 -18.184   4.478  0.00  0.00    -0.347 OA
ATOM     17  C   LIG    1       21.231 -17.728   4.165  0.00  0.00    +0.191 C 
ATOM     18  C   LIG    1       20.617 -18.911   3.472  0.00  0.00    +0.191 C 
ATOM     19  O   LIG    1       21.114 -20.023   4.215  0.00  0.00    -0.347 OA
ENDBRANCH  14  15
ENDBRANCH  10  14
TORSDOF 2
ENDMDL
