MODEL 1
REMARK VINA RESULT:      -5.8      0.000      0.000
REMARK  Name = *****
REMARK                            x       y       z     vdW  Elec       q    Type
REMARK                         _______ _______ _______ _____ _____    ______ ____
ROOT
ATOM      1  C   LIG    1       25.074 -19.938   3.401  0.00  0.00    +0.332 C 
ATOM      2  O   LIG    1       24.501 -20.668   2.610  0.00  0.00    -0.246 OA
ENDROOT
BRANCH   1   3
ATOM      3  C   LIG    1       24.845 -18.488   3.550  0.00  0.00    +0.092 C 
ATOM      4  C   LIG    1       25.843 -17.629   3.377  0.00  0.00    +0.015 C 
BRANCH   4   5
ATOM      5  C   LIG    1       25.636 -16.179   3.391  0.00  0.00    -0.025 A 
ATOM      6  C   LIG    1       24.399 -15.681   3.799  0.00  0.00    +0.011 A 
ATOM      7  C   LIG    1       24.178 -14.306   3.848  0.00  0.00    +0.046 A 
ATOM      8  C   LIG    1       25.194 -13.413   3.502  0.00  0.00    +0.120 A 
ATOM      9  C   LIG    1       26.439 -13.905   3.114  0.00  0.00    +0.046 A 
ATOM     10  C   LIG    1       26.658 -15.281   3.056  0.00  0.00    +0.011 A 
BRANCH   8  11
ATOM     11  O   LIG    1       25.079 -12.051   3.546  0.00  0.00    -0.495 OA
ATOM     12  C   LIG    1       23.826 -11.549   3.094  0.00  0.00    +0.277 C 
ENDBRANCH   8  11
ENDBRANCH   4   5
ENDBRANCH   1   3
BRANCH   1  13
ATOM     13  O   LIG    1       25.905 -20.305   4.395  0.00  0.00    -0.461 OA
BRANCH  13  14
ATOM     14  C   LIG    1       25.589 -21.526   5.051  0.00  0.00    +0.236 C 
BRANCH  14  15
ATOM     15  C   LIG    1       25.420 -21.258   6.562  0.00  0.00    +0.026 C 
BRANCH  15  16
ATOM     16  C   LIG    1       26.547 -20.336   7.062  0.00  0.00    +0.003 C 
ATOM     17  C   LIG    1       27.939 -20.955   7.017  0.00  0.00    +0.004 C 
ENDBRANCH  15  16
BRANCH  15  18
ATOM     18  C   LIG    1       23.998 -20.775   6.932  0.00  0.00    +0.007 C 
BRANCH  18  19
ATOM     19  C   LIG    1       22.840 -21.571   6.316  0.00  0.00    +0.000 C 
BRANCH  19  21
ATOM     20  C   LIG    1       22.344 -19.320   5.252  0.00  0.00    +0.004 C 
ATOM     21  C   LIG    1       22.167 -20.828   5.154  0.00  0.00    -0.003 C 
ENDBRANCH  19  21
ENDBRANCH  18  19
ENDBRANCH  15  18
ENDBRANCH  14  15
ENDBRANCH  13  14
ENDBRANCH   1  13
TORSDOF 10
ENDMDL
MODEL 2
REMARK VINA RESULT:      -5.6      1.768      3.305
REMARK  Name = *****
REMARK                            x       y       z     vdW  Elec       q    Type
REMARK                         _______ _______ _______ _____ _____    ______ ____
ROOT
ATOM      1  C   LIG    1       21.916 -18.354   4.249  0.00  0.00    +0.332 C 
ATOM      2  O   LIG    1       20.760 -18.394   3.864  0.00  0.00    -0.246 OA
ENDROOT
BRANCH   1   3
ATOM      3  C   LIG    1       22.940 -17.398   3.786  0.00  0.00    +0.092 C 
ATOM      4  C   LIG    1       23.104 -16.235   4.406  0.00  0.00    +0.015 C 
BRANCH   4   5
ATOM      5  C   LIG    1       24.188 -15.313   4.062  0.00  0.00    -0.025 A 
ATOM      6  C   LIG    1       23.995 -13.946   4.258  0.00  0.00    +0.011 A 
ATOM      7  C   LIG    1       25.017 -13.044   3.964  0.00  0.00    +0.046 A 
ATOM      8  C   LIG    1       26.246 -13.499   3.486  0.00  0.00    +0.120 A 
ATOM      9  C   LIG    1       26.452 -14.866   3.308  0.00  0.00    +0.046 A 
ATOM     10  C   LIG    1       25.428 -15.768   3.593  0.00  0.00    +0.011 A 
BRANCH   8  11
ATOM     11  O   LIG    1       27.314 -12.694   3.198  0.00  0.00    -0.495 OA
ATOM     12  C   LIG    1       28.537 -13.097   3.804  0.00  0.00    +0.277 C 
ENDBRANCH   8  11
ENDBRANCH   4   5
ENDBRANCH   1   3
BRANCH   1  13
ATOM     13  O   LIG    1       22.462 -19.045   5.268  0.00  0.00    -0.461 OA
BRANCH  13  14
ATOM     14  C   LIG    1       22.320 -20.459   5.206  0.00  0.00    +0.236 C 
BRANCH  14  15
ATOM     15  C   LIG    1       23.718 -21.101   5.087  0.00  0.00    +0.026 C 
BRANCH  15  16
ATOM     16  C   LIG    1       24.201 -21.042   3.626  0.00  0.00    +0.003 C 
ATOM     17  C   LIG    1       25.156 -19.895   3.320  0.00  0.00    +0.004 C 
ENDBRANCH  15  16
BRANCH  15  18
ATOM     18  C   LIG    1       24.731 -20.535   6.110  0.00  0.00    +0.007 C 
BRANCH  18  19
ATOM     19  C   LIG    1       25.612 -21.571   6.822  0.00  0.00    +0.000 C 
BRANCH  19  21
ATOM     20  C   LIG    1       27.533 -20.168   5.935  0.00  0.00    +0.004 C 
ATOM     21  C   LIG    1       27.040 -21.063   7.062  0.00  0.00    -0.003 C 
ENDBRANCH  19  21
ENDBRANCH  18  19
ENDBRANCH  15  18
ENDBRANCH  14  15
ENDBRANCH  13  14
ENDBRANCH   1  13
TORSDOF 10
ENDMDL
MODEL 3
REMARK VINA RESULT:      -5.6      1.560      3.337
REMARK  Name = *****
REMARK                            x       y       z     vdW  Elec       q    Type
REMARK                         _______ _______ _______ _____ _____    ______ ____
ROOT
ATOM      1  C   LIG    1       23.673 -19.165   4.002  0.00  0.00    +0.332 C 
ATOM      2  O   LIG    1       22.485 -19.066   4.255  0.00  0.00    -0.246 OA
ENDROOT
BRANCH   1   3
ATOM      3  C   LIG    1       24.581 -18.042   3.700  0.00  0.00    +0.092 C 
ATOM      4  C   LIG    1       24.172 -16.787   3.853  0.00  0.00    +0.015 C 
BRANCH   4   5
ATOM      5  C   LIG    1       25.075 -15.647   3.688  0.00  0.00    -0.025 A 
ATOM      6  C   LIG    1       24.614 -14.371   4.011  0.00  0.00    +0.011 A 
ATOM      7  C   LIG    1       25.456 -13.268   3.889  0.00  0.00    +0.046 A 
ATOM      8  C   LIG    1       26.773 -13.428   3.456  0.00  0.00    +0.120 A 
ATOM      9  C   LIG    1       27.247 -14.703   3.151  0.00  0.00    +0.046 A 
ATOM     10  C   LIG    1       26.402 -15.807   3.264  0.00  0.00    +0.011 A 
BRANCH   8  11
ATOM     11  O   LIG    1       27.680 -12.411   3.332  0.00  0.00    -0.495 OA
ATOM     12  C   LIG    1       28.791 -12.500   4.218  0.00  0.00    +0.277 C 
ENDBRANCH   8  11
ENDBRANCH   4   5
ENDBRANCH   1   3
BRANCH   1  13
ATOM     13  O   LIG    1       24.439 -20.269   4.094  0.00  0.00    -0.461 OA
BRANCH  13  14
ATOM     14  C   LIG    1       25.674 -20.115   4.781  0.00  0.00    +0.236 C 
BRANCH  14  15
ATOM     15  C   LIG    1       25.457 -20.410   6.280  0.00  0.00    +0.026 C 
BRANCH  15  16
ATOM     16  C   LIG    1       24.460 -21.572   6.448  0.00  0.00    +0.003 C 
ATOM     17  C   LIG    1       23.123 -21.176   7.062  0.00  0.00    +0.004 C 
ENDBRANCH  15  16
BRANCH  15  18
ATOM     18  C   LIG    1       26.782 -20.597   7.056  0.00  0.00    +0.007 C 
BRANCH  18  19
ATOM     19  C   LIG    1       28.054 -20.664   6.200  0.00  0.00    +0.000 C 
BRANCH  19  21
ATOM     20  C   LIG    1       29.415 -18.540   5.916  0.00  0.00    +0.004 C 
ATOM     21  C   LIG    1       29.185 -19.788   6.756  0.00  0.00    -0.003 C 
ENDBRANCH  19  21
ENDBRANCH  18  19
ENDBRANCH  15  18
ENDBRANCH  14  15
ENDBRANCH  13  14
ENDBRANCH   1  13
TORSDOF 10
ENDMDL
MODEL 4
REMARK VINA RESULT:      -4.8      1.576      2.502
REMARK  Name = *****
REMARK                            x       y       z     vdW  Elec       q    Type
REMARK                         _______ _______ _______ _____ _____    ______ ____
ROOT
ATOM      1  C   LIG    1       28.370 -18.816   5.292  0.00  0.00    +0.332 C 
ATOM      2  O   LIG    1       29.464 -19.244   5.621  0.00  0.00    -0.246 OA
ENDROOT
BRANCH   1   3
ATOM      3  C   LIG    1       28.102 -17.465   4.764  0.00  0.00    +0.092 C 
ATOM      4  C   LIG    1       27.014 -17.230   4.040  0.00  0.00    +0.015 C 
BRANCH   4   5
ATOM      5  C   LIG    1       26.643 -15.882   3.604  0.00  0.00    -0.025 A 
ATOM      6  C   LIG    1       25.301 -15.605   3.343  0.00  0.00    +0.011 A 
ATOM      7  C   LIG    1       24.913 -14.325   2.951  0.00  0.00    +0.046 A 
ATOM      8  C   LIG    1       25.857 -13.305   2.828  0.00  0.00    +0.120 A 
ATOM      9  C   LIG    1       27.197 -13.570   3.108  0.00  0.00    +0.046 A 
ATOM     10  C   LIG    1       27.588 -14.852   3.492  0.00  0.00    +0.011 A 
BRANCH   8  11
ATOM     11  O   LIG    1       25.567 -12.015   2.477  0.00  0.00    -0.495 OA
ATOM     12  C   LIG    1       24.184 -11.683   2.540  0.00  0.00    +0.277 C 
ENDBRANCH   8  11
ENDBRANCH   4   5
ENDBRANCH   1   3
BRANCH   1  13
ATOM     13  O   LIG    1       27.220 -19.509   5.189  0.00  0.00    -0.461 OA
BRANCH  13  14
ATOM     14  C   LIG    1       26.963 -20.446   6.227  0.00  0.00    +0.236 C 
BRANCH  14  15
ATOM     15  C   LIG    1       25.604 -21.129   5.964  0.00  0.00    +0.026 C 
BRANCH  15  16
ATOM     16  C   LIG    1       24.590 -20.717   7.046  0.00  0.00    +0.003 C 
ATOM     17  C   LIG    1       23.263 -21.465   6.990  0.00  0.00    +0.004 C 
ENDBRANCH  15  16
BRANCH  15  18
ATOM     18  C   LIG    1       25.099 -20.930   4.516  0.00  0.00    +0.007 C 
BRANCH  18  19
ATOM     19  C   LIG    1       23.679 -20.367   4.374  0.00  0.00    +0.000 C 
BRANCH  19  21
ATOM     20  C   LIG    1       22.374 -18.194   4.236  0.00  0.00    +0.004 C 
ATOM     21  C   LIG    1       23.667 -18.914   3.882  0.00  0.00    -0.003 C 
ENDBRANCH  19  21
ENDBRANCH  18  19
ENDBRANCH  15  18
ENDBRANCH  14  15
ENDBRANCH  13  14
ENDBRANCH   1  13
TORSDOF 10
ENDMDL
MODEL 5
REMARK VINA RESULT:      -4.7      1.842      3.095
REMARK  Name = *****
REMARK                            x       y       z     vdW  Elec       q    Type
REMARK                         _______ _______ _______ _____ _____    ______ ____
ROOT
ATOM      1  C   LIG    1       21.886 -18.271   4.249  0.00  0.00    +0.332 C 
ATOM      2  O   LIG    1       20.828 -18.516   3.695  0.00  0.00    -0.246 OA
ENDROOT
BRANCH   1   3
ATOM      3  C   LIG    1       22.903 -17.315   3.770  0.00  0.00    +0.092 C 
ATOM      4  C   LIG    1       23.156 -16.205   4.453  0.00  0.00    +0.015 C 
BRANCH   4   5
ATOM      5  C   LIG    1       24.241 -15.293   4.085  0.00  0.00    -0.025 A 
ATOM      6  C   LIG    1       24.035 -13.919   4.206  0.00  0.00    +0.011 A 
ATOM      7  C   LIG    1       25.056 -13.025   3.888  0.00  0.00    +0.046 A 
ATOM      8  C   LIG    1       26.299 -13.494   3.460  0.00  0.00    +0.120 A 
ATOM      9  C   LIG    1       26.518 -14.867   3.357  0.00  0.00    +0.046 A 
ATOM     10  C   LIG    1       25.494 -15.761   3.666  0.00  0.00    +0.011 A 
BRANCH   8  11
ATOM     11  O   LIG    1       27.367 -12.696   3.153  0.00  0.00    -0.495 OA
ATOM     12  C   LIG    1       28.563 -13.015   3.857  0.00  0.00    +0.277 C 
ENDBRANCH   8  11
ENDBRANCH   4   5
ENDBRANCH   1   3
BRANCH   1  13
ATOM     13  O   LIG    1       22.284 -18.684   5.468  0.00  0.00    -0.461 OA
BRANCH  13  14
ATOM     14  C   LIG    1       22.471 -20.085   5.620  0.00  0.00    +0.236 C 
BRANCH  14  15
ATOM     15  C   LIG    1       23.983 -20.391   5.657  0.00  0.00    +0.026 C 
BRANCH  15  16
ATOM     16  C   LIG    1       24.335 -21.143   6.954  0.00  0.00    +0.003 C 
ATOM     17  C   LIG    1       25.794 -21.571   7.062  0.00  0.00    +0.004 C 
ENDBRANCH  15  16
BRANCH  15  18
ATOM     18  C   LIG    1       24.491 -21.080   4.369  0.00  0.00    +0.007 C 
BRANCH  18  19
ATOM     19  C   LIG    1       24.986 -20.142   3.260  0.00  0.00    +0.000 C 
BRANCH  19  21
ATOM     20  C   LIG    1       27.111 -19.601   4.538  0.00  0.00    +0.004 C 
ATOM     21  C   LIG    1       25.911 -19.039   3.790  0.00  0.00    -0.003 C 
ENDBRANCH  19  21
ENDBRANCH  18  19
ENDBRANCH  15  18
ENDBRANCH  14  15
ENDBRANCH  13  14
ENDBRANCH   1  13
TORSDOF 10
ENDMDL
MODEL 6
REMARK VINA RESULT:      -4.7      1.689      6.921
REMARK  Name = *****
REMARK                            x       y       z     vdW  Elec       q    Type
REMARK                         _______ _______ _______ _____ _____    ______ ____
ROOT
ATOM      1  C   LIG    1       27.804 -13.910   3.333  0.00  0.00    +0.332 C 
ATOM      2  O   LIG    1       28.864 -13.676   3.888  0.00  0.00    -0.246 OA
ENDROOT
BRANCH   1   3
ATOM      3  C   LIG    1       27.123 -15.218   3.304  0.00  0.00    +0.092 C 
ATOM      4  C   LIG    1       27.662 -16.270   3.907  0.00  0.00    +0.015 C 
BRANCH   4   5
ATOM      5  C   LIG    1       26.964 -17.553   4.012  0.00  0.00    -0.025 A 
ATOM      6  C   LIG    1       27.486 -18.537   4.852  0.00  0.00    +0.011 A 
ATOM      7  C   LIG    1       26.831 -19.758   4.993  0.00  0.00    +0.046 A 
ATOM      8  C   LIG    1       25.641 -20.007   4.309  0.00  0.00    +0.120 A 
ATOM      9  C   LIG    1       25.103 -19.020   3.484  0.00  0.00    +0.046 A 
ATOM     10  C   LIG    1       25.762 -17.801   3.335  0.00  0.00    +0.011 A 
BRANCH   8  11
ATOM     11  O   LIG    1       24.915 -21.162   4.407  0.00  0.00    -0.495 OA
ATOM     12  C   LIG    1       23.540 -20.970   4.720  0.00  0.00    +0.277 C 
ENDBRANCH   8  11
ENDBRANCH   4   5
ENDBRANCH   1   3
BRANCH   1  13
ATOM     13  O   LIG    1       26.961 -13.020   2.774  0.00  0.00    -0.461 OA
BRANCH  13  14
ATOM     14  C   LIG    1       25.603 -13.429   2.672  0.00  0.00    +0.236 C 
BRANCH  14  15
ATOM     15  C   LIG    1       24.836 -12.943   3.920  0.00  0.00    +0.026 C 
BRANCH  15  16
ATOM     16  C   LIG    1       23.793 -11.885   3.519  0.00  0.00    +0.003 C 
ATOM     17  C   LIG    1       23.863 -11.447   2.061  0.00  0.00    +0.004 C 
ENDBRANCH  15  16
BRANCH  15  18
ATOM     18  C   LIG    1       24.263 -14.105   4.766  0.00  0.00    +0.007 C 
BRANCH  18  19
ATOM     19  C   LIG    1       23.138 -14.918   4.111  0.00  0.00    +0.000 C 
BRANCH  19  21
ATOM     20  C   LIG    1       22.248 -17.265   4.490  0.00  0.00    +0.004 C 
ATOM     21  C   LIG    1       22.461 -15.884   5.092  0.00  0.00    -0.003 C 
ENDBRANCH  19  21
ENDBRANCH  18  19
ENDBRANCH  15  18
ENDBRANCH  14  15
ENDBRANCH  13  14
ENDBRANCH   1  13
TORSDOF 10
ENDMDL
MODEL 7
REMARK VINA RESULT:      -4.6      1.359      2.258
REMARK  Name = *****
REMARK                            x       y       z     vdW  Elec       q    Type
REMARK                         _______ _______ _______ _____ _____    ______ ____
ROOT
ATOM      1  C   LIG    1       25.249 -20.042   3.248  0.00  0.00    +0.332 C 
ATOM      2  O   LIG    1       24.650 -20.358   2.234  0.00  0.00    -0.246 OA
ENDROOT
BRANCH   1   3
ATOM      3  C   LIG    1       25.916 -18.747   3.481  0.00  0.00    +0.092 C 
ATOM      4  C   LIG    1       25.265 -17.608   3.270  0.00  0.00    +0.015 C 
BRANCH   4   5
ATOM      5  C   LIG    1       25.843 -16.306   3.607  0.00  0.00    -0.025 A 
ATOM      6  C   LIG    1       27.230 -16.189   3.700  0.00  0.00    +0.011 A 
ATOM      7  C   LIG    1       27.812 -14.957   3.993  0.00  0.00    +0.046 A 
ATOM      8  C   LIG    1       27.017 -13.826   4.183  0.00  0.00    +0.120 A 
ATOM      9  C   LIG    1       25.632 -13.932   4.071  0.00  0.00    +0.046 A 
ATOM     10  C   LIG    1       25.048 -15.165   3.786  0.00  0.00    +0.011 A 
BRANCH   8  11
ATOM     11  O   LIG    1       27.499 -12.573   4.446  0.00  0.00    -0.495 OA
ATOM     12  C   LIG    1       28.907 -12.436   4.285  0.00  0.00    +0.277 C 
ENDBRANCH   8  11
ENDBRANCH   4   5
ENDBRANCH   1   3
BRANCH   1  13
ATOM     13  O   LIG    1       25.301 -20.720   4.411  0.00  0.00    -0.461 OA
BRANCH  13  14
ATOM     14  C   LIG    1       24.173 -21.533   4.708  0.00  0.00    +0.236 C 
BRANCH  14  15
ATOM     15  C   LIG    1       23.516 -21.027   6.009  0.00  0.00    +0.026 C 
BRANCH  15  16
ATOM     16  C   LIG    1       24.597 -20.723   7.061  0.00  0.00    +0.003 C 
ATOM     17  C   LIG    1       25.908 -21.472   6.857  0.00  0.00    +0.004 C 
ENDBRANCH  15  16
BRANCH  15  18
ATOM     18  C   LIG    1       22.523 -19.865   5.770  0.00  0.00    +0.007 C 
BRANCH  18  19
ATOM     19  C   LIG    1       21.944 -19.760   4.352  0.00  0.00    +0.000 C 
BRANCH  19  21
ATOM     20  C   LIG    1       22.272 -17.307   4.917  0.00  0.00    +0.004 C 
ATOM     21  C   LIG    1       21.714 -18.308   3.916  0.00  0.00    -0.003 C 
ENDBRANCH  19  21
ENDBRANCH  18  19
ENDBRANCH  15  18
ENDBRANCH  14  15
ENDBRANCH  13  14
ENDBRANCH   1  13
TORSDOF 10
ENDMDL
MODEL 8
REMARK VINA RESULT:      -4.6      2.320      3.992
REMARK  Name = *****
REMARK                            x       y       z     vdW  Elec       q    Type
REMARK                         _______ _______ _______ _____ _____    ______ ____
ROOT
ATOM      1  C   LIG    1       22.203 -16.580   4.785  0.00  0.00    +0.332 C 
ATOM      2  O   LIG    1       21.387 -15.953   5.439  0.00  0.00    -0.246 OA
ENDROOT
BRANCH   1   3
ATOM      3  C   LIG    1       23.569 -16.127   4.458  0.00  0.00    +0.092 C 
ATOM      4  C   LIG    1       23.829 -14.834   4.304  0.00  0.00    +0.015 C 
BRANCH   4   5
ATOM      5  C   LIG    1       25.189 -14.330   4.104  0.00  0.00    -0.025 A 
ATOM      6  C   LIG    1       25.979 -14.066   5.222  0.00  0.00    +0.011 A 
ATOM      7  C   LIG    1       27.287 -13.610   5.065  0.00  0.00    +0.046 A 
ATOM      8  C   LIG    1       27.825 -13.427   3.791  0.00  0.00    +0.120 A 
ATOM      9  C   LIG    1       27.047 -13.710   2.669  0.00  0.00    +0.046 A 
ATOM     10  C   LIG    1       25.736 -14.157   2.824  0.00  0.00    +0.011 A 
BRANCH   8  11
ATOM     11  O   LIG    1       29.103 -13.012   3.539  0.00  0.00    -0.495 OA
ATOM     12  C   LIG    1       29.474 -11.807   4.201  0.00  0.00    +0.277 C 
ENDBRANCH   8  11
ENDBRANCH   4   5
ENDBRANCH   1   3
BRANCH   1  13
ATOM     13  O   LIG    1       22.104 -17.855   4.362  0.00  0.00    -0.461 OA
BRANCH  13  14
ATOM     14  C   LIG    1       23.290 -18.425   3.823  0.00  0.00    +0.236 C 
BRANCH  14  15
ATOM     15  C   LIG    1       23.789 -19.539   4.768  0.00  0.00    +0.026 C 
BRANCH  15  16
ATOM     16  C   LIG    1       22.614 -20.445   5.179  0.00  0.00    +0.003 C 
ATOM     17  C   LIG    1       22.897 -21.348   6.373  0.00  0.00    +0.004 C 
ENDBRANCH  15  16
BRANCH  15  18
ATOM     18  C   LIG    1       25.010 -20.303   4.206  0.00  0.00    +0.007 C 
BRANCH  18  19
ATOM     19  C   LIG    1       26.355 -20.004   4.882  0.00  0.00    +0.000 C 
BRANCH  19  21
ATOM     20  C   LIG    1       27.806 -20.420   6.923  0.00  0.00    +0.004 C 
ATOM     21  C   LIG    1       26.402 -20.482   6.339  0.00  0.00    -0.003 C 
ENDBRANCH  19  21
ENDBRANCH  18  19
ENDBRANCH  15  18
ENDBRANCH  14  15
ENDBRANCH  13  14
ENDBRANCH   1  13
TORSDOF 10
ENDMDL
MODEL 9
REMARK VINA RESULT:      -4.4      2.135      7.122
REMARK  Name = *****
REMARK                            x       y       z     vdW  Elec       q    Type
REMARK                         _______ _______ _______ _____ _____    ______ ____
ROOT
ATOM      1  C   LIG    1       21.847 -17.955   4.072  0.00  0.00    +0.332 C 
ATOM      2  O   LIG    1       20.920 -18.652   3.694  0.00  0.00    -0.246 OA
ENDROOT
BRANCH   1   3
ATOM      3  C   LIG    1       23.017 -18.427   4.836  0.00  0.00    +0.092 C 
ATOM      4  C   LIG    1       23.483 -19.658   4.661  0.00  0.00    +0.015 C 
BRANCH   4   5
ATOM      5  C   LIG    1       24.714 -20.125   5.302  0.00  0.00    -0.025 A 
ATOM      6  C   LIG    1       24.617 -20.921   6.443  0.00  0.00    +0.011 A 
ATOM      7  C   LIG    1       25.769 -21.403   7.062  0.00  0.00    +0.046 A 
ATOM      8  C   LIG    1       27.029 -21.107   6.540  0.00  0.00    +0.120 A 
ATOM      9  C   LIG    1       27.132 -20.330   5.387  0.00  0.00    +0.046 A 
ATOM     10  C   LIG    1       25.981 -19.840   4.772  0.00  0.00    +0.011 A 
BRANCH   8  11
ATOM     11  O   LIG    1       28.212 -21.558   7.061  0.00  0.00    -0.495 OA
ATOM     12  C   LIG    1       29.284 -20.624   6.986  0.00  0.00    +0.277 C 
ENDBRANCH   8  11
ENDBRANCH   4   5
ENDBRANCH   1   3
BRANCH   1  13
ATOM     13  O   LIG    1       22.085 -16.669   3.751  0.00  0.00    -0.461 OA
BRANCH  13  14
ATOM     14  C   LIG    1       22.816 -15.914   4.709  0.00  0.00    +0.236 C 
BRANCH  14  15
ATOM     15  C   LIG    1       23.752 -14.934   3.970  0.00  0.00    +0.026 C 
BRANCH  15  16
ATOM     16  C   LIG    1       23.783 -13.581   4.705  0.00  0.00    +0.003 C 
ATOM     17  C   LIG    1       24.100 -12.385   3.816  0.00  0.00    +0.004 C 
ENDBRANCH  15  16
BRANCH  15  18
ATOM     18  C   LIG    1       25.150 -15.533   3.688  0.00  0.00    +0.007 C 
BRANCH  18  19
ATOM     19  C   LIG    1       26.182 -14.569   3.087  0.00  0.00    +0.000 C 
BRANCH  19  21
ATOM     20  C   LIG    1       27.472 -13.395   4.931  0.00  0.00    +0.004 C 
ATOM     21  C   LIG    1       27.481 -14.514   3.900  0.00  0.00    -0.003 C 
ENDBRANCH  19  21
ENDBRANCH  18  19
ENDBRANCH  15  18
ENDBRANCH  14  15
ENDBRANCH  13  14
ENDBRANCH   1  13
TORSDOF 10
ENDMDL
