MODEL 1
REMARK VINA RESULT:      -3.4      0.000      0.000
REMARK  Name = *****
REMARK                            x       y       z     vdW  Elec       q    Type
REMARK                         _______ _______ _______ _____ _____    ______ ____
ROOT
ATOM      1  C   LIG    1       25.093 -31.520   8.214  0.00  0.00    +0.037 C 
ATOM      2  C   LIG    1       23.697 -31.745   8.703  0.00  0.00    -0.002 C 
ATOM      3  C   LIG    1       23.318 -31.955   9.973  0.00  0.00    +0.092 C 
ATOM      4  C   LIG    1       21.874 -32.219  10.322  0.00  0.00    +0.259 C 
ATOM      5  O   LIG    1       21.605 -33.061  11.167  0.00  0.00    -0.269 OA
ATOM      6  N   LIG    1       21.011 -31.231   9.882  0.00  0.00    -0.297 N 
ATOM      7  H   LIG    1       21.468 -30.469   9.389  0.00  0.00    +0.150 HD
ATOM      8  C   LIG    1       19.931 -30.761  10.776  0.00  0.00    +0.185 C 
ATOM      9  C   LIG    1       20.680 -30.024  11.903  0.00  0.00    +0.329 C 
ATOM     10  O   LIG    1       21.488 -29.132  11.651  0.00  0.00    -0.249 OA
ATOM     11  O   LIG    1       20.497 -30.562  13.135  0.00  0.00    -0.455 OA
ATOM     12  C   LIG    1       21.435 -30.128  14.138  0.00  0.00    +0.208 C 
ATOM     13  C   LIG    1       20.834 -29.028  15.021  0.00  0.00    +0.144 C 
ATOM     14  C   LIG    1       21.633 -27.750  14.806  0.00  0.00    +0.217 C 
ATOM     15  N   LIG    1       22.840 -27.718  15.467  0.00  0.00    -0.304 N 
ATOM     16  H   LIG    1       22.939 -28.412  16.201  0.00  0.00    +0.149 HD
ATOM     17  C   LIG    1       24.158 -27.426  14.859  0.00  0.00    +0.161 C 
ATOM     18  C   LIG    1       24.747 -28.833  14.577  0.00  0.00    +0.234 C 
ATOM     19  N   LIG    1       25.021 -29.212  13.294  0.00  0.00    -0.302 N 
ATOM     20  H   LIG    1       24.849 -28.581  12.515  0.00  0.00    +0.149 HD
ATOM     21  C   LIG    1       25.144 -30.635  12.941  0.00  0.00    +0.170 C 
ATOM     22  C   LIG    1       26.532 -31.220  13.208  0.00  0.00    +0.112 C 
ATOM     23  S   LIG    1       26.643 -32.783  14.190  0.00  0.00    -0.091 S 
ATOM     24  S   LIG    1       24.894 -33.825  13.879  0.00  0.00    -0.093 S 
ATOM     25  C   LIG    1       24.009 -33.596  15.472  0.00  0.00    +0.085 C 
ATOM     26  C   LIG    1       22.487 -33.745  15.322  0.00  0.00    +0.038 C 
ATOM     27  C   LIG    1       21.807 -32.615  14.590  0.00  0.00    -0.027 C 
ATOM     28  C   LIG    1       24.795 -30.730  11.445  0.00  0.00    +0.238 C 
ATOM     29  O   LIG    1       25.043 -29.797  10.681  0.00  0.00    -0.273 OA
ATOM     30  O   LIG    1       24.809 -29.654  15.500  0.00  0.00    -0.274 OA
ATOM     31  O   LIG    1       21.216 -26.855  14.083  0.00  0.00    -0.276 OA
ATOM     32  C   LIG    1       21.928 -31.320  14.928  0.00  0.00    +0.013 C 
ATOM     33  N   LIG    1       24.133 -31.898  11.091  0.00  0.00    -0.280 N 
ATOM     34  H   LIG    1       23.735 -32.408  11.883  0.00  0.00    +0.155 HD
ENDROOT
BRANCH   8  35
ATOM     35  C   LIG    1       18.872 -31.814  11.167  0.00  0.00    +0.014 C 
ATOM     36  C   LIG    1       17.775 -31.215  12.059  0.00  0.00    +0.009 C 
ATOM     37  C   LIG    1       18.208 -32.397   9.912  0.00  0.00    +0.009 C 
ENDBRANCH   8  35
BRANCH  17  38
ATOM     38  C   LIG    1       24.330 -26.270  13.845  0.00  0.00    +0.012 C 
ATOM     39  C   LIG    1       25.639 -26.200  13.054  0.00  0.00    +0.009 C 
ATOM     40  C   LIG    1       24.085 -24.912  14.526  0.00  0.00    +0.009 C 
ENDBRANCH  17  38
TORSDOF 2
ENDMDL
MODEL 2
REMARK VINA RESULT:      -2.7      2.087      6.573
REMARK  Name = *****
REMARK                            x       y       z     vdW  Elec       q    Type
REMARK                         _______ _______ _______ _____ _____    ______ ____
ROOT
ATOM      1  C   LIG    1       20.261 -26.748  12.952  0.00  0.00    +0.037 C 
ATOM      2  C   LIG    1       21.648 -26.911  13.489  0.00  0.00    -0.002 C 
ATOM      3  C   LIG    1       22.280 -28.070  13.734  0.00  0.00    +0.092 C 
ATOM      4  C   LIG    1       23.667 -28.091  14.326  0.00  0.00    +0.259 C 
ATOM      5  O   LIG    1       23.946 -28.928  15.173  0.00  0.00    -0.269 OA
ATOM      6  N   LIG    1       24.590 -27.364  13.594  0.00  0.00    -0.297 N 
ATOM      7  H   LIG    1       24.206 -26.920  12.765  0.00  0.00    +0.150 HD
ATOM      8  C   LIG    1       25.939 -27.925  13.365  0.00  0.00    +0.185 C 
ATOM      9  C   LIG    1       25.685 -29.119  12.424  0.00  0.00    +0.329 C 
ATOM     10  O   LIG    1       25.062 -28.979  11.374  0.00  0.00    -0.249 OA
ATOM     11  O   LIG    1       26.049 -30.319  12.941  0.00  0.00    -0.455 OA
ATOM     12  C   LIG    1       25.518 -31.468  12.253  0.00  0.00    +0.208 C 
ATOM     13  C   LIG    1       26.555 -32.071  11.297  0.00  0.00    +0.144 C 
ATOM     14  C   LIG    1       26.036 -31.926   9.873  0.00  0.00    +0.217 C 
ATOM     15  N   LIG    1       25.075 -32.847   9.523  0.00  0.00    -0.304 N 
ATOM     16  H   LIG    1       25.012 -33.649  10.143  0.00  0.00    +0.149 HD
ATOM     17  C   LIG    1       23.747 -32.543   8.946  0.00  0.00    +0.161 C 
ATOM     18  C   LIG    1       22.804 -32.550  10.178  0.00  0.00    +0.234 C 
ATOM     19  N   LIG    1       22.137 -31.412  10.530  0.00  0.00    -0.302 N 
ATOM     20  H   LIG    1       22.242 -30.556   9.991  0.00  0.00    +0.149 HD
ATOM     21  C   LIG    1       21.612 -31.241  11.894  0.00  0.00    +0.170 C 
ATOM     22  C   LIG    1       20.242 -31.886  12.114  0.00  0.00    +0.112 C 
ATOM     23  S   LIG    1       20.035 -33.015  13.563  0.00  0.00    -0.091 S 
ATOM     24  S   LIG    1       21.368 -32.404  15.009  0.00  0.00    -0.093 S 
ATOM     25  C   LIG    1       22.656 -33.711  14.938  0.00  0.00    +0.085 C 
ATOM     26  C   LIG    1       24.016 -33.220  15.457  0.00  0.00    +0.038 C 
ATOM     27  C   LIG    1       24.725 -32.240  14.556  0.00  0.00    -0.027 C 
ATOM     28  C   LIG    1       21.538 -29.722  12.130  0.00  0.00    +0.238 C 
ATOM     29  O   LIG    1       21.321 -28.950  11.196  0.00  0.00    -0.273 OA
ATOM     30  O   LIG    1       22.796 -33.537  10.923  0.00  0.00    -0.274 OA
ATOM     31  O   LIG    1       26.446 -31.040   9.135  0.00  0.00    -0.276 OA
ATOM     32  C   LIG    1       24.988 -32.466  13.258  0.00  0.00    +0.013 C 
ATOM     33  N   LIG    1       21.809 -29.339  13.437  0.00  0.00    -0.280 N 
ATOM     34  H   LIG    1       22.271 -30.060  13.996  0.00  0.00    +0.155 HD
ENDROOT
BRANCH   8  35
ATOM     35  C   LIG    1       26.797 -28.156  14.626  0.00  0.00    +0.014 C 
ATOM     36  C   LIG    1       28.233 -28.566  14.271  0.00  0.00    +0.009 C 
ATOM     37  C   LIG    1       26.857 -26.878  15.475  0.00  0.00    +0.009 C 
ENDBRANCH   8  35
BRANCH  17  38
ATOM     38  C   LIG    1       23.587 -31.489   7.824  0.00  0.00    +0.012 C 
ATOM     39  C   LIG    1       24.385 -31.690   6.534  0.00  0.00    +0.009 C 
ATOM     40  C   LIG    1       23.862 -30.075   8.366  0.00  0.00    +0.009 C 
ENDBRANCH  17  38
TORSDOF 2
ENDMDL
MODEL 3
REMARK VINA RESULT:      -1.9      2.110      3.335
REMARK  Name = *****
REMARK                            x       y       z     vdW  Elec       q    Type
REMARK                         _______ _______ _______ _____ _____    ______ ____
ROOT
ATOM      1  C   LIG    1       26.908 -27.809   9.616  0.00  0.00    +0.037 C 
ATOM      2  C   LIG    1       26.152 -29.050   9.259  0.00  0.00    -0.002 C 
ATOM      3  C   LIG    1       25.638 -29.947  10.114  0.00  0.00    +0.092 C 
ATOM      4  C   LIG    1       24.939 -31.187   9.615  0.00  0.00    +0.259 C 
ATOM      5  O   LIG    1       25.120 -32.252  10.189  0.00  0.00    -0.269 OA
ATOM      6  N   LIG    1       23.890 -30.919   8.753  0.00  0.00    -0.297 N 
ATOM      7  H   LIG    1       23.739 -29.930   8.577  0.00  0.00    +0.150 HD
ATOM      8  C   LIG    1       22.624 -31.671   8.893  0.00  0.00    +0.185 C 
ATOM      9  C   LIG    1       22.047 -31.171  10.231  0.00  0.00    +0.329 C 
ATOM     10  O   LIG    1       21.894 -29.970  10.449  0.00  0.00    -0.249 OA
ATOM     11  O   LIG    1       21.900 -32.140  11.169  0.00  0.00    -0.455 OA
ATOM     12  C   LIG    1       21.700 -31.666  12.514  0.00  0.00    +0.208 C 
ATOM     13  C   LIG    1       20.215 -31.696  12.898  0.00  0.00    +0.144 C 
ATOM     14  C   LIG    1       19.751 -30.266  13.133  0.00  0.00    +0.217 C 
ATOM     15  N   LIG    1       20.125 -29.740  14.349  0.00  0.00    -0.304 N 
ATOM     16  H   LIG    1       20.433 -30.427  15.029  0.00  0.00    +0.149 HD
ATOM     17  C   LIG    1       20.833 -28.458  14.561  0.00  0.00    +0.161 C 
ATOM     18  C   LIG    1       22.322 -28.879  14.680  0.00  0.00    +0.234 C 
ATOM     19  N   LIG    1       23.231 -28.427  13.767  0.00  0.00    -0.302 N 
ATOM     20  H   LIG    1       22.949 -27.809  13.010  0.00  0.00    +0.149 HD
ATOM     21  C   LIG    1       24.509 -29.129  13.570  0.00  0.00    +0.170 C 
ATOM     22  C   LIG    1       25.596 -28.728  14.569  0.00  0.00    +0.112 C 
ATOM     23  S   LIG    1       26.478 -30.073  15.481  0.00  0.00    -0.091 S 
ATOM     24  S   LIG    1       26.451 -31.746  14.279  0.00  0.00    -0.093 S 
ATOM     25  C   LIG    1       25.213 -32.813  15.115  0.00  0.00    +0.085 C 
ATOM     26  C   LIG    1       24.569 -33.825  14.155  0.00  0.00    +0.038 C 
ATOM     27  C   LIG    1       23.619 -33.229  13.147  0.00  0.00    -0.027 C 
ATOM     28  C   LIG    1       24.951 -28.804  12.132  0.00  0.00    +0.238 C 
ATOM     29  O   LIG    1       24.658 -27.727  11.612  0.00  0.00    -0.273 OA
ATOM     30  O   LIG    1       22.636 -29.750  15.500  0.00  0.00    -0.274 OA
ATOM     31  O   LIG    1       19.116 -29.656  12.282  0.00  0.00    -0.276 OA
ATOM     32  C   LIG    1       22.575 -32.447  13.468  0.00  0.00    +0.013 C 
ATOM     33  N   LIG    1       25.616 -29.844  11.495  0.00  0.00    -0.280 N 
ATOM     34  H   LIG    1       25.496 -30.753  11.947  0.00  0.00    +0.155 HD
ENDROOT
BRANCH   8  35
ATOM     35  C   LIG    1       22.714 -33.193   8.657  0.00  0.00    +0.014 C 
ATOM     36  C   LIG    1       21.326 -33.825   8.482  0.00  0.00    +0.009 C 
ATOM     37  C   LIG    1       23.541 -33.492   7.399  0.00  0.00    +0.009 C 
ENDBRANCH   8  35
BRANCH  17  38
ATOM     38  C   LIG    1       20.424 -27.182  13.787  0.00  0.00    +0.012 C 
ATOM     39  C   LIG    1       21.529 -26.204  13.382  0.00  0.00    +0.009 C 
ATOM     40  C   LIG    1       19.332 -26.412  14.551  0.00  0.00    +0.009 C 
ENDBRANCH  17  38
TORSDOF 2
ENDMDL
