MODEL 1
REMARK VINA RESULT:      -8.7      0.000      0.000
REMARK  Name = *****
REMARK                            x       y       z     vdW  Elec       q    Type
REMARK                         _______ _______ _______ _____ _____    ______ ____
ROOT
ATOM      1  C   LIG    1       24.160 -21.811   6.224  0.00  0.00    +0.095 C 
ENDROOT
BRANCH   1   2
ATOM      2  C   LIG    1       23.293 -21.498   4.938  0.00  0.00    +0.025 C 
ATOM      3  C   LIG    1       22.124 -20.501   5.150  0.00  0.00    +0.006 C 
ATOM      4  C   LIG    1       22.494 -19.023   5.095  0.00  0.00    +0.000 C 
ATOM      5  C   LIG    1       23.304 -18.677   3.855  0.00  0.00    +0.000 C 
ATOM      6  C   LIG    1       24.502 -19.601   3.675  0.00  0.00    +0.000 C 
ATOM      7  C   LIG    1       24.081 -21.065   3.683  0.00  0.00    +0.006 C 
ENDBRANCH   1   2
BRANCH   1   8
ATOM      8  C   LIG    1       24.544 -23.304   6.368  0.00  0.00    -0.016 A 
ATOM      9  C   LIG    1       25.868 -23.719   6.588  0.00  0.00    +0.006 A 
ATOM     10  C   LIG    1       26.189 -25.080   6.682  0.00  0.00    +0.000 A 
ATOM     11  C   LIG    1       25.205 -26.055   6.558  0.00  0.00    +0.000 A 
ATOM     12  C   LIG    1       23.886 -25.674   6.343  0.00  0.00    +0.000 A 
ATOM     13  C   LIG    1       23.568 -24.319   6.241  0.00  0.00    +0.006 A 
ENDBRANCH   1   8
BRANCH   1  14
ATOM     14  O   LIG    1       23.406 -21.420   7.382  0.00  0.00    -0.384 OA
ATOM     15  H   LIG    1       23.164 -20.486   7.276  0.00  0.00    +0.211 HD
ENDBRANCH   1  14
BRANCH   1  16
ATOM     16  C   LIG    1       25.453 -20.942   6.294  0.00  0.00    +0.055 C 
BRANCH  16  17
ATOM     17  C   LIG    1       25.917 -20.528   7.702  0.00  0.00    +0.087 C 
BRANCH  17  18
ATOM     18  N   LIG    1       27.364 -20.273   7.766  0.00  0.00    -0.302 NA
ATOM     19  C   LIG    1       28.141 -21.429   8.215  0.00  0.00    +0.084 C 
ATOM     20  C   LIG    1       29.557 -21.029   7.850  0.00  0.00    +0.017 C 
ATOM     21  C   LIG    1       29.401 -20.281   6.537  0.00  0.00    +0.017 C 
ATOM     22  C   LIG    1       27.923 -19.908   6.458  0.00  0.00    +0.084 C 
ENDBRANCH  17  18
ENDBRANCH  16  17
ENDBRANCH   1  16
TORSDOF 6
ENDMDL
MODEL 2
REMARK VINA RESULT:      -8.6      2.061      5.587
REMARK  Name = *****
REMARK                            x       y       z     vdW  Elec       q    Type
REMARK                         _______ _______ _______ _____ _____    ______ ____
ROOT
ATOM      1  C   LIG    1       24.238 -23.092   6.217  0.00  0.00    +0.095 C 
ENDROOT
BRANCH   1   2
ATOM      2  C   LIG    1       24.943 -22.857   7.615  0.00  0.00    +0.025 C 
ATOM      3  C   LIG    1       26.485 -23.026   7.618  0.00  0.00    +0.006 C 
ATOM      4  C   LIG    1       27.286 -21.811   7.162  0.00  0.00    +0.000 C 
ATOM      5  C   LIG    1       26.863 -20.538   7.878  0.00  0.00    +0.000 C 
ATOM      6  C   LIG    1       25.356 -20.318   7.817  0.00  0.00    +0.000 C 
ATOM      7  C   LIG    1       24.595 -21.534   8.330  0.00  0.00    +0.006 C 
ENDBRANCH   1   2
BRANCH   1   8
ATOM      8  C   LIG    1       23.937 -21.784   5.444  0.00  0.00    -0.016 A 
ATOM      9  C   LIG    1       24.875 -21.190   4.583  0.00  0.00    +0.006 A 
ATOM     10  C   LIG    1       24.585 -19.988   3.923  0.00  0.00    +0.000 A 
ATOM     11  C   LIG    1       23.361 -19.353   4.104  0.00  0.00    +0.000 A 
ATOM     12  C   LIG    1       22.413 -19.919   4.947  0.00  0.00    +0.000 A 
ATOM     13  C   LIG    1       22.705 -21.111   5.610  0.00  0.00    +0.006 A 
ENDBRANCH   1   8
BRANCH   1  14
ATOM     14  O   LIG    1       23.000 -23.782   6.447  0.00  0.00    -0.384 OA
ATOM     15  H   LIG    1       23.137 -24.717   6.227  0.00  0.00    +0.211 HD
ENDBRANCH   1  14
BRANCH   1  16
ATOM     16  C   LIG    1       25.051 -24.053   5.297  0.00  0.00    +0.055 C 
BRANCH  16  17
ATOM     17  C   LIG    1       24.417 -25.430   5.025  0.00  0.00    +0.087 C 
BRANCH  17  18
ATOM     18  N   LIG    1       24.544 -26.344   6.170  0.00  0.00    -0.302 NA
ATOM     19  C   LIG    1       24.301 -27.746   5.826  0.00  0.00    +0.084 C 
ATOM     20  C   LIG    1       24.836 -28.475   7.042  0.00  0.00    +0.017 C 
ATOM     21  C   LIG    1       26.051 -27.663   7.454  0.00  0.00    +0.017 C 
ATOM     22  C   LIG    1       25.887 -26.312   6.761  0.00  0.00    +0.084 C 
ENDBRANCH  17  18
ENDBRANCH  16  17
ENDBRANCH   1  16
TORSDOF 6
ENDMDL
MODEL 3
REMARK VINA RESULT:      -8.5      1.978      5.686
REMARK  Name = *****
REMARK                            x       y       z     vdW  Elec       q    Type
REMARK                         _______ _______ _______ _____ _____    ______ ____
ROOT
ATOM      1  C   LIG    1       23.951 -22.381   6.567  0.00  0.00    +0.095 C 
ENDROOT
BRANCH   1   2
ATOM      2  C   LIG    1       24.840 -22.057   7.836  0.00  0.00    +0.025 C 
ATOM      3  C   LIG    1       26.100 -22.946   8.010  0.00  0.00    +0.006 C 
ATOM      4  C   LIG    1       27.326 -22.522   7.210  0.00  0.00    +0.000 C 
ATOM      5  C   LIG    1       27.654 -21.047   7.394  0.00  0.00    +0.000 C 
ATOM      6  C   LIG    1       26.443 -20.155   7.151  0.00  0.00    +0.000 C 
ATOM      7  C   LIG    1       25.257 -20.581   8.008  0.00  0.00    +0.006 C 
ENDBRANCH   1   2
BRANCH   1   8
ATOM      8  C   LIG    1       23.791 -21.183   5.598  0.00  0.00    -0.016 A 
ATOM      9  C   LIG    1       22.793 -20.209   5.769  0.00  0.00    +0.006 A 
ATOM     10  C   LIG    1       22.653 -19.155   4.856  0.00  0.00    +0.000 A 
ATOM     11  C   LIG    1       23.499 -19.047   3.757  0.00  0.00    +0.000 A 
ATOM     12  C   LIG    1       24.497 -19.994   3.564  0.00  0.00    +0.000 A 
ATOM     13  C   LIG    1       24.630 -21.048   4.468  0.00  0.00    +0.006 A 
ENDBRANCH   1   8
BRANCH   1  14
ATOM     14  O   LIG    1       22.648 -22.778   7.020  0.00  0.00    -0.384 OA
ATOM     15  H   LIG    1       21.992 -22.261   6.526  0.00  0.00    +0.211 HD
ENDBRANCH   1  14
BRANCH   1  16
ATOM     16  C   LIG    1       24.478 -23.615   5.773  0.00  0.00    +0.055 C 
BRANCH  16  17
ATOM     17  C   LIG    1       23.972 -24.990   6.244  0.00  0.00    +0.087 C 
BRANCH  17  18
ATOM     18  N   LIG    1       24.565 -26.100   5.482  0.00  0.00    -0.302 NA
ATOM     19  C   LIG    1       26.027 -26.053   5.427  0.00  0.00    +0.084 C 
ATOM     20  C   LIG    1       26.376 -27.440   4.927  0.00  0.00    +0.017 C 
ATOM     21  C   LIG    1       25.352 -28.342   5.595  0.00  0.00    +0.017 C 
ATOM     22  C   LIG    1       24.235 -27.409   6.057  0.00  0.00    +0.084 C 
ENDBRANCH  17  18
ENDBRANCH  16  17
ENDBRANCH   1  16
TORSDOF 6
ENDMDL
MODEL 4
REMARK VINA RESULT:      -8.3      1.363      2.355
REMARK  Name = *****
REMARK                            x       y       z     vdW  Elec       q    Type
REMARK                         _______ _______ _______ _____ _____    ______ ____
ROOT
ATOM      1  C   LIG    1       25.469 -21.681   7.451  0.00  0.00    +0.095 C 
ENDROOT
BRANCH   1   2
ATOM      2  C   LIG    1       24.970 -20.489   6.538  0.00  0.00    +0.025 C 
ATOM      3  C   LIG    1       25.379 -20.580   5.044  0.00  0.00    +0.006 C 
ATOM      4  C   LIG    1       24.486 -21.449   4.164  0.00  0.00    +0.000 C 
ATOM      5  C   LIG    1       23.012 -21.105   4.320  0.00  0.00    +0.000 C 
ATOM      6  C   LIG    1       22.578 -21.087   5.780  0.00  0.00    +0.000 C 
ATOM      7  C   LIG    1       23.462 -20.168   6.613  0.00  0.00    +0.006 C 
ENDBRANCH   1   2
BRANCH   1   8
ATOM      8  C   LIG    1       25.069 -23.081   6.921  0.00  0.00    -0.016 A 
ATOM      9  C   LIG    1       23.744 -23.545   6.962  0.00  0.00    +0.006 A 
ATOM     10  C   LIG    1       23.417 -24.830   6.505  0.00  0.00    +0.000 A 
ATOM     11  C   LIG    1       24.398 -25.676   5.999  0.00  0.00    +0.000 A 
ATOM     12  C   LIG    1       25.716 -25.242   5.943  0.00  0.00    +0.000 A 
ATOM     13  C   LIG    1       26.042 -23.967   6.407  0.00  0.00    +0.006 A 
ENDBRANCH   1   8
BRANCH   1  14
ATOM     14  O   LIG    1       24.907 -21.511   8.761  0.00  0.00    -0.384 OA
ATOM     15  H   LIG    1       25.524 -20.972   9.280  0.00  0.00    +0.211 HD
ENDBRANCH   1  14
BRANCH   1  16
ATOM     16  C   LIG    1       27.010 -21.645   7.684  0.00  0.00    +0.055 C 
BRANCH  16  17
ATOM     17  C   LIG    1       27.666 -20.252   7.671  0.00  0.00    +0.087 C 
BRANCH  17  18
ATOM     18  N   LIG    1       28.933 -20.218   8.417  0.00  0.00    -0.302 NA
ATOM     19  C   LIG    1       29.785 -21.383   8.171  0.00  0.00    +0.084 C 
ATOM     20  C   LIG    1       31.116 -20.936   8.742  0.00  0.00    +0.017 C 
ATOM     21  C   LIG    1       31.187 -19.458   8.398  0.00  0.00    +0.017 C 
ATOM     22  C   LIG    1       29.753 -19.051   8.068  0.00  0.00    +0.084 C 
ENDBRANCH  17  18
ENDBRANCH  16  17
ENDBRANCH   1  16
TORSDOF 6
ENDMDL
MODEL 5
REMARK VINA RESULT:      -8.3      1.328      4.332
REMARK  Name = *****
REMARK                            x       y       z     vdW  Elec       q    Type
REMARK                         _______ _______ _______ _____ _____    ______ ____
ROOT
ATOM      1  C   LIG    1       25.552 -21.382   6.744  0.00  0.00    +0.095 C 
ENDROOT
BRANCH   1   2
ATOM      2  C   LIG    1       24.830 -22.508   7.590  0.00  0.00    +0.025 C 
ATOM      3  C   LIG    1       23.397 -22.876   7.123  0.00  0.00    +0.006 C 
ATOM      4  C   LIG    1       23.310 -23.872   5.973  0.00  0.00    +0.000 C 
ATOM      5  C   LIG    1       24.151 -25.115   6.220  0.00  0.00    +0.000 C 
ATOM      6  C   LIG    1       25.585 -24.770   6.606  0.00  0.00    +0.000 C 
ATOM      7  C   LIG    1       25.628 -23.815   7.791  0.00  0.00    +0.006 C 
ENDBRANCH   1   2
BRANCH   1   8
ATOM      8  C   LIG    1       24.591 -20.573   5.837  0.00  0.00    -0.016 A 
ATOM      9  C   LIG    1       23.306 -20.193   6.259  0.00  0.00    +0.006 A 
ATOM     10  C   LIG    1       22.447 -19.489   5.404  0.00  0.00    +0.000 A 
ATOM     11  C   LIG    1       22.844 -19.151   4.115  0.00  0.00    +0.000 A 
ATOM     12  C   LIG    1       24.110 -19.512   3.671  0.00  0.00    +0.000 A 
ATOM     13  C   LIG    1       24.962 -20.220   4.520  0.00  0.00    +0.006 A 
ENDBRANCH   1   8
BRANCH   1  14
ATOM     14  O   LIG    1       26.544 -22.007   5.915  0.00  0.00    -0.384 OA
ATOM     15  H   LIG    1       26.082 -22.457   5.189  0.00  0.00    +0.211 HD
ENDBRANCH   1  14
BRANCH   1  16
ATOM     16  C   LIG    1       26.362 -20.395   7.638  0.00  0.00    +0.055 C 
BRANCH  16  17
ATOM     17  C   LIG    1       27.733 -20.894   8.130  0.00  0.00    +0.087 C 
BRANCH  17  18
ATOM     18  N   LIG    1       28.811 -19.931   7.865  0.00  0.00    -0.302 NA
ATOM     19  C   LIG    1       30.150 -20.473   8.104  0.00  0.00    +0.084 C 
ATOM     20  C   LIG    1       31.040 -19.448   7.431  0.00  0.00    +0.017 C 
ATOM     21  C   LIG    1       30.252 -19.026   6.202  0.00  0.00    +0.017 C 
ATOM     22  C   LIG    1       28.817 -19.472   6.471  0.00  0.00    +0.084 C 
ENDBRANCH  17  18
ENDBRANCH  16  17
ENDBRANCH   1  16
TORSDOF 6
ENDMDL
MODEL 6
REMARK VINA RESULT:      -8.2      1.933      5.237
REMARK  Name = *****
REMARK                            x       y       z     vdW  Elec       q    Type
REMARK                         _______ _______ _______ _____ _____    ______ ____
ROOT
ATOM      1  C   LIG    1       25.636 -21.674   6.523  0.00  0.00    +0.095 C 
ENDROOT
BRANCH   1   2
ATOM      2  C   LIG    1       24.286 -20.929   6.882  0.00  0.00    +0.025 C 
ATOM      3  C   LIG    1       23.686 -20.058   5.747  0.00  0.00    +0.006 C 
ATOM      4  C   LIG    1       22.845 -20.802   4.715  0.00  0.00    +0.000 C 
ATOM      5  C   LIG    1       21.787 -21.685   5.360  0.00  0.00    +0.000 C 
ATOM      6  C   LIG    1       22.376 -22.602   6.425  0.00  0.00    +0.000 C 
ATOM      7  C   LIG    1       23.163 -21.814   7.464  0.00  0.00    +0.006 C 
ENDBRANCH   1   2
BRANCH   1   8
ATOM      8  C   LIG    1       26.890 -20.768   6.617  0.00  0.00    -0.016 A 
ATOM      9  C   LIG    1       27.358 -20.023   5.522  0.00  0.00    +0.006 A 
ATOM     10  C   LIG    1       28.514 -19.238   5.628  0.00  0.00    +0.000 A 
ATOM     11  C   LIG    1       29.228 -19.177   6.820  0.00  0.00    +0.000 A 
ATOM     12  C   LIG    1       28.786 -19.902   7.921  0.00  0.00    +0.000 A 
ATOM     13  C   LIG    1       27.640 -20.690   7.812  0.00  0.00    +0.006 A 
ENDBRANCH   1   8
BRANCH   1  14
ATOM     14  O   LIG    1       25.533 -22.173   5.181  0.00  0.00    -0.384 OA
ATOM     15  H   LIG    1       25.925 -21.512   4.588  0.00  0.00    +0.211 HD
ENDBRANCH   1  14
BRANCH   1  16
ATOM     16  C   LIG    1       25.860 -22.948   7.393  0.00  0.00    +0.055 C 
BRANCH  16  17
ATOM     17  C   LIG    1       26.383 -24.192   6.653  0.00  0.00    +0.087 C 
BRANCH  17  18
ATOM     18  N   LIG    1       25.409 -25.293   6.643  0.00  0.00    -0.302 NA
ATOM     19  C   LIG    1       24.808 -25.529   5.329  0.00  0.00    +0.084 C 
ATOM     20  C   LIG    1       24.156 -26.885   5.510  0.00  0.00    +0.017 C 
ATOM     21  C   LIG    1       25.125 -27.643   6.402  0.00  0.00    +0.017 C 
ATOM     22  C   LIG    1       26.012 -26.573   7.033  0.00  0.00    +0.084 C 
ENDBRANCH  17  18
ENDBRANCH  16  17
ENDBRANCH   1  16
TORSDOF 6
ENDMDL
MODEL 7
REMARK VINA RESULT:      -8.1      1.966      5.254
REMARK  Name = *****
REMARK                            x       y       z     vdW  Elec       q    Type
REMARK                         _______ _______ _______ _____ _____    ______ ____
ROOT
ATOM      1  C   LIG    1       25.595 -21.801   6.503  0.00  0.00    +0.095 C 
ENDROOT
BRANCH   1   2
ATOM      2  C   LIG    1       24.252 -21.063   6.902  0.00  0.00    +0.025 C 
ATOM      3  C   LIG    1       23.670 -20.113   5.822  0.00  0.00    +0.006 C 
ATOM      4  C   LIG    1       22.827 -20.777   4.740  0.00  0.00    +0.000 C 
ATOM      5  C   LIG    1       21.754 -21.686   5.320  0.00  0.00    +0.000 C 
ATOM      6  C   LIG    1       22.324 -22.677   6.327  0.00  0.00    +0.000 C 
ATOM      7  C   LIG    1       23.115 -21.969   7.419  0.00  0.00    +0.006 C 
ENDBRANCH   1   2
BRANCH   1   8
ATOM      8  C   LIG    1       26.859 -20.918   6.658  0.00  0.00    -0.016 A 
ATOM      9  C   LIG    1       27.537 -20.789   7.882  0.00  0.00    +0.006 A 
ATOM     10  C   LIG    1       28.659 -19.957   7.998  0.00  0.00    +0.000 A 
ATOM     11  C   LIG    1       29.129 -19.238   6.905  0.00  0.00    +0.000 A 
ATOM     12  C   LIG    1       28.480 -19.348   5.681  0.00  0.00    +0.000 A 
ATOM     13  C   LIG    1       27.359 -20.170   5.568  0.00  0.00    +0.006 A 
ENDBRANCH   1   8
BRANCH   1  14
ATOM     14  O   LIG    1       25.492 -22.214   5.132  0.00  0.00    -0.384 OA
ATOM     15  H   LIG    1       25.895 -21.523   4.583  0.00  0.00    +0.211 HD
ENDBRANCH   1  14
BRANCH   1  16
ATOM     16  C   LIG    1       25.799 -23.129   7.294  0.00  0.00    +0.055 C 
BRANCH  16  17
ATOM     17  C   LIG    1       26.271 -24.342   6.472  0.00  0.00    +0.087 C 
BRANCH  17  18
ATOM     18  N   LIG    1       25.368 -25.496   6.603  0.00  0.00    -0.302 NA
ATOM     19  C   LIG    1       24.737 -25.889   5.342  0.00  0.00    +0.084 C 
ATOM     20  C   LIG    1       24.181 -27.260   5.672  0.00  0.00    +0.017 C 
ATOM     21  C   LIG    1       25.226 -27.871   6.590  0.00  0.00    +0.017 C 
ATOM     22  C   LIG    1       26.066 -26.695   7.084  0.00  0.00    +0.084 C 
ENDBRANCH  17  18
ENDBRANCH  16  17
ENDBRANCH   1  16
TORSDOF 6
ENDMDL
MODEL 8
REMARK VINA RESULT:      -7.7      1.676      5.574
REMARK  Name = *****
REMARK                            x       y       z     vdW  Elec       q    Type
REMARK                         _______ _______ _______ _____ _____    ______ ____
ROOT
ATOM      1  C   LIG    1       24.297 -21.551   6.633  0.00  0.00    +0.095 C 
ENDROOT
BRANCH   1   2
ATOM      2  C   LIG    1       25.240 -20.888   7.719  0.00  0.00    +0.025 C 
ATOM      3  C   LIG    1       25.875 -21.871   8.737  0.00  0.00    +0.006 C 
ATOM      4  C   LIG    1       27.139 -22.583   8.271  0.00  0.00    +0.000 C 
ATOM      5  C   LIG    1       28.172 -21.618   7.708  0.00  0.00    +0.000 C 
ATOM      6  C   LIG    1       27.579 -20.696   6.650  0.00  0.00    +0.000 C 
ATOM      7  C   LIG    1       26.350 -19.965   7.174  0.00  0.00    +0.006 C 
ENDBRANCH   1   2
BRANCH   1   8
ATOM      8  C   LIG    1       23.847 -20.573   5.520  0.00  0.00    -0.016 A 
ATOM      9  C   LIG    1       24.581 -20.398   4.335  0.00  0.00    +0.006 A 
ATOM     10  C   LIG    1       24.165 -19.481   3.360  0.00  0.00    +0.000 A 
ATOM     11  C   LIG    1       23.015 -18.721   3.541  0.00  0.00    +0.000 A 
ATOM     12  C   LIG    1       22.267 -18.875   4.702  0.00  0.00    +0.000 A 
ATOM     13  C   LIG    1       22.686 -19.782   5.676  0.00  0.00    +0.006 A 
ENDBRANCH   1   8
BRANCH   1  14
ATOM     14  O   LIG    1       23.129 -22.055   7.299  0.00  0.00    -0.384 OA
ATOM     15  H   LIG    1       22.541 -21.303   7.474  0.00  0.00    +0.211 HD
ENDBRANCH   1  14
BRANCH   1  16
ATOM     16  C   LIG    1       24.942 -22.810   5.978  0.00  0.00    +0.055 C 
BRANCH  16  17
ATOM     17  C   LIG    1       24.264 -24.157   6.284  0.00  0.00    +0.087 C 
BRANCH  17  18
ATOM     18  N   LIG    1       24.888 -25.279   5.566  0.00  0.00    -0.302 NA
ATOM     19  C   LIG    1       26.213 -25.634   6.078  0.00  0.00    +0.084 C 
ATOM     20  C   LIG    1       26.455 -26.986   5.439  0.00  0.00    +0.017 C 
ATOM     21  C   LIG    1       25.087 -27.646   5.443  0.00  0.00    +0.017 C 
ATOM     22  C   LIG    1       24.091 -26.508   5.654  0.00  0.00    +0.084 C 
ENDBRANCH  17  18
ENDBRANCH  16  17
ENDBRANCH   1  16
TORSDOF 6
ENDMDL
MODEL 9
REMARK VINA RESULT:      -7.7      1.693      4.557
REMARK  Name = *****
REMARK                            x       y       z     vdW  Elec       q    Type
REMARK                         _______ _______ _______ _____ _____    ______ ____
ROOT
ATOM      1  C   LIG    1       25.176 -23.399   6.649  0.00  0.00    +0.095 C 
ENDROOT
BRANCH   1   2
ATOM      2  C   LIG    1       26.212 -22.923   7.747  0.00  0.00    +0.025 C 
ATOM      3  C   LIG    1       27.566 -22.399   7.200  0.00  0.00    +0.006 C 
ATOM      4  C   LIG    1       27.580 -20.942   6.749  0.00  0.00    +0.000 C 
ATOM      5  C   LIG    1       27.004 -20.006   7.800  0.00  0.00    +0.000 C 
ATOM      6  C   LIG    1       25.637 -20.468   8.292  0.00  0.00    +0.000 C 
ATOM      7  C   LIG    1       25.679 -21.909   8.782  0.00  0.00    +0.006 C 
ENDBRANCH   1   2
BRANCH   1   8
ATOM      8  C   LIG    1       25.110 -24.937   6.481  0.00  0.00    -0.016 A 
ATOM      9  C   LIG    1       24.156 -25.560   5.660  0.00  0.00    +0.006 A 
ATOM     10  C   LIG    1       24.101 -26.957   5.553  0.00  0.00    +0.000 A 
ATOM     11  C   LIG    1       24.989 -27.761   6.259  0.00  0.00    +0.000 A 
ATOM     12  C   LIG    1       25.945 -27.172   7.077  0.00  0.00    +0.000 A 
ATOM     13  C   LIG    1       25.995 -25.782   7.189  0.00  0.00    +0.006 A 
ENDBRANCH   1   8
BRANCH   1  14
ATOM     14  O   LIG    1       25.554 -22.818   5.391  0.00  0.00    -0.384 OA
ATOM     15  H   LIG    1       26.514 -22.679   5.406  0.00  0.00    +0.211 HD
ENDBRANCH   1  14
BRANCH   1  16
ATOM     16  C   LIG    1       23.740 -22.851   6.912  0.00  0.00    +0.055 C 
BRANCH  16  17
ATOM     17  C   LIG    1       23.001 -22.271   5.692  0.00  0.00    +0.087 C 
BRANCH  17  18
ATOM     18  N   LIG    1       23.483 -20.931   5.327  0.00  0.00    -0.302 NA
ATOM     19  C   LIG    1       23.894 -20.821   3.926  0.00  0.00    +0.084 C 
ATOM     20  C   LIG    1       23.988 -19.321   3.733  0.00  0.00    +0.017 C 
ATOM     21  C   LIG    1       22.842 -18.770   4.565  0.00  0.00    +0.017 C 
ATOM     22  C   LIG    1       22.455 -19.900   5.516  0.00  0.00    +0.084 C 
ENDBRANCH  17  18
ENDBRANCH  16  17
ENDBRANCH   1  16
TORSDOF 6
ENDMDL
