MODEL 1
REMARK VINA RESULT:      -8.4      0.000      0.000
REMARK  Name = *****
REMARK                            x       y       z     vdW  Elec       q    Type
REMARK                         _______ _______ _______ _____ _____    ______ ____
ROOT
ATOM      1  O   LIG    1       28.440 -21.014   8.188  0.00  0.00    -0.461 OA
ENDROOT
BRANCH   1   6
ATOM      2  N   LIG    1       24.836 -21.876   6.550  0.00  0.00    +0.247 N 
ATOM      3  C   LIG    1       25.187 -22.245   5.098  0.00  0.00    +0.193 C 
ATOM      4  C   LIG    1       25.346 -20.467   6.981  0.00  0.00    +0.070 C 
ATOM      5  C   LIG    1       26.790 -20.270   6.509  0.00  0.00    +0.099 C 
ATOM      6  C   LIG    1       27.762 -21.374   6.973  0.00  0.00    +0.187 C 
ATOM      7  C   LIG    1       27.123 -22.753   7.229  0.00  0.00    +0.099 C 
ATOM      8  C   LIG    1       25.293 -20.491   8.517  0.00  0.00    +0.060 C 
ATOM      9  C   LIG    1       25.423 -21.955   8.914  0.00  0.00    +0.060 C 
ATOM     10  C   LIG    1       25.630 -22.712   7.600  0.00  0.00    +0.070 C 
BRANCH   2  12
ATOM     11  C   LIG    1       22.794 -23.468   6.732  0.00  0.00    +0.063 C 
ATOM     12  C   LIG    1       23.255 -22.005   6.737  0.00  0.00    +0.060 C 
ATOM     13  C   LIG    1       22.471 -21.235   5.659  0.00  0.00    +0.063 C 
ENDBRANCH   2  12
ENDBRANCH   1   6
BRANCH   1  14
ATOM     14  C   LIG    1       29.743 -20.623   8.058  0.00  0.00    +0.317 C 
ATOM     15  O   LIG    1       30.702 -21.374   8.264  0.00  0.00    -0.250 OA
BRANCH  14  16
ATOM     16  C   LIG    1       29.811 -19.164   7.644  0.00  0.00    +0.153 C 
BRANCH  16  17
ATOM     17  C   LIG    1       30.500 -18.298   8.689  0.00  0.00    -0.032 A 
ATOM     18  C   LIG    1       31.808 -17.830   8.492  0.00  0.00    +0.004 A 
ATOM     19  C   LIG    1       32.426 -17.026   9.456  0.00  0.00    +0.000 A 
ATOM     20  C   LIG    1       31.744 -16.678  10.621  0.00  0.00    +0.000 A 
ATOM     21  C   LIG    1       30.445 -17.130  10.825  0.00  0.00    +0.000 A 
ATOM     22  C   LIG    1       29.829 -17.933   9.869  0.00  0.00    +0.004 A 
ENDBRANCH  16  17
BRANCH  16  23
ATOM     23  C   LIG    1       30.490 -19.064   6.275  0.00  0.00    +0.175 C 
BRANCH  23  24
ATOM     24  O   LIG    1       29.799 -18.139   5.430  0.00  0.00    -0.394 OA
ATOM     25  H   LIG    1       29.043 -18.620   5.048  0.00  0.00    +0.209 HD
ENDBRANCH  23  24
ENDBRANCH  16  23
ENDBRANCH  14  16
ENDBRANCH   1  14
TORSDOF 7
ENDMDL
MODEL 2
REMARK VINA RESULT:      -7.9      0.746      1.611
REMARK  Name = *****
REMARK                            x       y       z     vdW  Elec       q    Type
REMARK                         _______ _______ _______ _____ _____    ______ ____
ROOT
ATOM      1  O   LIG    1       28.532 -20.273   7.560  0.00  0.00    -0.461 OA
ENDROOT
BRANCH   1   6
ATOM      2  N   LIG    1       25.069 -22.155   6.626  0.00  0.00    +0.247 N 
ATOM      3  C   LIG    1       25.334 -22.703   5.213  0.00  0.00    +0.193 C 
ATOM      4  C   LIG    1       25.282 -20.616   6.753  0.00  0.00    +0.070 C 
ATOM      5  C   LIG    1       26.582 -20.212   6.049  0.00  0.00    +0.099 C 
ATOM      6  C   LIG    1       27.827 -20.984   6.529  0.00  0.00    +0.187 C 
ATOM      7  C   LIG    1       27.556 -22.394   7.088  0.00  0.00    +0.099 C 
ATOM      8  C   LIG    1       25.405 -20.367   8.265  0.00  0.00    +0.060 C 
ATOM      9  C   LIG    1       25.913 -21.673   8.861  0.00  0.00    +0.060 C 
ATOM     10  C   LIG    1       26.145 -22.599   7.664  0.00  0.00    +0.070 C 
BRANCH   2  12
ATOM     11  C   LIG    1       23.304 -24.053   6.770  0.00  0.00    +0.063 C 
ATOM     12  C   LIG    1       23.590 -22.575   7.062  0.00  0.00    +0.060 C 
ATOM     13  C   LIG    1       22.510 -21.717   6.378  0.00  0.00    +0.063 C 
ENDBRANCH   2  12
ENDBRANCH   1   6
BRANCH   1  14
ATOM     14  C   LIG    1       29.512 -19.417   7.140  0.00  0.00    +0.317 C 
ATOM     15  O   LIG    1       29.357 -18.604   6.223  0.00  0.00    -0.250 OA
BRANCH  14  16
ATOM     16  C   LIG    1       30.778 -19.635   7.950  0.00  0.00    +0.153 C 
BRANCH  16  17
ATOM     17  C   LIG    1       31.053 -18.487   8.911  0.00  0.00    -0.032 A 
ATOM     18  C   LIG    1       32.149 -17.631   8.719  0.00  0.00    +0.004 A 
ATOM     19  C   LIG    1       32.385 -16.573   9.604  0.00  0.00    +0.000 A 
ATOM     20  C   LIG    1       31.529 -16.357  10.683  0.00  0.00    +0.000 A 
ATOM     21  C   LIG    1       30.437 -17.194  10.880  0.00  0.00    +0.000 A 
ATOM     22  C   LIG    1       30.202 -18.250  10.003  0.00  0.00    +0.004 A 
ENDBRANCH  16  17
BRANCH  16  23
ATOM     23  C   LIG    1       30.681 -20.982   8.675  0.00  0.00    +0.175 C 
BRANCH  23  24
ATOM     24  O   LIG    1       31.946 -21.353   9.227  0.00  0.00    -0.394 OA
ATOM     25  H   LIG    1       32.586 -21.345   8.493  0.00  0.00    +0.209 HD
ENDBRANCH  23  24
ENDBRANCH  16  23
ENDBRANCH  14  16
ENDBRANCH   1  14
TORSDOF 7
ENDMDL
MODEL 3
REMARK VINA RESULT:      -7.2      0.840      1.550
REMARK  Name = *****
REMARK                            x       y       z     vdW  Elec       q    Type
REMARK                         _______ _______ _______ _____ _____    ______ ____
ROOT
ATOM      1  O   LIG    1       28.248 -21.109   7.111  0.00  0.00    -0.461 OA
ENDROOT
BRANCH   1   6
ATOM      2  N   LIG    1       24.248 -21.748   7.081  0.00  0.00    +0.247 N 
ATOM      3  C   LIG    1       23.662 -20.331   7.211  0.00  0.00    +0.193 C 
ATOM      4  C   LIG    1       25.238 -22.126   8.224  0.00  0.00    +0.070 C 
ATOM      5  C   LIG    1       26.201 -20.963   8.483  0.00  0.00    +0.099 C 
ATOM      6  C   LIG    1       26.961 -20.481   7.231  0.00  0.00    +0.187 C 
ATOM      7  C   LIG    1       26.241 -20.717   5.889  0.00  0.00    +0.099 C 
ATOM      8  C   LIG    1       26.012 -23.337   7.678  0.00  0.00    +0.060 C 
ATOM      9  C   LIG    1       25.967 -23.209   6.161  0.00  0.00    +0.060 C 
ATOM     10  C   LIG    1       25.244 -21.888   5.889  0.00  0.00    +0.070 C 
BRANCH   2  12
ATOM     11  C   LIG    1       23.526 -24.207   6.668  0.00  0.00    +0.063 C 
ATOM     12  C   LIG    1       23.039 -22.789   6.991  0.00  0.00    +0.060 C 
ATOM     13  C   LIG    1       21.986 -22.377   5.947  0.00  0.00    +0.063 C 
ENDBRANCH   2  12
ENDBRANCH   1   6
BRANCH   1  14
ATOM     14  C   LIG    1       29.252 -20.575   7.870  0.00  0.00    +0.317 C 
ATOM     15  O   LIG    1       29.852 -21.208   8.744  0.00  0.00    -0.250 OA
BRANCH  14  16
ATOM     16  C   LIG    1       29.487 -19.127   7.479  0.00  0.00    +0.153 C 
BRANCH  16  17
ATOM     17  C   LIG    1       30.291 -18.369   8.527  0.00  0.00    -0.032 A 
ATOM     18  C   LIG    1       31.648 -18.076   8.323  0.00  0.00    +0.004 A 
ATOM     19  C   LIG    1       32.372 -17.369   9.290  0.00  0.00    +0.000 A 
ATOM     20  C   LIG    1       31.749 -16.945  10.463  0.00  0.00    +0.000 A 
ATOM     21  C   LIG    1       30.404 -17.225  10.673  0.00  0.00    +0.000 A 
ATOM     22  C   LIG    1       29.682 -17.931   9.715  0.00  0.00    +0.004 A 
ENDBRANCH  16  17
BRANCH  16  23
ATOM     23  C   LIG    1       30.152 -19.083   6.100  0.00  0.00    +0.175 C 
BRANCH  23  24
ATOM     24  O   LIG    1       29.667 -17.976   5.336  0.00  0.00    -0.394 OA
ATOM     25  H   LIG    1       30.444 -17.553   4.931  0.00  0.00    +0.209 HD
ENDBRANCH  23  24
ENDBRANCH  16  23
ENDBRANCH  14  16
ENDBRANCH   1  14
TORSDOF 7
ENDMDL
MODEL 4
REMARK VINA RESULT:      -6.8      4.795      7.800
REMARK  Name = *****
REMARK                            x       y       z     vdW  Elec       q    Type
REMARK                         _______ _______ _______ _____ _____    ______ ____
ROOT
ATOM      1  O   LIG    1       25.258 -24.195   7.211  0.00  0.00    -0.461 OA
ENDROOT
BRANCH   1   6
ATOM      2  N   LIG    1       24.258 -20.750   5.328  0.00  0.00    +0.247 N 
ATOM      3  C   LIG    1       25.465 -20.486   4.411  0.00  0.00    +0.193 C 
ATOM      4  C   LIG    1       24.634 -20.909   6.832  0.00  0.00    +0.070 C 
ATOM      5  C   LIG    1       25.863 -21.814   6.967  0.00  0.00    +0.099 C 
ATOM      6  C   LIG    1       25.712 -23.191   6.288  0.00  0.00    +0.187 C 
ATOM      7  C   LIG    1       24.741 -23.235   5.092  0.00  0.00    +0.099 C 
ATOM      8  C   LIG    1       23.410 -21.587   7.466  0.00  0.00    +0.060 C 
ATOM      9  C   LIG    1       22.732 -22.357   6.341  0.00  0.00    +0.060 C 
ATOM     10  C   LIG    1       23.635 -22.165   5.120  0.00  0.00    +0.070 C 
BRANCH   2  12
ATOM     11  C   LIG    1       21.835 -20.115   4.648  0.00  0.00    +0.063 C 
ATOM     12  C   LIG    1       23.194 -19.578   5.115  0.00  0.00    +0.060 C 
ATOM     13  C   LIG    1       23.679 -18.520   4.109  0.00  0.00    +0.063 C 
ENDBRANCH   2  12
ENDBRANCH   1   6
BRANCH   1  14
ATOM     14  C   LIG    1       24.814 -25.364   6.658  0.00  0.00    +0.317 C 
ATOM     15  O   LIG    1       23.637 -25.559   6.337  0.00  0.00    -0.250 OA
BRANCH  14  16
ATOM     16  C   LIG    1       25.963 -26.346   6.521  0.00  0.00    +0.153 C 
BRANCH  16  17
ATOM     17  C   LIG    1       25.753 -27.602   7.357  0.00  0.00    -0.032 A 
ATOM     18  C   LIG    1       26.491 -27.820   8.531  0.00  0.00    +0.004 A 
ATOM     19  C   LIG    1       26.280 -28.973   9.296  0.00  0.00    +0.000 A 
ATOM     20  C   LIG    1       25.331 -29.913   8.900  0.00  0.00    +0.000 A 
ATOM     21  C   LIG    1       24.589 -29.705   7.742  0.00  0.00    +0.000 A 
ATOM     22  C   LIG    1       24.799 -28.561   6.977  0.00  0.00    +0.004 A 
ENDBRANCH  16  17
BRANCH  16  23
ATOM     23  C   LIG    1       26.171 -26.670   5.039  0.00  0.00    +0.175 C 
BRANCH  23  24
ATOM     24  O   LIG    1       27.430 -27.314   4.830  0.00  0.00    -0.394 OA
ATOM     25  H   LIG    1       27.960 -27.160   5.632  0.00  0.00    +0.209 HD
ENDBRANCH  23  24
ENDBRANCH  16  23
ENDBRANCH  14  16
ENDBRANCH   1  14
TORSDOF 7
ENDMDL
MODEL 5
REMARK VINA RESULT:      -6.7      4.583      7.330
REMARK  Name = *****
REMARK                            x       y       z     vdW  Elec       q    Type
REMARK                         _______ _______ _______ _____ _____    ______ ____
ROOT
ATOM      1  O   LIG    1       25.331 -24.201   5.578  0.00  0.00    -0.461 OA
ENDROOT
BRANCH   1   6
ATOM      2  N   LIG    1       25.094 -28.245   5.656  0.00  0.00    +0.247 N 
ATOM      3  C   LIG    1       23.859 -28.544   4.787  0.00  0.00    +0.193 C 
ATOM      4  C   LIG    1       24.808 -27.277   6.843  0.00  0.00    +0.070 C 
ATOM      5  C   LIG    1       23.957 -26.098   6.359  0.00  0.00    +0.099 C 
ATOM      6  C   LIG    1       24.556 -25.337   5.158  0.00  0.00    +0.187 C 
ATOM      7  C   LIG    1       25.473 -26.168   4.241  0.00  0.00    +0.099 C 
ATOM      8  C   LIG    1       26.196 -26.779   7.278  0.00  0.00    +0.060 C 
ATOM      9  C   LIG    1       27.082 -26.891   6.044  0.00  0.00    +0.060 C 
ATOM     10  C   LIG    1       26.154 -27.367   4.924  0.00  0.00    +0.070 C 
BRANCH   2  12
ATOM     11  C   LIG    1       25.655 -30.714   5.082  0.00  0.00    +0.063 C 
ATOM     12  C   LIG    1       25.699 -29.632   6.169  0.00  0.00    +0.060 C 
ATOM     13  C   LIG    1       24.979 -30.159   7.422  0.00  0.00    +0.063 C 
ENDBRANCH   2  12
ENDBRANCH   1   6
BRANCH   1  14
ATOM     14  C   LIG    1       24.631 -23.165   6.130  0.00  0.00    +0.317 C 
ATOM     15  O   LIG    1       23.540 -23.306   6.691  0.00  0.00    -0.250 OA
BRANCH  14  16
ATOM     16  C   LIG    1       25.386 -21.863   5.933  0.00  0.00    +0.153 C 
BRANCH  16  17
ATOM     17  C   LIG    1       24.518 -20.781   5.305  0.00  0.00    -0.032 A 
ATOM     18  C   LIG    1       24.901 -20.150   4.111  0.00  0.00    +0.004 A 
ATOM     19  C   LIG    1       24.089 -19.165   3.538  0.00  0.00    +0.000 A 
ATOM     20  C   LIG    1       22.888 -18.805   4.147  0.00  0.00    +0.000 A 
ATOM     21  C   LIG    1       22.494 -19.427   5.327  0.00  0.00    +0.000 A 
ATOM     22  C   LIG    1       23.302 -20.405   5.900  0.00  0.00    +0.004 A 
ENDBRANCH  16  17
BRANCH  16  23
ATOM     23  C   LIG    1       25.976 -21.420   7.276  0.00  0.00    +0.175 C 
BRANCH  23  24
ATOM     24  O   LIG    1       25.909 -22.478   8.234  0.00  0.00    -0.394 OA
ATOM     25  H   LIG    1       26.791 -22.544   8.641  0.00  0.00    +0.209 HD
ENDBRANCH  23  24
ENDBRANCH  16  23
ENDBRANCH  14  16
ENDBRANCH   1  14
TORSDOF 7
ENDMDL
MODEL 6
REMARK VINA RESULT:      -6.6      4.176      6.293
REMARK  Name = *****
REMARK                            x       y       z     vdW  Elec       q    Type
REMARK                         _______ _______ _______ _____ _____    ______ ____
ROOT
ATOM      1  O   LIG    1       25.547 -24.029   5.666  0.00  0.00    -0.461 OA
ENDROOT
BRANCH   1   6
ATOM      2  N   LIG    1       25.003 -28.043   5.725  0.00  0.00    +0.247 N 
ATOM      3  C   LIG    1       23.752 -28.243   4.852  0.00  0.00    +0.193 C 
ATOM      4  C   LIG    1       24.788 -27.061   6.916  0.00  0.00    +0.070 C 
ATOM      5  C   LIG    1       24.031 -25.819   6.435  0.00  0.00    +0.099 C 
ATOM      6  C   LIG    1       24.689 -25.101   5.239  0.00  0.00    +0.187 C 
ATOM      7  C   LIG    1       25.543 -25.995   4.320  0.00  0.00    +0.099 C 
ATOM      8  C   LIG    1       26.208 -26.672   7.356  0.00  0.00    +0.060 C 
ATOM      9  C   LIG    1       27.087 -26.845   6.125  0.00  0.00    +0.060 C 
ATOM     10  C   LIG    1       26.129 -27.244   4.999  0.00  0.00    +0.070 C 
BRANCH   2  12
ATOM     11  C   LIG    1       25.524 -30.508   5.100  0.00  0.00    +0.063 C 
ATOM     12  C   LIG    1       25.500 -29.474   6.233  0.00  0.00    +0.060 C 
ATOM     13  C   LIG    1       24.636 -30.020   7.383  0.00  0.00    +0.063 C 
ENDBRANCH   2  12
ENDBRANCH   1   6
BRANCH   1  14
ATOM     14  C   LIG    1       24.979 -22.786   5.714  0.00  0.00    +0.317 C 
ATOM     15  O   LIG    1       24.241 -22.342   4.829  0.00  0.00    -0.250 OA
BRANCH  14  16
ATOM     16  C   LIG    1       25.403 -22.069   6.983  0.00  0.00    +0.153 C 
BRANCH  16  17
ATOM     17  C   LIG    1       26.747 -21.370   6.831  0.00  0.00    -0.032 A 
ATOM     18  C   LIG    1       26.930 -20.355   5.879  0.00  0.00    +0.004 A 
ATOM     19  C   LIG    1       28.168 -19.714   5.757  0.00  0.00    +0.000 A 
ATOM     20  C   LIG    1       29.230 -20.075   6.585  0.00  0.00    +0.000 A 
ATOM     21  C   LIG    1       29.059 -21.075   7.537  0.00  0.00    +0.000 A 
ATOM     22  C   LIG    1       27.829 -21.717   7.658  0.00  0.00    +0.004 A 
ENDBRANCH  16  17
BRANCH  16  23
ATOM     23  C   LIG    1       24.294 -21.099   7.403  0.00  0.00    +0.175 C 
BRANCH  23  24
ATOM     24  O   LIG    1       23.089 -21.805   7.707  0.00  0.00    -0.394 OA
ATOM     25  H   LIG    1       22.561 -21.824   6.889  0.00  0.00    +0.209 HD
ENDBRANCH  23  24
ENDBRANCH  16  23
ENDBRANCH  14  16
ENDBRANCH   1  14
TORSDOF 7
ENDMDL
MODEL 7
REMARK VINA RESULT:      -6.2      7.133      9.879
REMARK  Name = *****
REMARK                            x       y       z     vdW  Elec       q    Type
REMARK                         _______ _______ _______ _____ _____    ______ ____
ROOT
ATOM      1  O   LIG    1       25.212 -28.618   7.015  0.00  0.00    -0.461 OA
ENDROOT
BRANCH   1   6
ATOM      2  N   LIG    1       25.064 -31.637   9.713  0.00  0.00    +0.247 N 
ATOM      3  C   LIG    1       24.119 -32.656   9.052  0.00  0.00    +0.193 C 
ATOM      4  C   LIG    1       24.443 -30.217   9.876  0.00  0.00    +0.070 C 
ATOM      5  C   LIG    1       23.726 -29.812   8.584  0.00  0.00    +0.099 C 
ATOM      6  C   LIG    1       24.608 -29.887   7.321  0.00  0.00    +0.187 C 
ATOM      7  C   LIG    1       25.761 -30.908   7.380  0.00  0.00    +0.099 C 
ATOM      8  C   LIG    1       25.648 -29.295  10.119  0.00  0.00    +0.060 C 
ATOM      9  C   LIG    1       26.838 -29.985   9.466  0.00  0.00    +0.060 C 
ATOM     10  C   LIG    1       26.261 -31.235   8.797  0.00  0.00    +0.070 C 
BRANCH   2  12
ATOM     11  C   LIG    1       25.521 -33.762  11.132  0.00  0.00    +0.063 C 
ATOM     12  C   LIG    1       25.543 -32.229  11.118  0.00  0.00    +0.060 C 
ATOM     13  C   LIG    1       24.694 -31.710  12.292  0.00  0.00    +0.063 C 
ENDBRANCH   2  12
ENDBRANCH   1   6
BRANCH   1  14
ATOM     14  C   LIG    1       24.781 -28.007   5.871  0.00  0.00    +0.317 C 
ATOM     15  O   LIG    1       23.806 -28.395   5.220  0.00  0.00    -0.250 OA
BRANCH  14  16
ATOM     16  C   LIG    1       25.676 -26.825   5.542  0.00  0.00    +0.153 C 
BRANCH  16  17
ATOM     17  C   LIG    1       25.142 -25.519   6.115  0.00  0.00    -0.032 A 
ATOM     18  C   LIG    1       23.764 -25.257   6.153  0.00  0.00    +0.004 A 
ATOM     19  C   LIG    1       23.287 -24.057   6.692  0.00  0.00    +0.000 A 
ATOM     20  C   LIG    1       24.177 -23.113   7.201  0.00  0.00    +0.000 A 
ATOM     21  C   LIG    1       25.544 -23.364   7.175  0.00  0.00    +0.000 A 
ATOM     22  C   LIG    1       26.022 -24.556   6.636  0.00  0.00    +0.004 A 
ENDBRANCH  16  17
BRANCH  16  23
ATOM     23  C   LIG    1       27.098 -27.127   6.024  0.00  0.00    +0.175 C 
BRANCH  23  24
ATOM     24  O   LIG    1       28.010 -27.165   4.924  0.00  0.00    -0.394 OA
ATOM     25  H   LIG    1       27.516 -27.517   4.162  0.00  0.00    +0.209 HD
ENDBRANCH  23  24
ENDBRANCH  16  23
ENDBRANCH  14  16
ENDBRANCH   1  14
TORSDOF 7
ENDMDL
MODEL 8
REMARK VINA RESULT:      -6.0      2.424      7.067
REMARK  Name = *****
REMARK                            x       y       z     vdW  Elec       q    Type
REMARK                         _______ _______ _______ _____ _____    ______ ____
ROOT
ATOM      1  O   LIG    1       26.266 -22.426   6.678  0.00  0.00    -0.461 OA
ENDROOT
BRANCH   1   6
ATOM      2  N   LIG    1       29.307 -20.028   7.868  0.00  0.00    +0.247 N 
ATOM      3  C   LIG    1       29.855 -20.745   9.115  0.00  0.00    +0.193 C 
ATOM      4  C   LIG    1       27.785 -19.703   7.949  0.00  0.00    +0.070 C 
ATOM      5  C   LIG    1       27.021 -20.919   8.482  0.00  0.00    +0.099 C 
ATOM      6  C   LIG    1       27.267 -22.219   7.689  0.00  0.00    +0.187 C 
ATOM      7  C   LIG    1       28.628 -22.306   6.970  0.00  0.00    +0.099 C 
ATOM      8  C   LIG    1       27.373 -19.421   6.495  0.00  0.00    +0.060 C 
ATOM      9  C   LIG    1       28.363 -20.187   5.627  0.00  0.00    +0.060 C 
ATOM     10  C   LIG    1       29.256 -20.949   6.611  0.00  0.00    +0.070 C 
BRANCH   2  12
ATOM     11  C   LIG    1       31.619 -19.033   7.235  0.00  0.00    +0.063 C 
ATOM     12  C   LIG    1       30.171 -18.707   7.623  0.00  0.00    +0.060 C 
ATOM     13  C   LIG    1       30.185 -17.778   8.849  0.00  0.00    +0.063 C 
ENDBRANCH   2  12
ENDBRANCH   1   6
BRANCH   1  14
ATOM     14  C   LIG    1       25.324 -23.379   6.950  0.00  0.00    +0.317 C 
ATOM     15  O   LIG    1       25.597 -24.569   7.135  0.00  0.00    -0.250 OA
BRANCH  14  16
ATOM     16  C   LIG    1       23.941 -22.754   6.972  0.00  0.00    +0.153 C 
BRANCH  16  17
ATOM     17  C   LIG    1       23.795 -21.636   5.948  0.00  0.00    -0.032 A 
ATOM     18  C   LIG    1       24.501 -21.670   4.736  0.00  0.00    +0.004 A 
ATOM     19  C   LIG    1       24.350 -20.642   3.799  0.00  0.00    +0.000 A 
ATOM     20  C   LIG    1       23.492 -19.575   4.061  0.00  0.00    +0.000 A 
ATOM     21  C   LIG    1       22.782 -19.533   5.256  0.00  0.00    +0.000 A 
ATOM     22  C   LIG    1       22.934 -20.553   6.191  0.00  0.00    +0.004 A 
ENDBRANCH  16  17
BRANCH  16  23
ATOM     23  C   LIG    1       22.893 -23.853   6.777  0.00  0.00    +0.175 C 
BRANCH  23  24
ATOM     24  O   LIG    1       23.344 -24.824   5.829  0.00  0.00    -0.394 OA
ATOM     25  H   LIG    1       24.021 -25.361   6.279  0.00  0.00    +0.209 HD
ENDBRANCH  23  24
ENDBRANCH  16  23
ENDBRANCH  14  16
ENDBRANCH   1  14
TORSDOF 7
ENDMDL
MODEL 9
REMARK VINA RESULT:      -6.0      3.819      6.804
REMARK  Name = *****
REMARK                            x       y       z     vdW  Elec       q    Type
REMARK                         _______ _______ _______ _____ _____    ______ ____
ROOT
ATOM      1  O   LIG    1       25.728 -23.741   6.121  0.00  0.00    -0.461 OA
ENDROOT
BRANCH   1   6
ATOM      2  N   LIG    1       25.167 -27.754   6.160  0.00  0.00    +0.247 N 
ATOM      3  C   LIG    1       25.429 -28.133   7.628  0.00  0.00    +0.193 C 
ATOM      4  C   LIG    1       26.348 -26.989   5.488  0.00  0.00    +0.070 C 
ATOM      5  C   LIG    1       26.872 -25.906   6.436  0.00  0.00    +0.099 C 
ATOM      6  C   LIG    1       25.792 -24.925   6.934  0.00  0.00    +0.187 C 
ATOM      7  C   LIG    1       24.359 -25.490   6.985  0.00  0.00    +0.099 C 
ATOM      8  C   LIG    1       25.727 -26.340   4.241  0.00  0.00    +0.060 C 
ATOM      9  C   LIG    1       24.247 -26.166   4.557  0.00  0.00    +0.060 C 
ATOM     10  C   LIG    1       24.085 -26.642   6.003  0.00  0.00    +0.070 C 
BRANCH   2  12
ATOM     11  C   LIG    1       23.643 -29.849   6.006  0.00  0.00    +0.063 C 
ATOM     12  C   LIG    1       24.799 -29.082   5.352  0.00  0.00    +0.060 C 
ATOM     13  C   LIG    1       26.001 -30.031   5.203  0.00  0.00    +0.063 C 
ENDBRANCH   2  12
ENDBRANCH   1   6
BRANCH   1  14
ATOM     14  C   LIG    1       25.757 -22.549   6.789  0.00  0.00    +0.317 C 
ATOM     15  O   LIG    1       25.492 -22.437   7.990  0.00  0.00    -0.250 OA
BRANCH  14  16
ATOM     16  C   LIG    1       26.144 -21.429   5.839  0.00  0.00    +0.153 C 
BRANCH  16  17
ATOM     17  C   LIG    1       24.935 -20.637   5.358  0.00  0.00    -0.032 A 
ATOM     18  C   LIG    1       24.973 -19.928   4.147  0.00  0.00    +0.004 A 
ATOM     19  C   LIG    1       23.851 -19.213   3.711  0.00  0.00    +0.000 A 
ATOM     20  C   LIG    1       22.685 -19.204   4.474  0.00  0.00    +0.000 A 
ATOM     21  C   LIG    1       22.634 -19.908   5.672  0.00  0.00    +0.000 A 
ATOM     22  C   LIG    1       23.749 -20.617   6.110  0.00  0.00    +0.004 A 
ENDBRANCH  16  17
BRANCH  16  23
ATOM     23  C   LIG    1       27.185 -20.535   6.519  0.00  0.00    +0.175 C 
BRANCH  23  24
ATOM     24  O   LIG    1       28.151 -21.321   7.220  0.00  0.00    -0.394 OA
ATOM     25  H   LIG    1       27.888 -22.252   7.110  0.00  0.00    +0.209 HD
ENDBRANCH  23  24
ENDBRANCH  16  23
ENDBRANCH  14  16
ENDBRANCH   1  14
TORSDOF 7
ENDMDL
