MODEL 1
REMARK VINA RESULT:      -6.6      0.000      0.000
REMARK  Name = *****
REMARK                            x       y       z     vdW  Elec       q    Type
REMARK                         _______ _______ _______ _____ _____    ______ ____
ROOT
ATOM      1  C   LIG    1       25.194 -32.669   4.784  0.00  0.00    +0.129 C 
ATOM      2  C   LIG    1       25.441 -31.338   5.613  0.00  0.00    +0.008 C 
ATOM      3  C   LIG    1       26.217 -30.278   4.809  0.00  0.00    +0.015 C 
ATOM      4  C   LIG    1       26.313 -31.814   6.807  0.00  0.00    +0.005 C 
ATOM      5  C   LIG    1       26.377 -30.819   7.992  0.00  0.00    +0.020 C 
ATOM      6  C   LIG    1       24.994 -30.336   8.441  0.00  0.00    -0.055 C 
ATOM      7  C   LIG    1       24.156 -29.736   7.300  0.00  0.00    +0.046 C 
ATOM      8  C   LIG    1       24.607 -30.369   9.743  0.00  0.00    -0.044 C 
ATOM      9  C   LIG    1       25.564 -30.716  10.798  0.00  0.00    -0.041 C 
ATOM     10  C   LIG    1       25.184 -31.061  12.038  0.00  0.00    +0.050 C 
ATOM     11  C   LIG    1       23.753 -31.173  12.393  0.00  0.00    +0.157 C 
ATOM     12  O   LIG    1       23.438 -31.515  13.534  0.00  0.00    -0.293 OA
ATOM     13  C   LIG    1       22.730 -30.941  11.312  0.00  0.00    +0.083 C 
ATOM     14  C   LIG    1       27.020 -30.619  10.425  0.00  0.00    +0.036 C 
ATOM     15  C   LIG    1       23.252 -29.950  10.279  0.00  0.00    +0.043 C 
ATOM     16  C   LIG    1       27.242 -31.391   9.136  0.00  0.00    +0.013 C 
ATOM     17  C   LIG    1       25.724 -33.190   7.128  0.00  0.00    +0.008 C 
ATOM     18  C   LIG    1       24.087 -30.756   6.135  0.00  0.00    +0.022 C 
ATOM     19  C   LIG    1       25.525 -33.825   5.757  0.00  0.00    +0.043 C 
ENDROOT
BRANCH   7  20
ATOM     20  C   LIG    1       24.565 -28.300   6.942  0.00  0.00    -0.040 A 
ATOM     21  C   LIG    1       24.003 -27.635   5.845  0.00  0.00    +0.006 A 
ATOM     22  C   LIG    1       24.359 -26.316   5.519  0.00  0.00    +0.023 A 
ATOM     23  C   LIG    1       25.294 -25.584   6.264  0.00  0.00    +0.029 A 
ATOM     24  C   LIG    1       25.908 -26.287   7.310  0.00  0.00    +0.023 A 
ATOM     25  C   LIG    1       25.568 -27.613   7.632  0.00  0.00    +0.006 A 
BRANCH  23  26
ATOM     26  N   LIG    1       25.636 -24.260   5.948  0.00  0.00    -0.336 N 
ATOM     27  C   LIG    1       24.748 -23.518   5.051  0.00  0.00    +0.129 C 
ATOM     28  C   LIG    1       26.276 -23.443   6.979  0.00  0.00    +0.129 C 
ENDBRANCH  23  26
ENDBRANCH   7  20
BRANCH   1  30
ATOM     29  C   LIG    1       27.410 -33.438   3.608  0.00  0.00    +0.089 C 
ATOM     30  C   LIG    1       26.047 -32.791   3.489  0.00  0.00    +0.162 C 
ATOM     31  O   LIG    1       25.655 -32.376   2.396  0.00  0.00    -0.295 OA
ENDBRANCH   1  30
BRANCH   1  32
ATOM     32  O   LIG    1       23.816 -32.785   4.410  0.00  0.00    -0.381 OA
ATOM     33  H   LIG    1       23.371 -33.348   5.068  0.00  0.00    +0.211 HD
ENDBRANCH   1  32
TORSDOF 4
ENDMDL
MODEL 2
REMARK VINA RESULT:      -6.5      3.806      6.987
REMARK  Name = *****
REMARK                            x       y       z     vdW  Elec       q    Type
REMARK                         _______ _______ _______ _____ _____    ______ ____
ROOT
ATOM      1  C   LIG    1       27.878 -30.047  14.183  0.00  0.00    +0.129 C 
ATOM      2  C   LIG    1       26.941 -29.469  13.039  0.00  0.00    +0.008 C 
ATOM      3  C   LIG    1       27.738 -28.991  11.812  0.00  0.00    +0.015 C 
ATOM      4  C   LIG    1       26.258 -28.249  13.714  0.00  0.00    +0.005 C 
ATOM      5  C   LIG    1       25.000 -27.728  12.977  0.00  0.00    +0.020 C 
ATOM      6  C   LIG    1       24.000 -28.842  12.646  0.00  0.00    -0.055 C 
ATOM      7  C   LIG    1       24.622 -30.007  11.859  0.00  0.00    +0.046 C 
ATOM      8  C   LIG    1       22.681 -28.741  12.954  0.00  0.00    -0.044 C 
ATOM      9  C   LIG    1       22.129 -27.485  13.472  0.00  0.00    -0.041 C 
ATOM     10  C   LIG    1       20.931 -27.411  14.074  0.00  0.00    +0.050 C 
ATOM     11  C   LIG    1       20.121 -28.625  14.307  0.00  0.00    +0.157 C 
ATOM     12  O   LIG    1       19.036 -28.527  14.884  0.00  0.00    -0.293 OA
ATOM     13  C   LIG    1       20.695 -29.957  13.899  0.00  0.00    +0.083 C 
ATOM     14  C   LIG    1       22.969 -26.254  13.249  0.00  0.00    +0.036 C 
ATOM     15  C   LIG    1       21.625 -29.798  12.702  0.00  0.00    +0.043 C 
ATOM     16  C   LIG    1       24.380 -26.536  13.737  0.00  0.00    +0.013 C 
ATOM     17  C   LIG    1       26.033 -28.738  15.147  0.00  0.00    +0.008 C 
ATOM     18  C   LIG    1       25.865 -30.525  12.624  0.00  0.00    +0.022 C 
ATOM     19  C   LIG    1       27.340 -29.436  15.499  0.00  0.00    +0.043 C 
ENDROOT
BRANCH   7  20
ATOM     20  C   LIG    1       24.805 -29.697  10.366  0.00  0.00    -0.040 A 
ATOM     21  C   LIG    1       23.959 -30.254   9.398  0.00  0.00    +0.006 A 
ATOM     22  C   LIG    1       24.109 -29.964   8.032  0.00  0.00    +0.023 A 
ATOM     23  C   LIG    1       25.106 -29.105   7.550  0.00  0.00    +0.029 A 
ATOM     24  C   LIG    1       25.995 -28.618   8.519  0.00  0.00    +0.023 A 
ATOM     25  C   LIG    1       25.861 -28.917   9.887  0.00  0.00    +0.006 A 
BRANCH  23  26
ATOM     26  N   LIG    1       25.244 -28.802   6.187  0.00  0.00    -0.336 N 
ATOM     27  C   LIG    1       25.314 -29.917   5.240  0.00  0.00    +0.129 C 
ATOM     28  C   LIG    1       24.573 -27.609   5.670  0.00  0.00    +0.129 C 
ENDBRANCH  23  26
ENDBRANCH   7  20
BRANCH   1  30
ATOM     29  C   LIG    1       29.978 -28.652  14.910  0.00  0.00    +0.089 C 
ATOM     30  C   LIG    1       29.387 -29.717  14.011  0.00  0.00    +0.162 C 
ATOM     31  O   LIG    1       30.097 -30.280  13.174  0.00  0.00    -0.295 OA
ENDBRANCH   1  30
BRANCH   1  32
ATOM     32  O   LIG    1       27.751 -31.471  14.272  0.00  0.00    -0.381 OA
ATOM     33  H   LIG    1       27.982 -31.740  15.179  0.00  0.00    +0.211 HD
ENDBRANCH   1  32
TORSDOF 4
ENDMDL
MODEL 3
REMARK VINA RESULT:      -5.9      3.842      6.331
REMARK  Name = *****
REMARK                            x       y       z     vdW  Elec       q    Type
REMARK                         _______ _______ _______ _____ _____    ______ ____
ROOT
ATOM      1  C   LIG    1       25.165 -30.757   8.103  0.00  0.00    +0.129 C 
ATOM      2  C   LIG    1       25.676 -30.623   9.600  0.00  0.00    +0.008 C 
ATOM      3  C   LIG    1       26.924 -31.481   9.875  0.00  0.00    +0.015 C 
ATOM      4  C   LIG    1       24.486 -31.167  10.436  0.00  0.00    +0.005 C 
ATOM      5  C   LIG    1       24.532 -30.794  11.938  0.00  0.00    +0.020 C 
ATOM      6  C   LIG    1       24.770 -29.298  12.173  0.00  0.00    -0.055 C 
ATOM      7  C   LIG    1       26.021 -28.758  11.461  0.00  0.00    +0.046 C 
ATOM      8  C   LIG    1       23.983 -28.565  13.005  0.00  0.00    -0.044 C 
ATOM      9  C   LIG    1       22.971 -29.217  13.841  0.00  0.00    -0.041 C 
ATOM     10  C   LIG    1       21.976 -28.541  14.438  0.00  0.00    +0.050 C 
ATOM     11  C   LIG    1       21.811 -27.087  14.225  0.00  0.00    +0.157 C 
ATOM     12  O   LIG    1       20.872 -26.500  14.769  0.00  0.00    -0.293 OA
ATOM     13  C   LIG    1       22.755 -26.391  13.280  0.00  0.00    +0.083 C 
ATOM     14  C   LIG    1       23.134 -30.702  14.038  0.00  0.00    +0.036 C 
ATOM     15  C   LIG    1       24.114 -27.080  13.273  0.00  0.00    +0.043 C 
ATOM     16  C   LIG    1       23.298 -31.355  12.676  0.00  0.00    +0.013 C 
ATOM     17  C   LIG    1       23.268 -30.655   9.663  0.00  0.00    +0.008 C 
ATOM     18  C   LIG    1       25.943 -29.125   9.958  0.00  0.00    +0.022 C 
ATOM     19  C   LIG    1       23.630 -30.916   8.207  0.00  0.00    +0.043 C 
ENDROOT
BRANCH   7  20
ATOM     20  C   LIG    1       27.327 -29.103  12.194  0.00  0.00    -0.040 A 
ATOM     21  C   LIG    1       28.554 -29.128  11.519  0.00  0.00    +0.006 A 
ATOM     22  C   LIG    1       29.755 -29.427  12.183  0.00  0.00    +0.023 A 
ATOM     23  C   LIG    1       29.805 -29.718  13.553  0.00  0.00    +0.029 A 
ATOM     24  C   LIG    1       28.561 -29.768  14.199  0.00  0.00    +0.023 A 
ATOM     25  C   LIG    1       27.353 -29.486  13.538  0.00  0.00    +0.006 A 
BRANCH  23  26
ATOM     26  N   LIG    1       31.007 -29.999  14.219  0.00  0.00    -0.336 N 
ATOM     27  C   LIG    1       32.203 -30.230  13.407  0.00  0.00    +0.129 C 
ATOM     28  C   LIG    1       31.263 -29.339  15.500  0.00  0.00    +0.129 C 
ENDBRANCH  23  26
ENDBRANCH   7  20
BRANCH   1  30
ATOM     29  C   LIG    1       25.034 -33.263   7.338  0.00  0.00    +0.089 C 
ATOM     30  C   LIG    1       25.781 -31.947   7.314  0.00  0.00    +0.162 C 
ATOM     31  O   LIG    1       26.841 -31.851   6.691  0.00  0.00    -0.295 OA
ENDBRANCH   1  30
BRANCH   1  32
ATOM     32  O   LIG    1       25.437 -29.558   7.365  0.00  0.00    -0.381 OA
ATOM     33  H   LIG    1       25.049 -29.655   6.478  0.00  0.00    +0.211 HD
ENDBRANCH   1  32
TORSDOF 4
ENDMDL
MODEL 4
REMARK VINA RESULT:      -5.9      3.857      7.015
REMARK  Name = *****
REMARK                            x       y       z     vdW  Elec       q    Type
REMARK                         _______ _______ _______ _____ _____    ______ ____
ROOT
ATOM      1  C   LIG    1       27.227 -29.893  14.190  0.00  0.00    +0.129 C 
ATOM      2  C   LIG    1       26.282 -29.757  12.921  0.00  0.00    +0.008 C 
ATOM      3  C   LIG    1       26.981 -29.064  11.737  0.00  0.00    +0.015 C 
ATOM      4  C   LIG    1       25.123 -28.857  13.429  0.00  0.00    +0.005 C 
ATOM      5  C   LIG    1       23.855 -28.880  12.540  0.00  0.00    +0.020 C 
ATOM      6  C   LIG    1       23.384 -30.300  12.209  0.00  0.00    -0.055 C 
ATOM      7  C   LIG    1       24.480 -31.176  11.579  0.00  0.00    +0.046 C 
ATOM      8  C   LIG    1       22.095 -30.691  12.386  0.00  0.00    -0.044 C 
ATOM      9  C   LIG    1       21.062 -29.716  12.747  0.00  0.00    -0.041 C 
ATOM     10  C   LIG    1       19.861 -30.074  13.229  0.00  0.00    +0.050 C 
ATOM     11  C   LIG    1       19.536 -31.494  13.483  0.00  0.00    +0.157 C 
ATOM     12  O   LIG    1       18.433 -31.788  13.948  0.00  0.00    -0.293 OA
ATOM     13  C   LIG    1       20.606 -32.526  13.239  0.00  0.00    +0.083 C 
ATOM     14  C   LIG    1       21.406 -28.269  12.504  0.00  0.00    +0.036 C 
ATOM     15  C   LIG    1       21.542 -32.078  12.123  0.00  0.00    +0.043 C 
ATOM     16  C   LIG    1       22.755 -27.979  13.141  0.00  0.00    +0.013 C 
ATOM     17  C   LIG    1       24.930 -29.337  14.870  0.00  0.00    +0.008 C 
ATOM     18  C   LIG    1       25.729 -31.156  12.496  0.00  0.00    +0.022 C 
ATOM     19  C   LIG    1       26.353 -29.476  15.397  0.00  0.00    +0.043 C 
ENDROOT
BRANCH   7  20
ATOM     20  C   LIG    1       24.706 -30.880  10.089  0.00  0.00    -0.040 A 
ATOM     21  C   LIG    1       23.869 -30.004   9.386  0.00  0.00    +0.006 A 
ATOM     22  C   LIG    1       24.077 -29.716   8.028  0.00  0.00    +0.023 A 
ATOM     23  C   LIG    1       25.127 -30.281   7.291  0.00  0.00    +0.029 A 
ATOM     24  C   LIG    1       25.908 -31.217   7.984  0.00  0.00    +0.023 A 
ATOM     25  C   LIG    1       25.695 -31.523   9.340  0.00  0.00    +0.006 A 
BRANCH  23  26
ATOM     26  N   LIG    1       25.344 -29.978   5.939  0.00  0.00    -0.336 N 
ATOM     27  C   LIG    1       25.653 -31.083   5.029  0.00  0.00    +0.129 C 
ATOM     28  C   LIG    1       24.566 -28.896   5.335  0.00  0.00    +0.129 C 
ENDBRANCH  23  26
ENDBRANCH   7  20
BRANCH   1  30
ATOM     29  C   LIG    1       29.791 -29.699  13.673  0.00  0.00    +0.089 C 
ATOM     30  C   LIG    1       28.516 -29.026  14.130  0.00  0.00    +0.162 C 
ATOM     31  O   LIG    1       28.528 -27.834  14.447  0.00  0.00    -0.295 OA
ENDBRANCH   1  30
BRANCH   1  32
ATOM     32  O   LIG    1       27.627 -31.255  14.381  0.00  0.00    -0.381 OA
ATOM     33  H   LIG    1       28.374 -31.266  15.004  0.00  0.00    +0.211 HD
ENDBRANCH   1  32
TORSDOF 4
ENDMDL
MODEL 5
REMARK VINA RESULT:      -5.7      3.716      6.292
REMARK  Name = *****
REMARK                            x       y       z     vdW  Elec       q    Type
REMARK                         _______ _______ _______ _____ _____    ______ ____
ROOT
ATOM      1  C   LIG    1       24.808 -32.011   8.562  0.00  0.00    +0.129 C 
ATOM      2  C   LIG    1       24.397 -30.995   9.710  0.00  0.00    +0.008 C 
ATOM      3  C   LIG    1       23.057 -30.291   9.422  0.00  0.00    +0.015 C 
ATOM      4  C   LIG    1       25.541 -29.945   9.688  0.00  0.00    +0.005 C 
ATOM      5  C   LIG    1       25.622 -29.058  10.954  0.00  0.00    +0.020 C 
ATOM      6  C   LIG    1       25.605 -29.870  12.254  0.00  0.00    -0.055 C 
ATOM      7  C   LIG    1       24.405 -30.825  12.362  0.00  0.00    +0.046 C 
ATOM      8  C   LIG    1       26.526 -29.679  13.235  0.00  0.00    -0.044 C 
ATOM      9  C   LIG    1       27.479 -28.568  13.158  0.00  0.00    -0.041 C 
ATOM     10  C   LIG    1       28.587 -28.507  13.915  0.00  0.00    +0.050 C 
ATOM     11  C   LIG    1       28.940 -29.609  14.836  0.00  0.00    +0.157 C 
ATOM     12  O   LIG    1       29.976 -29.533  15.500  0.00  0.00    -0.293 OA
ATOM     13  C   LIG    1       28.054 -30.827  14.866  0.00  0.00    +0.083 C 
ATOM     14  C   LIG    1       27.124 -27.458  12.204  0.00  0.00    +0.036 C 
ATOM     15  C   LIG    1       26.614 -30.454  14.535  0.00  0.00    +0.043 C 
ATOM     16  C   LIG    1       26.803 -28.069  10.850  0.00  0.00    +0.013 C 
ATOM     17  C   LIG    1       26.777 -30.800   9.398  0.00  0.00    +0.008 C 
ATOM     18  C   LIG    1       24.357 -31.717  11.096  0.00  0.00    +0.022 C 
ATOM     19  C   LIG    1       26.310 -31.748   8.301  0.00  0.00    +0.043 C 
ENDROOT
BRANCH   7  20
ATOM     20  C   LIG    1       23.103 -30.116  12.763  0.00  0.00    -0.040 A 
ATOM     21  C   LIG    1       21.936 -30.839  13.038  0.00  0.00    +0.006 A 
ATOM     22  C   LIG    1       20.745 -30.200  13.420  0.00  0.00    +0.023 A 
ATOM     23  C   LIG    1       20.646 -28.807  13.549  0.00  0.00    +0.029 A 
ATOM     24  C   LIG    1       21.797 -28.091  13.193  0.00  0.00    +0.023 A 
ATOM     25  C   LIG    1       22.989 -28.723  12.795  0.00  0.00    +0.006 A 
BRANCH  23  26
ATOM     26  N   LIG    1       19.461 -28.172  13.948  0.00  0.00    -0.336 N 
ATOM     27  C   LIG    1       18.577 -28.886  14.872  0.00  0.00    +0.129 C 
ATOM     28  C   LIG    1       19.477 -26.719  14.126  0.00  0.00    +0.129 C 
ENDBRANCH  23  26
ENDBRANCH   7  20
BRANCH   1  30
ATOM     29  C   LIG    1       24.480 -30.843   6.236  0.00  0.00    +0.089 C 
ATOM     30  C   LIG    1       23.995 -31.862   7.245  0.00  0.00    +0.162 C 
ATOM     31  O   LIG    1       22.986 -32.529   7.010  0.00  0.00    -0.295 OA
ENDBRANCH   1  30
BRANCH   1  32
ATOM     32  O   LIG    1       24.666 -33.365   9.010  0.00  0.00    -0.381 OA
ATOM     33  H   LIG    1       25.540 -33.793   8.962  0.00  0.00    +0.211 HD
ENDBRANCH   1  32
TORSDOF 4
ENDMDL
MODEL 6
REMARK VINA RESULT:      -5.5      3.842      6.578
REMARK  Name = *****
REMARK                            x       y       z     vdW  Elec       q    Type
REMARK                         _______ _______ _______ _____ _____    ______ ____
ROOT
ATOM      1  C   LIG    1       20.816 -31.255  11.277  0.00  0.00    +0.129 C 
ATOM      2  C   LIG    1       22.348 -31.400  10.891  0.00  0.00    +0.008 C 
ATOM      3  C   LIG    1       22.610 -32.597   9.957  0.00  0.00    +0.015 C 
ATOM      4  C   LIG    1       23.042 -31.655  12.256  0.00  0.00    +0.005 C 
ATOM      5  C   LIG    1       24.575 -31.440  12.248  0.00  0.00    +0.020 C 
ATOM      6  C   LIG    1       24.986 -30.098  11.631  0.00  0.00    -0.055 C 
ATOM      7  C   LIG    1       24.420 -29.876  10.219  0.00  0.00    +0.046 C 
ATOM      8  C   LIG    1       25.839 -29.248  12.260  0.00  0.00    -0.044 C 
ATOM      9  C   LIG    1       26.533 -29.656  13.485  0.00  0.00    -0.041 C 
ATOM     10  C   LIG    1       27.134 -28.780  14.306  0.00  0.00    +0.050 C 
ATOM     11  C   LIG    1       27.070 -27.326  14.045  0.00  0.00    +0.157 C 
ATOM     12  O   LIG    1       27.611 -26.546  14.832  0.00  0.00    -0.293 OA
ATOM     13  C   LIG    1       26.269 -26.847  12.862  0.00  0.00    +0.083 C 
ATOM     14  C   LIG    1       26.578 -31.137  13.756  0.00  0.00    +0.036 C 
ATOM     15  C   LIG    1       26.275 -27.889  11.750  0.00  0.00    +0.043 C 
ATOM     16  C   LIG    1       25.167 -31.691  13.652  0.00  0.00    +0.013 C 
ATOM     17  C   LIG    1       22.251 -30.755  13.209  0.00  0.00    +0.008 C 
ATOM     18  C   LIG    1       22.884 -30.075  10.256  0.00  0.00    +0.022 C 
ATOM     19  C   LIG    1       20.802 -30.982  12.800  0.00  0.00    +0.043 C 
ENDROOT
BRANCH   7  20
ATOM     20  C   LIG    1       25.193 -30.638   9.133  0.00  0.00    -0.040 A 
ATOM     21  C   LIG    1       24.814 -30.569   7.786  0.00  0.00    +0.006 A 
ATOM     22  C   LIG    1       25.524 -31.249   6.784  0.00  0.00    +0.023 A 
ATOM     23  C   LIG    1       26.650 -32.036   7.061  0.00  0.00    +0.029 A 
ATOM     24  C   LIG    1       26.971 -32.162   8.420  0.00  0.00    +0.023 A 
ATOM     25  C   LIG    1       26.255 -31.497   9.431  0.00  0.00    +0.006 A 
BRANCH  23  26
ATOM     26  N   LIG    1       27.369 -32.701   6.057  0.00  0.00    -0.336 N 
ATOM     27  C   LIG    1       28.525 -33.505   6.459  0.00  0.00    +0.129 C 
ATOM     28  C   LIG    1       26.633 -33.229   4.908  0.00  0.00    +0.129 C 
ENDBRANCH  23  26
ENDBRANCH   7  20
BRANCH   1  30
ATOM     29  C   LIG    1       19.865 -33.596  11.981  0.00  0.00    +0.089 C 
ATOM     30  C   LIG    1       19.945 -32.498  10.942  0.00  0.00    +0.162 C 
ATOM     31  O   LIG    1       19.338 -32.614   9.875  0.00  0.00    -0.295 OA
ENDBRANCH   1  30
BRANCH   1  32
ATOM     32  O   LIG    1       20.232 -30.124  10.619  0.00  0.00    -0.381 OA
ATOM     33  H   LIG    1       19.869 -29.531  11.300  0.00  0.00    +0.211 HD
ENDBRANCH   1  32
TORSDOF 4
ENDMDL
MODEL 7
REMARK VINA RESULT:      -5.5      4.490      8.108
REMARK  Name = *****
REMARK                            x       y       z     vdW  Elec       q    Type
REMARK                         _______ _______ _______ _____ _____    ______ ____
ROOT
ATOM      1  C   LIG    1       26.353 -26.765  14.565  0.00  0.00    +0.129 C 
ATOM      2  C   LIG    1       25.561 -27.489  13.396  0.00  0.00    +0.008 C 
ATOM      3  C   LIG    1       26.144 -27.173  12.006  0.00  0.00    +0.015 C 
ATOM      4  C   LIG    1       24.133 -26.888  13.501  0.00  0.00    +0.005 C 
ATOM      5  C   LIG    1       23.041 -27.690  12.752  0.00  0.00    +0.020 C 
ATOM      6  C   LIG    1       23.066 -29.186  13.086  0.00  0.00    -0.055 C 
ATOM      7  C   LIG    1       24.440 -29.839  12.863  0.00  0.00    +0.046 C 
ATOM      8  C   LIG    1       21.946 -29.860  13.457  0.00  0.00    -0.044 C 
ATOM      9  C   LIG    1       20.631 -29.215  13.393  0.00  0.00    -0.041 C 
ATOM     10  C   LIG    1       19.550 -29.704  14.021  0.00  0.00    +0.050 C 
ATOM     11  C   LIG    1       19.647 -30.906  14.877  0.00  0.00    +0.157 C 
ATOM     12  O   LIG    1       18.641 -31.316  15.460  0.00  0.00    -0.293 OA
ATOM     13  C   LIG    1       21.001 -31.538  15.070  0.00  0.00    +0.083 C 
ATOM     14  C   LIG    1       20.543 -27.980  12.534  0.00  0.00    +0.036 C 
ATOM     15  C   LIG    1       21.876 -31.324  13.841  0.00  0.00    +0.043 C 
ATOM     16  C   LIG    1       21.658 -27.030  12.937  0.00  0.00    +0.013 C 
ATOM     17  C   LIG    1       23.935 -26.751  15.012  0.00  0.00    +0.008 C 
ATOM     18  C   LIG    1       25.512 -29.033  13.638  0.00  0.00    +0.022 C 
ATOM     19  C   LIG    1       25.264 -26.187  15.500  0.00  0.00    +0.043 C 
ENDROOT
BRANCH   7  20
ATOM     20  C   LIG    1       24.731 -30.142  11.386  0.00  0.00    -0.040 A 
ATOM     21  C   LIG    1       26.029 -30.428  10.944  0.00  0.00    +0.006 A 
ATOM     22  C   LIG    1       26.303 -30.722   9.599  0.00  0.00    +0.023 A 
ATOM     23  C   LIG    1       25.304 -30.746   8.616  0.00  0.00    +0.029 A 
ATOM     24  C   LIG    1       24.024 -30.380   9.055  0.00  0.00    +0.023 A 
ATOM     25  C   LIG    1       23.745 -30.069  10.398  0.00  0.00    +0.006 A 
BRANCH  23  26
ATOM     26  N   LIG    1       25.576 -31.057   7.275  0.00  0.00    -0.336 N 
ATOM     27  C   LIG    1       26.237 -32.332   6.987  0.00  0.00    +0.129 C 
ATOM     28  C   LIG    1       24.622 -30.625   6.254  0.00  0.00    +0.129 C 
ENDBRANCH  23  26
ENDBRANCH   7  20
BRANCH   1  30
ATOM     29  C   LIG    1       28.669 -25.549  14.762  0.00  0.00    +0.089 C 
ATOM     30  C   LIG    1       27.314 -25.638  14.093  0.00  0.00    +0.162 C 
ATOM     31  O   LIG    1       27.006 -24.829  13.215  0.00  0.00    -0.295 OA
ENDBRANCH   1  30
BRANCH   1  32
ATOM     32  O   LIG    1       27.125 -27.710  15.316  0.00  0.00    -0.381 OA
ATOM     33  H   LIG    1       27.962 -27.862  14.841  0.00  0.00    +0.211 HD
ENDBRANCH   1  32
TORSDOF 4
ENDMDL
MODEL 8
REMARK VINA RESULT:      -5.4      3.721      5.737
REMARK  Name = *****
REMARK                            x       y       z     vdW  Elec       q    Type
REMARK                         _______ _______ _______ _____ _____    ______ ____
ROOT
ATOM      1  C   LIG    1       24.898 -31.720   7.489  0.00  0.00    +0.129 C 
ATOM      2  C   LIG    1       25.286 -31.486   9.010  0.00  0.00    +0.008 C 
ATOM      3  C   LIG    1       26.720 -31.946   9.330  0.00  0.00    +0.015 C 
ATOM      4  C   LIG    1       24.278 -32.381   9.781  0.00  0.00    +0.005 C 
ATOM      5  C   LIG    1       24.152 -32.054  11.290  0.00  0.00    +0.020 C 
ATOM      6  C   LIG    1       23.927 -30.562  11.560  0.00  0.00    -0.055 C 
ATOM      7  C   LIG    1       24.990 -29.657  10.916  0.00  0.00    +0.046 C 
ATOM      8  C   LIG    1       22.926 -30.119  12.365  0.00  0.00    -0.044 C 
ATOM      9  C   LIG    1       22.120 -31.064  13.143  0.00  0.00    -0.041 C 
ATOM     10  C   LIG    1       20.946 -30.729  13.703  0.00  0.00    +0.050 C 
ATOM     11  C   LIG    1       20.367 -29.383  13.507  0.00  0.00    +0.157 C 
ATOM     12  O   LIG    1       19.276 -29.114  14.015  0.00  0.00    -0.293 OA
ATOM     13  C   LIG    1       21.100 -28.412  12.619  0.00  0.00    +0.083 C 
ATOM     14  C   LIG    1       22.706 -32.440  13.323  0.00  0.00    +0.036 C 
ATOM     15  C   LIG    1       22.602 -28.669  12.664  0.00  0.00    +0.043 C 
ATOM     16  C   LIG    1       23.110 -32.976  11.960  0.00  0.00    +0.013 C 
ATOM     17  C   LIG    1       22.995 -32.228   8.961  0.00  0.00    +0.008 C 
ATOM     18  C   LIG    1       25.084 -29.987   9.405  0.00  0.00    +0.022 C 
ATOM     19  C   LIG    1       23.476 -32.328   7.519  0.00  0.00    +0.043 C 
ENDROOT
BRANCH   7  20
ATOM     20  C   LIG    1       26.309 -29.623  11.703  0.00  0.00    -0.040 A 
ATOM     21  C   LIG    1       26.349 -29.928  13.070  0.00  0.00    +0.006 A 
ATOM     22  C   LIG    1       27.551 -29.915  13.794  0.00  0.00    +0.023 A 
ATOM     23  C   LIG    1       28.782 -29.597  13.203  0.00  0.00    +0.029 A 
ATOM     24  C   LIG    1       28.717 -29.216  11.855  0.00  0.00    +0.023 A 
ATOM     25  C   LIG    1       27.514 -29.212  11.127  0.00  0.00    +0.006 A 
BRANCH  23  26
ATOM     26  N   LIG    1       29.986 -29.602  13.923  0.00  0.00    -0.336 N 
ATOM     27  C   LIG    1       29.985 -30.207  15.257  0.00  0.00    +0.129 C 
ATOM     28  C   LIG    1       31.238 -29.767  13.184  0.00  0.00    +0.129 C 
ENDBRANCH  23  26
ENDBRANCH   7  20
BRANCH   1  30
ATOM     29  C   LIG    1       26.573 -32.076   5.502  0.00  0.00    +0.089 C 
ATOM     30  C   LIG    1       25.869 -32.652   6.711  0.00  0.00    +0.162 C 
ATOM     31  O   LIG    1       26.069 -33.824   7.041  0.00  0.00    -0.295 OA
ENDBRANCH   1  30
BRANCH   1  32
ATOM     32  O   LIG    1       24.833 -30.474   6.785  0.00  0.00    -0.381 OA
ATOM     33  H   LIG    1       23.897 -30.214   6.716  0.00  0.00    +0.211 HD
ENDBRANCH   1  32
TORSDOF 4
ENDMDL
MODEL 9
REMARK VINA RESULT:      -5.4      3.686      6.604
REMARK  Name = *****
REMARK                            x       y       z     vdW  Elec       q    Type
REMARK                         _______ _______ _______ _____ _____    ______ ____
ROOT
ATOM      1  C   LIG    1       26.583 -29.788  14.093  0.00  0.00    +0.129 C 
ATOM      2  C   LIG    1       25.788 -29.439  12.764  0.00  0.00    +0.008 C 
ATOM      3  C   LIG    1       26.325 -28.173  12.071  0.00  0.00    +0.015 C 
ATOM      4  C   LIG    1       24.343 -29.174  13.267  0.00  0.00    +0.005 C 
ATOM      5  C   LIG    1       23.262 -29.203  12.160  0.00  0.00    +0.020 C 
ATOM      6  C   LIG    1       23.347 -30.451  11.275  0.00  0.00    -0.055 C 
ATOM      7  C   LIG    1       24.737 -30.666  10.653  0.00  0.00    +0.046 C 
ATOM      8  C   LIG    1       22.261 -31.225  11.013  0.00  0.00    -0.044 C 
ATOM      9  C   LIG    1       20.923 -30.801  11.437  0.00  0.00    -0.041 C 
ATOM     10  C   LIG    1       19.876 -31.640  11.485  0.00  0.00    +0.050 C 
ATOM     11  C   LIG    1       20.037 -33.076  11.169  0.00  0.00    +0.157 C 
ATOM     12  O   LIG    1       19.061 -33.825  11.246  0.00  0.00    -0.293 OA
ATOM     13  C   LIG    1       21.417 -33.585  10.842  0.00  0.00    +0.083 C 
ATOM     14  C   LIG    1       20.770 -29.341  11.776  0.00  0.00    +0.036 C 
ATOM     15  C   LIG    1       22.252 -32.493  10.184  0.00  0.00    +0.043 C 
ATOM     16  C   LIG    1       21.861 -28.957  12.761  0.00  0.00    +0.013 C 
ATOM     17  C   LIG    1       24.179 -30.212  14.381  0.00  0.00    +0.008 C 
ATOM     18  C   LIG    1       25.800 -30.655  11.781  0.00  0.00    +0.022 C 
ATOM     19  C   LIG    1       25.498 -30.140  15.138  0.00  0.00    +0.043 C 
ENDROOT
BRANCH   7  20
ATOM     20  C   LIG    1       25.002 -29.762   9.441  0.00  0.00    -0.040 A 
ATOM     21  C   LIG    1       24.154 -29.773   8.326  0.00  0.00    +0.006 A 
ATOM     22  C   LIG    1       24.378 -28.938   7.219  0.00  0.00    +0.023 A 
ATOM     23  C   LIG    1       25.459 -28.047   7.156  0.00  0.00    +0.029 A 
ATOM     24  C   LIG    1       26.344 -28.103   8.242  0.00  0.00    +0.023 A 
ATOM     25  C   LIG    1       26.134 -28.947   9.346  0.00  0.00    +0.006 A 
BRANCH  23  26
ATOM     26  N   LIG    1       25.672 -27.201   6.058  0.00  0.00    -0.336 N 
ATOM     27  C   LIG    1       24.738 -27.288   4.933  0.00  0.00    +0.129 C 
ATOM     28  C   LIG    1       26.197 -25.858   6.306  0.00  0.00    +0.129 C 
ENDBRANCH  23  26
ENDBRANCH   7  20
BRANCH   1  30
ATOM     29  C   LIG    1       26.847 -27.577  15.480  0.00  0.00    +0.089 C 
ATOM     30  C   LIG    1       27.492 -28.643  14.621  0.00  0.00    +0.162 C 
ATOM     31  O   LIG    1       28.695 -28.576  14.357  0.00  0.00    -0.295 OA
ENDBRANCH   1  30
BRANCH   1  32
ATOM     32  O   LIG    1       27.407 -30.945  13.902  0.00  0.00    -0.381 OA
ATOM     33  H   LIG    1       27.902 -30.830  13.072  0.00  0.00    +0.211 HD
ENDBRANCH   1  32
TORSDOF 4
ENDMDL
