MODEL 1
REMARK VINA RESULT:      -8.1      0.000      0.000
REMARK  Name = *****
REMARK                            x       y       z     vdW  Elec       q    Type
REMARK                         _______ _______ _______ _____ _____    ______ ____
ROOT
ATOM      1  C   LIG    1       24.976 -22.816   7.556  0.00  0.00    +0.253 C 
ATOM      2  C   LIG    1       23.969 -22.373   6.494  0.00  0.00    +0.195 C 
ATOM      3  C   LIG    1       23.240 -23.658   6.147  0.00  0.00    +0.178 C 
ATOM      4  C   LIG    1       24.276 -24.755   6.388  0.00  0.00    +0.178 C 
ATOM      5  O   LIG    1       25.297 -24.199   7.251  0.00  0.00    -0.346 OA
ENDROOT
BRANCH   1  10
ATOM      6  C   LIG    1       28.615 -19.826   6.297  0.00  0.00    +0.151 A 
ATOM      7  C   LIG    1       27.904 -20.739   7.107  0.00  0.00    +0.148 A 
ATOM      8  N   LIG    1       28.253 -21.442   8.243  0.00  0.00    -0.231 NA
ATOM      9  C   LIG    1       27.220 -22.210   8.501  0.00  0.00    +0.203 A 
ATOM     10  N   LIG    1       26.215 -22.051   7.580  0.00  0.00    -0.285 N 
ATOM     11  C   LIG    1       26.623 -21.072   6.705  0.00  0.00    +0.169 A 
ATOM     12  N   LIG    1       25.965 -20.568   5.651  0.00  0.00    -0.202 NA
ATOM     13  C   LIG    1       26.705 -19.689   4.952  0.00  0.00    +0.192 A 
ATOM     14  N   LIG    1       27.983 -19.330   5.201  0.00  0.00    -0.205 NA
BRANCH   6  15
ATOM     15  N   LIG    1       29.927 -19.403   6.517  0.00  0.00    -0.326 N 
ATOM     16  H   LIG    1       30.555 -20.206   6.498  0.00  0.00    +0.147 HD
BRANCH  15  17
ATOM     17  C   LIG    1       30.154 -18.444   7.592  0.00  0.00    +0.114 C 
BRANCH  17  18
ATOM     18  C   LIG    1       31.535 -18.616   8.227  0.00  0.00    +0.087 C 
BRANCH  18  20
ATOM     19  C   LIG    1       30.479 -17.322  10.453  0.00  0.00    +0.084 C 
ATOM     20  S   LIG    1       31.968 -17.297   9.422  0.00  0.00    -0.163 S 
ENDBRANCH  18  20
ENDBRANCH  17  18
ENDBRANCH  15  17
ENDBRANCH   6  15
BRANCH  13  21
ATOM     21  S   LIG    1       25.911 -18.931   3.543  0.00  0.00    -0.086 S 
BRANCH  21  22
ATOM     22  C   LIG    1       24.205 -19.463   3.889  0.00  0.00    +0.086 C 
BRANCH  22  23
ATOM     23  C   LIG    1       23.182 -18.425   3.443  0.00  0.00    +0.124 C 
BRANCH  23  24
ATOM     24  C   LIG    1       22.070 -18.301   4.467  0.00  0.00    +0.391 C 
ATOM     25  F   LIG    1       22.060 -17.066   5.020  0.00  0.00    -0.171 F 
ATOM     26  F   LIG    1       22.237 -19.189   5.472  0.00  0.00    -0.171 F 
ATOM     27  F   LIG    1       20.845 -18.514   3.941  0.00  0.00    -0.171 F 
ENDBRANCH  23  24
ENDBRANCH  22  23
ENDBRANCH  21  22
ENDBRANCH  13  21
ENDBRANCH   1  10
BRANCH   3  28
ATOM     28  O   LIG    1       22.143 -23.785   7.073  0.00  0.00    -0.386 OA
ATOM     29  H   LIG    1       21.964 -22.891   7.423  0.00  0.00    +0.210 HD
ENDBRANCH   3  28
BRANCH   2  30
ATOM     30  O   LIG    1       23.045 -21.384   6.954  0.00  0.00    -0.385 OA
ATOM     31  H   LIG    1       23.543 -20.544   7.007  0.00  0.00    +0.210 HD
ENDBRANCH   2  30
BRANCH   4  32
ATOM     32  C   LIG    1       24.952 -25.302   5.116  0.00  0.00    +0.206 C 
BRANCH  32  33
ATOM     33  O   LIG    1       24.868 -26.721   5.017  0.00  0.00    -0.284 OA
BRANCH  33  34
ATOM     34  P   LIG    1       26.235 -27.551   5.295  0.00  0.00    +0.482 P 
ATOM     35  O   LIG    1       27.298 -27.326   4.300  0.00  0.00    -0.227 OA
BRANCH  34  36
ATOM     36  O   LIG    1       26.659 -27.073   6.775  0.00  0.00    -0.302 OA
ATOM     37  H   LIG    1       26.251 -26.213   6.993  0.00  0.00    +0.222 HD
ENDBRANCH  34  36
BRANCH  34  38
ATOM     38  O   LIG    1       25.770 -29.068   5.488  0.00  0.00    -0.206 OA
BRANCH  38  39
ATOM     39  P   LIG    1       24.631 -29.617   6.469  0.00  0.00    +0.386 P 
ATOM     40  O   LIG    1       23.347 -29.959   5.759  0.00  0.00    -0.254 OA
BRANCH  39  41
ATOM     41  C   LIG    1       25.338 -30.889   7.554  0.00  0.00    +0.318 C 
ATOM     42 CL   LIG    1       26.549 -31.872   6.626  0.00  0.00    -0.075 Cl
ATOM     43 CL   LIG    1       24.014 -32.037   8.023  0.00  0.00    -0.075 Cl
BRANCH  41  44
ATOM     44  P   LIG    1       26.141 -30.402   9.113  0.00  0.00    +0.375 P 
ATOM     45  O   LIG    1       27.015 -31.388   9.819  0.00  0.00    -0.255 OA
BRANCH  44  46
ATOM     46  O   LIG    1       26.986 -29.064   8.796  0.00  0.00    -0.322 OA
ATOM     47  H   LIG    1       26.551 -28.459   8.167  0.00  0.00    +0.220 HD
ENDBRANCH  44  46
BRANCH  44  48
ATOM     48  O   LIG    1       25.044 -29.778  10.108  0.00  0.00    -0.322 OA
ATOM     49  H   LIG    1       24.502 -30.448  10.570  0.00  0.00    +0.220 HD
ENDBRANCH  44  48
ENDBRANCH  41  44
ENDBRANCH  39  41
BRANCH  39  50
ATOM     50  O   LIG    1       24.377 -28.305   7.384  0.00  0.00    -0.321 OA
ATOM     51  H   LIG    1       25.061 -28.165   8.068  0.00  0.00    +0.220 HD
ENDBRANCH  39  50
ENDBRANCH  38  39
ENDBRANCH  34  38
ENDBRANCH  33  34
ENDBRANCH  32  33
ENDBRANCH   4  32
TORSDOF 22
ENDMDL
MODEL 2
REMARK VINA RESULT:      -7.4      0.948      1.970
REMARK  Name = *****
REMARK                            x       y       z     vdW  Elec       q    Type
REMARK                         _______ _______ _______ _____ _____    ______ ____
ROOT
ATOM      1  C   LIG    1       24.882 -22.798   7.471  0.00  0.00    +0.253 C 
ATOM      2  C   LIG    1       24.009 -22.507   6.249  0.00  0.00    +0.195 C 
ATOM      3  C   LIG    1       23.277 -23.818   6.025  0.00  0.00    +0.178 C 
ATOM      4  C   LIG    1       24.244 -24.883   6.543  0.00  0.00    +0.178 C 
ATOM      5  O   LIG    1       25.186 -24.217   7.419  0.00  0.00    -0.346 OA
ENDROOT
BRANCH   1  10
ATOM      6  C   LIG    1       28.600 -19.880   6.273  0.00  0.00    +0.151 A 
ATOM      7  C   LIG    1       27.860 -20.783   7.069  0.00  0.00    +0.148 A 
ATOM      8  N   LIG    1       28.180 -21.500   8.204  0.00  0.00    -0.231 NA
ATOM      9  C   LIG    1       27.129 -22.248   8.445  0.00  0.00    +0.203 A 
ATOM     10  N   LIG    1       26.137 -22.060   7.514  0.00  0.00    -0.285 N 
ATOM     11  C   LIG    1       26.577 -21.085   6.651  0.00  0.00    +0.169 A 
ATOM     12  N   LIG    1       25.942 -20.560   5.593  0.00  0.00    -0.202 NA
ATOM     13  C   LIG    1       26.708 -19.692   4.909  0.00  0.00    +0.192 A 
ATOM     14  N   LIG    1       27.991 -19.363   5.174  0.00  0.00    -0.205 NA
BRANCH   6  15
ATOM     15  N   LIG    1       29.918 -19.488   6.511  0.00  0.00    -0.326 N 
ATOM     16  H   LIG    1       30.513 -20.311   6.586  0.00  0.00    +0.147 HD
BRANCH  15  17
ATOM     17  C   LIG    1       30.142 -18.448   7.508  0.00  0.00    +0.114 C 
BRANCH  17  18
ATOM     18  C   LIG    1       31.427 -18.686   8.302  0.00  0.00    +0.087 C 
BRANCH  18  20
ATOM     19  C   LIG    1       32.250 -16.259   9.387  0.00  0.00    +0.084 C 
ATOM     20  S   LIG    1       31.475 -17.811   9.910  0.00  0.00    -0.163 S 
ENDBRANCH  18  20
ENDBRANCH  17  18
ENDBRANCH  15  17
ENDBRANCH   6  15
BRANCH  13  21
ATOM     21  S   LIG    1       25.947 -18.908   3.496  0.00  0.00    -0.086 S 
BRANCH  21  22
ATOM     22  C   LIG    1       24.244 -19.493   3.761  0.00  0.00    +0.086 C 
BRANCH  22  23
ATOM     23  C   LIG    1       23.215 -18.412   3.451  0.00  0.00    +0.124 C 
BRANCH  23  24
ATOM     24  C   LIG    1       22.142 -18.377   4.523  0.00  0.00    +0.391 C 
ATOM     25  F   LIG    1       21.898 -17.107   4.920  0.00  0.00    -0.171 F 
ATOM     26  F   LIG    1       22.529 -19.072   5.616  0.00  0.00    -0.171 F 
ATOM     27  F   LIG    1       20.968 -18.900   4.108  0.00  0.00    -0.171 F 
ENDBRANCH  23  24
ENDBRANCH  22  23
ENDBRANCH  21  22
ENDBRANCH  13  21
ENDBRANCH   1  10
BRANCH   3  28
ATOM     28  O   LIG    1       22.084 -23.780   6.833  0.00  0.00    -0.386 OA
ATOM     29  H   LIG    1       21.360 -23.477   6.252  0.00  0.00    +0.210 HD
ENDBRANCH   3  28
BRANCH   2  30
ATOM     30  O   LIG    1       23.077 -21.443   6.448  0.00  0.00    -0.385 OA
ATOM     31  H   LIG    1       23.414 -20.917   7.201  0.00  0.00    +0.210 HD
ENDBRANCH   2  30
BRANCH   4  32
ATOM     32  C   LIG    1       25.031 -25.633   5.452  0.00  0.00    +0.206 C 
BRANCH  32  33
ATOM     33  O   LIG    1       24.587 -26.975   5.281  0.00  0.00    -0.284 OA
BRANCH  33  34
ATOM     34  P   LIG    1       25.453 -28.128   6.028  0.00  0.00    +0.482 P 
ATOM     35  O   LIG    1       26.103 -29.088   5.118  0.00  0.00    -0.227 OA
BRANCH  34  36
ATOM     36  O   LIG    1       26.514 -27.282   6.898  0.00  0.00    -0.302 OA
ATOM     37  H   LIG    1       26.065 -26.794   7.614  0.00  0.00    +0.222 HD
ENDBRANCH  34  36
BRANCH  34  38
ATOM     38  O   LIG    1       24.463 -28.757   7.113  0.00  0.00    -0.206 OA
BRANCH  38  39
ATOM     39  P   LIG    1       24.818 -29.830   8.246  0.00  0.00    +0.386 P 
ATOM     40  O   LIG    1       23.970 -29.693   9.484  0.00  0.00    -0.254 OA
BRANCH  39  41
ATOM     41  C   LIG    1       24.925 -31.480   7.496  0.00  0.00    +0.318 C 
ATOM     42 CL   LIG    1       24.466 -32.734   8.726  0.00  0.00    -0.075 Cl
ATOM     43 CL   LIG    1       26.659 -31.801   7.073  0.00  0.00    -0.075 Cl
BRANCH  41  44
ATOM     44  P   LIG    1       23.974 -31.850   5.989  0.00  0.00    +0.375 P 
ATOM     45  O   LIG    1       23.058 -33.031   5.979  0.00  0.00    -0.255 OA
BRANCH  44  46
ATOM     46  O   LIG    1       23.136 -30.517   5.635  0.00  0.00    -0.322 OA
ATOM     47  H   LIG    1       22.823 -30.479   4.712  0.00  0.00    +0.220 HD
ENDBRANCH  44  46
BRANCH  44  48
ATOM     48  O   LIG    1       24.965 -31.870   4.724  0.00  0.00    -0.322 OA
ATOM     49  H   LIG    1       25.894 -32.072   4.952  0.00  0.00    +0.220 HD
ENDBRANCH  44  48
ENDBRANCH  41  44
ENDBRANCH  39  41
BRANCH  39  50
ATOM     50  O   LIG    1       26.331 -29.379   8.610  0.00  0.00    -0.321 OA
ATOM     51  H   LIG    1       26.891 -29.215   7.825  0.00  0.00    +0.220 HD
ENDBRANCH  39  50
ENDBRANCH  38  39
ENDBRANCH  34  38
ENDBRANCH  33  34
ENDBRANCH  32  33
ENDBRANCH   4  32
TORSDOF 22
ENDMDL
MODEL 3
REMARK VINA RESULT:      -7.2      7.339     11.030
REMARK  Name = *****
REMARK                            x       y       z     vdW  Elec       q    Type
REMARK                         _______ _______ _______ _____ _____    ______ ____
ROOT
ATOM      1  C   LIG    1       24.759 -30.329  10.860  0.00  0.00    +0.253 C 
ATOM      2  C   LIG    1       25.069 -31.394   9.807  0.00  0.00    +0.195 C 
ATOM      3  C   LIG    1       26.310 -30.855   9.120  0.00  0.00    +0.178 C 
ATOM      4  C   LIG    1       26.177 -29.336   9.241  0.00  0.00    +0.178 C 
ATOM      5  O   LIG    1       25.238 -29.072  10.311  0.00  0.00    -0.346 OA
ENDROOT
BRANCH   1  10
ATOM      6  C   LIG    1       20.609 -29.031  13.063  0.00  0.00    +0.151 A 
ATOM      7  C   LIG    1       21.427 -29.664  12.101  0.00  0.00    +0.148 A 
ATOM      8  N   LIG    1       21.161 -30.612  11.133  0.00  0.00    -0.231 NA
ATOM      9  C   LIG    1       22.328 -30.894  10.601  0.00  0.00    +0.203 A 
ATOM     10  N   LIG    1       23.347 -30.182  11.183  0.00  0.00    -0.285 N 
ATOM     11  C   LIG    1       22.774 -29.351  12.117  0.00  0.00    +0.169 A 
ATOM     12  N   LIG    1       23.373 -28.460  12.920  0.00  0.00    -0.202 NA
ATOM     13  C   LIG    1       22.518 -27.886  13.784  0.00  0.00    +0.192 A 
ATOM     14  N   LIG    1       21.200 -28.151  13.913  0.00  0.00    -0.205 NA
BRANCH   6  15
ATOM     15  N   LIG    1       19.240 -29.249  13.228  0.00  0.00    -0.326 N 
ATOM     16  H   LIG    1       18.747 -29.004  12.371  0.00  0.00    +0.147 HD
BRANCH  15  17
ATOM     17  C   LIG    1       18.629 -28.783  14.468  0.00  0.00    +0.114 C 
BRANCH  17  18
ATOM     18  C   LIG    1       17.113 -28.630  14.334  0.00  0.00    +0.087 C 
BRANCH  18  20
ATOM     19  C   LIG    1       18.085 -26.049  13.960  0.00  0.00    +0.084 C 
ATOM     20  S   LIG    1       16.539 -26.892  14.386  0.00  0.00    -0.163 S 
ENDBRANCH  18  20
ENDBRANCH  17  18
ENDBRANCH  15  17
ENDBRANCH   6  15
BRANCH  13  21
ATOM     21  S   LIG    1       23.208 -26.657  14.882  0.00  0.00    -0.086 S 
BRANCH  21  22
ATOM     22  C   LIG    1       24.967 -26.927  14.500  0.00  0.00    +0.086 C 
BRANCH  22  23
ATOM     23  C   LIG    1       25.602 -25.708  13.841  0.00  0.00    +0.124 C 
BRANCH  23  24
ATOM     24  C   LIG    1       26.959 -26.063  13.262  0.00  0.00    +0.391 C 
ATOM     25  F   LIG    1       27.621 -26.917  14.077  0.00  0.00    -0.171 F 
ATOM     26  F   LIG    1       27.729 -24.962  13.124  0.00  0.00    -0.171 F 
ATOM     27  F   LIG    1       26.873 -26.651  12.050  0.00  0.00    -0.171 F 
ENDBRANCH  23  24
ENDBRANCH  22  23
ENDBRANCH  21  22
ENDBRANCH  13  21
ENDBRANCH   1  10
BRANCH   3  28
ATOM     28  O   LIG    1       27.447 -31.326   9.869  0.00  0.00    -0.386 OA
ATOM     29  H   LIG    1       27.684 -30.617  10.497  0.00  0.00    +0.210 HD
ENDBRANCH   3  28
BRANCH   2  30
ATOM     30  O   LIG    1       25.326 -32.688  10.356  0.00  0.00    -0.385 OA
ATOM     31  H   LIG    1       25.163 -33.332   9.638  0.00  0.00    +0.210 HD
ENDBRANCH   2  30
BRANCH   4  32
ATOM     32  C   LIG    1       25.686 -28.623   7.967  0.00  0.00    +0.206 C 
BRANCH  32  33
ATOM     33  O   LIG    1       26.236 -27.317   7.824  0.00  0.00    -0.284 OA
BRANCH  33  34
ATOM     34  P   LIG    1       25.894 -26.530   6.446  0.00  0.00    +0.482 P 
ATOM     35  O   LIG    1       26.925 -26.652   5.400  0.00  0.00    -0.227 OA
BRANCH  34  36
ATOM     36  O   LIG    1       24.482 -27.169   6.002  0.00  0.00    -0.302 OA
ATOM     37  H   LIG    1       24.596 -27.770   5.241  0.00  0.00    +0.222 HD
ENDBRANCH  34  36
BRANCH  34  38
ATOM     38  O   LIG    1       25.530 -25.040   6.895  0.00  0.00    -0.206 OA
BRANCH  38  39
ATOM     39  P   LIG    1       24.433 -24.071   6.248  0.00  0.00    +0.386 P 
ATOM     40  O   LIG    1       23.019 -24.453   6.597  0.00  0.00    -0.254 OA
BRANCH  39  41
ATOM     41  C   LIG    1       24.917 -22.344   6.536  0.00  0.00    +0.318 C 
ATOM     42 CL   LIG    1       26.666 -22.278   7.014  0.00  0.00    -0.075 Cl
ATOM     43 CL   LIG    1       23.982 -21.721   7.960  0.00  0.00    -0.075 Cl
BRANCH  41  44
ATOM     44  P   LIG    1       24.685 -21.110   5.218  0.00  0.00    +0.375 P 
ATOM     45  O   LIG    1       25.868 -20.336   4.731  0.00  0.00    -0.255 OA
BRANCH  44  46
ATOM     46  O   LIG    1       24.002 -21.884   3.978  0.00  0.00    -0.322 OA
ATOM     47  H   LIG    1       23.141 -21.516   3.705  0.00  0.00    +0.220 HD
ENDBRANCH  44  46
BRANCH  44  48
ATOM     48  O   LIG    1       23.469 -20.134   5.608  0.00  0.00    -0.322 OA
ATOM     49  H   LIG    1       23.552 -19.233   5.238  0.00  0.00    +0.220 HD
ENDBRANCH  44  48
ENDBRANCH  41  44
ENDBRANCH  39  41
BRANCH  39  50
ATOM     50  O   LIG    1       24.671 -24.371   4.674  0.00  0.00    -0.321 OA
ATOM     51  H   LIG    1       25.557 -24.109   4.354  0.00  0.00    +0.220 HD
ENDBRANCH  39  50
ENDBRANCH  38  39
ENDBRANCH  34  38
ENDBRANCH  33  34
ENDBRANCH  32  33
ENDBRANCH   4  32
TORSDOF 22
ENDMDL
MODEL 4
REMARK VINA RESULT:      -7.2      7.563     11.686
REMARK  Name = *****
REMARK                            x       y       z     vdW  Elec       q    Type
REMARK                         _______ _______ _______ _____ _____    ______ ____
ROOT
ATOM      1  C   LIG    1       24.734 -30.681  10.546  0.00  0.00    +0.253 C 
ATOM      2  C   LIG    1       25.760 -31.500   9.761  0.00  0.00    +0.195 C 
ATOM      3  C   LIG    1       26.876 -30.505   9.502  0.00  0.00    +0.178 C 
ATOM      4  C   LIG    1       26.166 -29.152   9.438  0.00  0.00    +0.178 C 
ATOM      5  O   LIG    1       24.883 -29.310  10.090  0.00  0.00    -0.346 OA
ENDROOT
BRANCH   1  10
ATOM      6  C   LIG    1       19.949 -31.343  11.199  0.00  0.00    +0.151 A 
ATOM      7  C   LIG    1       21.198 -31.444  10.548  0.00  0.00    +0.148 A 
ATOM      8  N   LIG    1       21.627 -32.193   9.470  0.00  0.00    -0.231 NA
ATOM      9  C   LIG    1       22.913 -31.950   9.375  0.00  0.00    +0.203 A 
ATOM     10  N   LIG    1       23.349 -31.084  10.346  0.00  0.00    -0.285 N 
ATOM     11  C   LIG    1       22.246 -30.713  11.078  0.00  0.00    +0.169 A 
ATOM     12  N   LIG    1       22.180 -29.870  12.119  0.00  0.00    -0.202 NA
ATOM     13  C   LIG    1       20.951 -29.814  12.662  0.00  0.00    +0.192 A 
ATOM     14  N   LIG    1       19.866 -30.523  12.280  0.00  0.00    -0.205 NA
BRANCH   6  15
ATOM     15  N   LIG    1       18.791 -32.032  10.838  0.00  0.00    -0.326 N 
ATOM     16  H   LIG    1       18.838 -32.290   9.853  0.00  0.00    +0.147 HD
BRANCH  15  17
ATOM     17  C   LIG    1       17.515 -31.492  11.293  0.00  0.00    +0.114 C 
BRANCH  17  18
ATOM     18  C   LIG    1       16.825 -32.422  12.291  0.00  0.00    +0.087 C 
BRANCH  18  20
ATOM     19  C   LIG    1       16.483 -30.029  13.670  0.00  0.00    +0.084 C 
ATOM     20  S   LIG    1       16.803 -31.780  14.007  0.00  0.00    -0.163 S 
ENDBRANCH  18  20
ENDBRANCH  17  18
ENDBRANCH  15  17
ENDBRANCH   6  15
BRANCH  13  21
ATOM     21  S   LIG    1       20.743 -28.694  14.038  0.00  0.00    -0.086 S 
BRANCH  21  22
ATOM     22  C   LIG    1       22.481 -28.619  14.575  0.00  0.00    +0.086 C 
BRANCH  22  23
ATOM     23  C   LIG    1       22.935 -27.188  14.840  0.00  0.00    +0.124 C 
BRANCH  23  24
ATOM     24  C   LIG    1       23.315 -26.503  13.540  0.00  0.00    +0.391 C 
ATOM     25  F   LIG    1       23.956 -27.360  12.714  0.00  0.00    -0.171 F 
ATOM     26  F   LIG    1       24.149 -25.465  13.768  0.00  0.00    -0.171 F 
ATOM     27  F   LIG    1       22.246 -26.023  12.869  0.00  0.00    -0.171 F 
ENDBRANCH  23  24
ENDBRANCH  22  23
ENDBRANCH  21  22
ENDBRANCH  13  21
ENDBRANCH   1  10
BRANCH   3  28
ATOM     28  O   LIG    1       27.764 -30.559  10.636  0.00  0.00    -0.386 OA
ATOM     29  H   LIG    1       27.806 -31.493  10.916  0.00  0.00    +0.210 HD
ENDBRANCH   3  28
BRANCH   2  30
ATOM     30  O   LIG    1       26.258 -32.633  10.475  0.00  0.00    -0.385 OA
ATOM     31  H   LIG    1       27.191 -32.744  10.202  0.00  0.00    +0.210 HD
ENDBRANCH   2  30
BRANCH   4  32
ATOM     32  C   LIG    1       25.933 -28.607   8.016  0.00  0.00    +0.206 C 
BRANCH  32  33
ATOM     33  O   LIG    1       26.325 -27.244   7.881  0.00  0.00    -0.284 OA
BRANCH  33  34
ATOM     34  P   LIG    1       25.945 -26.514   6.482  0.00  0.00    +0.482 P 
ATOM     35  O   LIG    1       26.973 -26.631   5.433  0.00  0.00    -0.227 OA
BRANCH  34  36
ATOM     36  O   LIG    1       24.554 -27.216   6.068  0.00  0.00    -0.302 OA
ATOM     37  H   LIG    1       23.994 -27.367   6.853  0.00  0.00    +0.222 HD
ENDBRANCH  34  36
BRANCH  34  38
ATOM     38  O   LIG    1       25.530 -25.025   6.888  0.00  0.00    -0.206 OA
BRANCH  38  39
ATOM     39  P   LIG    1       24.389 -24.119   6.225  0.00  0.00    +0.386 P 
ATOM     40  O   LIG    1       22.995 -24.545   6.601  0.00  0.00    -0.254 OA
BRANCH  39  41
ATOM     41  C   LIG    1       24.807 -22.367   6.454  0.00  0.00    +0.318 C 
ATOM     42 CL   LIG    1       26.551 -22.219   6.937  0.00  0.00    -0.075 Cl
ATOM     43 CL   LIG    1       23.843 -21.730   7.852  0.00  0.00    -0.075 Cl
BRANCH  41  44
ATOM     44  P   LIG    1       24.539 -21.188   5.093  0.00  0.00    +0.375 P 
ATOM     45  O   LIG    1       23.718 -19.964   5.344  0.00  0.00    -0.255 OA
BRANCH  44  46
ATOM     46  O   LIG    1       26.001 -20.756   4.564  0.00  0.00    -0.322 OA
ATOM     47  H   LIG    1       26.081 -20.735   3.592  0.00  0.00    +0.220 HD
ENDBRANCH  44  46
BRANCH  44  48
ATOM     48  O   LIG    1       24.023 -21.980   3.794  0.00  0.00    -0.322 OA
ATOM     49  H   LIG    1       24.504 -21.751   2.974  0.00  0.00    +0.220 HD
ENDBRANCH  44  48
ENDBRANCH  41  44
ENDBRANCH  39  41
BRANCH  39  50
ATOM     50  O   LIG    1       24.623 -24.458   4.657  0.00  0.00    -0.321 OA
ATOM     51  H   LIG    1       25.456 -24.937   4.479  0.00  0.00    +0.220 HD
ENDBRANCH  39  50
ENDBRANCH  38  39
ENDBRANCH  34  38
ENDBRANCH  33  34
ENDBRANCH  32  33
ENDBRANCH   4  32
TORSDOF 22
ENDMDL
MODEL 5
REMARK VINA RESULT:      -7.0      2.283      2.970
REMARK  Name = *****
REMARK                            x       y       z     vdW  Elec       q    Type
REMARK                         _______ _______ _______ _____ _____    ______ ____
ROOT
ATOM      1  C   LIG    1       24.999 -21.077   6.601  0.00  0.00    +0.253 C 
ATOM      2  C   LIG    1       25.003 -21.629   5.175  0.00  0.00    +0.195 C 
ATOM      3  C   LIG    1       23.596 -22.173   5.007  0.00  0.00    +0.178 C 
ATOM      4  C   LIG    1       23.183 -22.589   6.419  0.00  0.00    +0.178 C 
ATOM      5  O   LIG    1       24.053 -21.893   7.343  0.00  0.00    -0.346 OA
ENDROOT
BRANCH   1  10
ATOM      6  C   LIG    1       29.715 -20.470   7.674  0.00  0.00    +0.151 A 
ATOM      7  C   LIG    1       28.390 -20.924   7.852  0.00  0.00    +0.148 A 
ATOM      8  N   LIG    1       27.826 -21.826   8.733  0.00  0.00    -0.231 NA
ATOM      9  C   LIG    1       26.569 -21.921   8.367  0.00  0.00    +0.203 A 
ATOM     10  N   LIG    1       26.285 -21.131   7.282  0.00  0.00    -0.285 N 
ATOM     11  C   LIG    1       27.437 -20.448   6.970  0.00  0.00    +0.169 A 
ATOM     12  N   LIG    1       27.636 -19.549   5.995  0.00  0.00    -0.202 NA
ATOM     13  C   LIG    1       28.918 -19.151   5.913  0.00  0.00    +0.192 A 
ATOM     14  N   LIG    1       29.949 -19.587   6.668  0.00  0.00    -0.205 NA
BRANCH   6  15
ATOM     15  N   LIG    1       30.815 -20.869   8.435  0.00  0.00    -0.326 N 
ATOM     16  H   LIG    1       30.520 -21.544   9.138  0.00  0.00    +0.147 HD
BRANCH  15  17
ATOM     17  C   LIG    1       31.727 -19.828   8.897  0.00  0.00    +0.114 C 
BRANCH  17  18
ATOM     18  C   LIG    1       30.988 -18.708   9.631  0.00  0.00    +0.087 C 
BRANCH  18  20
ATOM     19  C   LIG    1       31.587 -16.547  11.280  0.00  0.00    +0.084 C 
ATOM     20  S   LIG    1       31.851 -17.093   9.573  0.00  0.00    -0.163 S 
ENDBRANCH  18  20
ENDBRANCH  17  18
ENDBRANCH  15  17
ENDBRANCH   6  15
BRANCH  13  21
ATOM     21  S   LIG    1       29.288 -17.927   4.666  0.00  0.00    -0.086 S 
BRANCH  21  22
ATOM     22  C   LIG    1       27.586 -17.376   4.330  0.00  0.00    +0.086 C 
BRANCH  22  23
ATOM     23  C   LIG    1       27.498 -15.863   4.165  0.00  0.00    +0.124 C 
BRANCH  23  24
ATOM     24  C   LIG    1       26.219 -15.482   3.444  0.00  0.00    +0.391 C 
ATOM     25  F   LIG    1       26.492 -14.789   2.314  0.00  0.00    -0.171 F 
ATOM     26  F   LIG    1       25.443 -14.694   4.220  0.00  0.00    -0.171 F 
ATOM     27  F   LIG    1       25.478 -16.553   3.087  0.00  0.00    -0.171 F 
ENDBRANCH  23  24
ENDBRANCH  22  23
ENDBRANCH  21  22
ENDBRANCH  13  21
ENDBRANCH   1  10
BRANCH   3  28
ATOM     28  O   LIG    1       22.775 -21.085   4.538  0.00  0.00    -0.386 OA
ATOM     29  H   LIG    1       22.137 -20.887   5.250  0.00  0.00    +0.210 HD
ENDBRANCH   3  28
BRANCH   2  30
ATOM     30  O   LIG    1       25.279 -20.643   4.178  0.00  0.00    -0.385 OA
ATOM     31  H   LIG    1       24.898 -19.804   4.506  0.00  0.00    +0.210 HD
ENDBRANCH   2  30
BRANCH   4  32
ATOM     32  C   LIG    1       23.271 -24.101   6.703  0.00  0.00    +0.206 C 
BRANCH  32  33
ATOM     33  O   LIG    1       24.614 -24.559   6.820  0.00  0.00    -0.284 OA
BRANCH  33  34
ATOM     34  P   LIG    1       25.060 -25.767   5.831  0.00  0.00    +0.482 P 
ATOM     35  O   LIG    1       24.768 -25.528   4.407  0.00  0.00    -0.227 OA
BRANCH  34  36
ATOM     36  O   LIG    1       26.638 -25.916   6.125  0.00  0.00    -0.302 OA
ATOM     37  H   LIG    1       27.143 -25.974   5.292  0.00  0.00    +0.222 HD
ENDBRANCH  34  36
BRANCH  34  38
ATOM     38  O   LIG    1       24.413 -27.084   6.463  0.00  0.00    -0.206 OA
BRANCH  38  39
ATOM     39  P   LIG    1       24.745 -28.605   6.089  0.00  0.00    +0.386 P 
ATOM     40  O   LIG    1       25.736 -28.740   4.963  0.00  0.00    -0.254 OA
BRANCH  39  41
ATOM     41  C   LIG    1       25.092 -29.534   7.610  0.00  0.00    +0.318 C 
ATOM     42 CL   LIG    1       23.573 -29.671   8.594  0.00  0.00    -0.075 Cl
ATOM     43 CL   LIG    1       26.255 -28.570   8.612  0.00  0.00    -0.075 Cl
BRANCH  41  44
ATOM     44  P   LIG    1       25.802 -31.207   7.505  0.00  0.00    +0.375 P 
ATOM     45  O   LIG    1       24.911 -32.389   7.711  0.00  0.00    -0.255 OA
BRANCH  44  46
ATOM     46  O   LIG    1       26.512 -31.315   6.059  0.00  0.00    -0.322 OA
ATOM     47  H   LIG    1       26.719 -32.228   5.786  0.00  0.00    +0.220 HD
ENDBRANCH  44  46
BRANCH  44  48
ATOM     48  O   LIG    1       27.109 -31.291   8.435  0.00  0.00    -0.322 OA
ATOM     49  H   LIG    1       26.936 -31.103   9.379  0.00  0.00    +0.220 HD
ENDBRANCH  44  48
ENDBRANCH  41  44
ENDBRANCH  39  41
BRANCH  39  50
ATOM     50  O   LIG    1       23.295 -29.096   5.557  0.00  0.00    -0.321 OA
ATOM     51  H   LIG    1       23.289 -30.016   5.227  0.00  0.00    +0.220 HD
ENDBRANCH  39  50
ENDBRANCH  38  39
ENDBRANCH  34  38
ENDBRANCH  33  34
ENDBRANCH  32  33
ENDBRANCH   4  32
TORSDOF 22
ENDMDL
MODEL 6
REMARK VINA RESULT:      -6.9      2.517      3.998
REMARK  Name = *****
REMARK                            x       y       z     vdW  Elec       q    Type
REMARK                         _______ _______ _______ _____ _____    ______ ____
ROOT
ATOM      1  C   LIG    1       24.671 -26.070   5.608  0.00  0.00    +0.253 C 
ATOM      2  C   LIG    1       25.768 -26.987   5.066  0.00  0.00    +0.195 C 
ATOM      3  C   LIG    1       25.125 -28.362   5.109  0.00  0.00    +0.178 C 
ATOM      4  C   LIG    1       24.141 -28.281   6.276  0.00  0.00    +0.178 C 
ATOM      5  O   LIG    1       23.892 -26.877   6.531  0.00  0.00    -0.346 OA
ENDROOT
BRANCH   1  10
ATOM      6  C   LIG    1       25.940 -21.488   6.686  0.00  0.00    +0.151 A 
ATOM      7  C   LIG    1       25.763 -22.872   6.902  0.00  0.00    +0.148 A 
ATOM      8  N   LIG    1       26.196 -23.721   7.900  0.00  0.00    -0.231 NA
ATOM      9  C   LIG    1       25.811 -24.918   7.524  0.00  0.00    +0.203 A 
ATOM     10  N   LIG    1       25.153 -24.894   6.320  0.00  0.00    -0.285 N 
ATOM     11  C   LIG    1       25.073 -23.578   5.932  0.00  0.00    +0.169 A 
ATOM     12  N   LIG    1       24.504 -23.065   4.831  0.00  0.00    -0.202 NA
ATOM     13  C   LIG    1       24.698 -21.740   4.718  0.00  0.00    +0.192 A 
ATOM     14  N   LIG    1       25.404 -20.952   5.558  0.00  0.00    -0.205 NA
BRANCH   6  15
ATOM     15  N   LIG    1       26.639 -20.622   7.528  0.00  0.00    -0.326 N 
ATOM     16  H   LIG    1       26.275 -19.676   7.428  0.00  0.00    +0.147 HD
BRANCH  15  17
ATOM     17  C   LIG    1       28.092 -20.744   7.562  0.00  0.00    +0.114 C 
BRANCH  17  18
ATOM     18  C   LIG    1       28.752 -20.020   6.388  0.00  0.00    +0.087 C 
BRANCH  18  20
ATOM     19  C   LIG    1       30.789 -20.234   8.273  0.00  0.00    +0.084 C 
ATOM     20  S   LIG    1       30.371 -19.266   6.799  0.00  0.00    -0.163 S 
ENDBRANCH  18  20
ENDBRANCH  17  18
ENDBRANCH  15  17
ENDBRANCH   6  15
BRANCH  13  21
ATOM     21  S   LIG    1       23.952 -20.948   3.301  0.00  0.00    -0.086 S 
BRANCH  21  22
ATOM     22  C   LIG    1       24.390 -19.228   3.705  0.00  0.00    +0.086 C 
BRANCH  22  23
ATOM     23  C   LIG    1       23.235 -18.268   3.441  0.00  0.00    +0.124 C 
BRANCH  23  24
ATOM     24  C   LIG    1       22.214 -18.345   4.560  0.00  0.00    +0.391 C 
ATOM     25  F   LIG    1       21.022 -18.784   4.095  0.00  0.00    -0.171 F 
ATOM     26  F   LIG    1       22.007 -17.128   5.110  0.00  0.00    -0.171 F 
ATOM     27  F   LIG    1       22.588 -19.178   5.555  0.00  0.00    -0.171 F 
ENDBRANCH  23  24
ENDBRANCH  22  23
ENDBRANCH  21  22
ENDBRANCH  13  21
ENDBRANCH   1  10
BRANCH   3  28
ATOM     28  O   LIG    1       24.422 -28.539   3.864  0.00  0.00    -0.386 OA
ATOM     29  H   LIG    1       24.962 -28.111   3.172  0.00  0.00    +0.210 HD
ENDBRANCH   3  28
BRANCH   2  30
ATOM     30  O   LIG    1       26.178 -26.669   3.735  0.00  0.00    -0.385 OA
ATOM     31  H   LIG    1       27.152 -26.583   3.758  0.00  0.00    +0.210 HD
ENDBRANCH   2  30
BRANCH   4  32
ATOM     32  C   LIG    1       24.625 -28.940   7.582  0.00  0.00    +0.206 C 
BRANCH  32  33
ATOM     33  O   LIG    1       24.037 -30.218   7.801  0.00  0.00    -0.284 OA
BRANCH  33  34
ATOM     34  P   LIG    1       25.048 -31.487   7.847  0.00  0.00    +0.482 P 
ATOM     35  O   LIG    1       24.388 -32.799   7.724  0.00  0.00    -0.227 OA
BRANCH  34  36
ATOM     36  O   LIG    1       26.065 -31.188   6.633  0.00  0.00    -0.302 OA
ATOM     37  H   LIG    1       25.999 -30.257   6.345  0.00  0.00    +0.222 HD
ENDBRANCH  34  36
BRANCH  34  38
ATOM     38  O   LIG    1       25.929 -31.271   9.163  0.00  0.00    -0.206 OA
BRANCH  38  39
ATOM     39  P   LIG    1       25.478 -31.498  10.682  0.00  0.00    +0.386 P 
ATOM     40  O   LIG    1       25.796 -32.876  11.199  0.00  0.00    -0.254 OA
BRANCH  39  41
ATOM     41  C   LIG    1       26.032 -30.091  11.688  0.00  0.00    +0.318 C 
ATOM     42 CL   LIG    1       26.319 -30.643  13.393  0.00  0.00    -0.075 Cl
ATOM     43 CL   LIG    1       24.680 -28.884  11.770  0.00  0.00    -0.075 Cl
BRANCH  41  44
ATOM     44  P   LIG    1       27.505 -29.146  11.187  0.00  0.00    +0.375 P 
ATOM     45  O   LIG    1       28.858 -29.744  11.398  0.00  0.00    -0.255 OA
BRANCH  44  46
ATOM     46  O   LIG    1       27.313 -28.791   9.624  0.00  0.00    -0.322 OA
ATOM     47  H   LIG    1       28.134 -28.518   9.175  0.00  0.00    +0.220 HD
ENDBRANCH  44  46
BRANCH  44  48
ATOM     48  O   LIG    1       27.420 -27.662  11.796  0.00  0.00    -0.322 OA
ATOM     49  H   LIG    1       27.870 -26.985  11.253  0.00  0.00    +0.220 HD
ENDBRANCH  44  48
ENDBRANCH  41  44
ENDBRANCH  39  41
BRANCH  39  50
ATOM     50  O   LIG    1       23.870 -31.365  10.531  0.00  0.00    -0.321 OA
ATOM     51  H   LIG    1       23.385 -31.495  11.370  0.00  0.00    +0.220 HD
ENDBRANCH  39  50
ENDBRANCH  38  39
ENDBRANCH  34  38
ENDBRANCH  33  34
ENDBRANCH  32  33
ENDBRANCH   4  32
TORSDOF 22
ENDMDL
MODEL 7
REMARK VINA RESULT:      -6.8      3.113      4.773
REMARK  Name = *****
REMARK                            x       y       z     vdW  Elec       q    Type
REMARK                         _______ _______ _______ _____ _____    ______ ____
ROOT
ATOM      1  C   LIG    1       24.501 -21.684   6.373  0.00  0.00    +0.253 C 
ATOM      2  C   LIG    1       23.589 -22.556   5.510  0.00  0.00    +0.195 C 
ATOM      3  C   LIG    1       23.499 -23.851   6.296  0.00  0.00    +0.178 C 
ATOM      4  C   LIG    1       24.833 -23.934   7.038  0.00  0.00    +0.178 C 
ATOM      5  O   LIG    1       25.393 -22.598   7.065  0.00  0.00    -0.346 OA
ENDROOT
BRANCH   1  10
ATOM      6  C   LIG    1       28.121 -18.694   5.061  0.00  0.00    +0.151 A 
ATOM      7  C   LIG    1       26.875 -19.349   4.957  0.00  0.00    +0.148 A 
ATOM      8  N   LIG    1       25.790 -19.159   4.124  0.00  0.00    -0.231 NA
ATOM      9  C   LIG    1       24.878 -19.999   4.551  0.00  0.00    +0.203 A 
ATOM     10  N   LIG    1       25.311 -20.726   5.632  0.00  0.00    -0.285 N 
ATOM     11  C   LIG    1       26.611 -20.351   5.874  0.00  0.00    +0.169 A 
ATOM     12  N   LIG    1       27.448 -20.803   6.819  0.00  0.00    -0.202 NA
ATOM     13  C   LIG    1       28.619 -20.143   6.830  0.00  0.00    +0.192 A 
ATOM     14  N   LIG    1       28.972 -19.109   6.036  0.00  0.00    -0.205 NA
BRANCH   6  15
ATOM     15  N   LIG    1       28.548 -17.637   4.256  0.00  0.00    -0.326 N 
ATOM     16  H   LIG    1       29.556 -17.695   4.118  0.00  0.00    +0.147 HD
BRANCH  15  17
ATOM     17  C   LIG    1       28.024 -16.309   4.554  0.00  0.00    +0.114 C 
BRANCH  17  18
ATOM     18  C   LIG    1       27.010 -15.848   3.506  0.00  0.00    +0.087 C 
BRANCH  18  20
ATOM     19  C   LIG    1       25.306 -13.704   3.999  0.00  0.00    +0.084 C 
ATOM     20  S   LIG    1       26.942 -14.030   3.293  0.00  0.00    -0.163 S 
ENDBRANCH  18  20
ENDBRANCH  17  18
ENDBRANCH  15  17
ENDBRANCH   6  15
BRANCH  13  21
ATOM     21  S   LIG    1       29.823 -20.687   8.033  0.00  0.00    -0.086 S 
BRANCH  21  22
ATOM     22  C   LIG    1       31.057 -19.374   7.776  0.00  0.00    +0.086 C 
BRANCH  22  23
ATOM     23  C   LIG    1       31.546 -18.785   9.095  0.00  0.00    +0.124 C 
BRANCH  23  24
ATOM     24  C   LIG    1       30.677 -17.612   9.507  0.00  0.00    +0.391 C 
ATOM     25  F   LIG    1       31.417 -16.487   9.637  0.00  0.00    -0.171 F 
ATOM     26  F   LIG    1       30.085 -17.844  10.700  0.00  0.00    -0.171 F 
ATOM     27  F   LIG    1       29.697 -17.347   8.616  0.00  0.00    -0.171 F 
ENDBRANCH  23  24
ENDBRANCH  22  23
ENDBRANCH  21  22
ENDBRANCH  13  21
ENDBRANCH   1  10
BRANCH   3  28
ATOM     28  O   LIG    1       22.409 -23.707   7.227  0.00  0.00    -0.386 OA
ATOM     29  H   LIG    1       22.618 -22.936   7.788  0.00  0.00    +0.210 HD
ENDBRANCH   3  28
BRANCH   2  30
ATOM     30  O   LIG    1       22.286 -22.003   5.310  0.00  0.00    -0.385 OA
ATOM     31  H   LIG    1       22.233 -21.207   5.876  0.00  0.00    +0.210 HD
ENDBRANCH   2  30
BRANCH   4  32
ATOM     32  C   LIG    1       25.868 -24.888   6.411  0.00  0.00    +0.206 C 
BRANCH  32  33
ATOM     33  O   LIG    1       25.785 -26.209   6.937  0.00  0.00    -0.284 OA
BRANCH  33  34
ATOM     34  P   LIG    1       25.353 -27.380   5.898  0.00  0.00    +0.482 P 
ATOM     35  O   LIG    1       24.194 -27.047   5.051  0.00  0.00    -0.227 OA
BRANCH  34  36
ATOM     36  O   LIG    1       26.697 -27.623   5.043  0.00  0.00    -0.302 OA
ATOM     37  H   LIG    1       27.355 -26.925   5.222  0.00  0.00    +0.222 HD
ENDBRANCH  34  36
BRANCH  34  38
ATOM     38  O   LIG    1       25.208 -28.697   6.792  0.00  0.00    -0.206 OA
BRANCH  38  39
ATOM     39  P   LIG    1       24.842 -30.173   6.293  0.00  0.00    +0.386 P 
ATOM     40  O   LIG    1       25.621 -30.603   5.078  0.00  0.00    -0.254 OA
BRANCH  39  41
ATOM     41  C   LIG    1       24.841 -31.302   7.715  0.00  0.00    +0.318 C 
ATOM     42 CL   LIG    1       24.268 -32.941   7.186  0.00  0.00    -0.075 Cl
ATOM     43 CL   LIG    1       23.618 -30.706   8.914  0.00  0.00    -0.075 Cl
BRANCH  41  44
ATOM     44  P   LIG    1       26.373 -31.562   8.663  0.00  0.00    +0.375 P 
ATOM     45  O   LIG    1       26.321 -32.367   9.922  0.00  0.00    -0.255 OA
BRANCH  44  46
ATOM     46  O   LIG    1       27.436 -32.225   7.646  0.00  0.00    -0.322 OA
ATOM     47  H   LIG    1       27.612 -31.689   6.851  0.00  0.00    +0.220 HD
ENDBRANCH  44  46
BRANCH  44  48
ATOM     48  O   LIG    1       27.099 -30.149   8.903  0.00  0.00    -0.322 OA
ATOM     49  H   LIG    1       26.665 -29.399   8.450  0.00  0.00    +0.220 HD
ENDBRANCH  44  48
ENDBRANCH  41  44
ENDBRANCH  39  41
BRANCH  39  50
ATOM     50  O   LIG    1       23.295 -29.960   5.860  0.00  0.00    -0.321 OA
ATOM     51  H   LIG    1       22.956 -30.652   5.260  0.00  0.00    +0.220 HD
ENDBRANCH  39  50
ENDBRANCH  38  39
ENDBRANCH  34  38
ENDBRANCH  33  34
ENDBRANCH  32  33
ENDBRANCH   4  32
TORSDOF 22
ENDMDL
MODEL 8
REMARK VINA RESULT:      -6.7      7.220     11.226
REMARK  Name = *****
REMARK                            x       y       z     vdW  Elec       q    Type
REMARK                         _______ _______ _______ _____ _____    ______ ____
ROOT
ATOM      1  C   LIG    1       24.641 -31.409   7.813  0.00  0.00    +0.253 C 
ATOM      2  C   LIG    1       24.207 -31.692   6.374  0.00  0.00    +0.195 C 
ATOM      3  C   LIG    1       24.974 -30.659   5.569  0.00  0.00    +0.178 C 
ATOM      4  C   LIG    1       25.139 -29.481   6.529  0.00  0.00    +0.178 C 
ATOM      5  O   LIG    1       24.938 -29.988   7.871  0.00  0.00    -0.346 OA
ENDROOT
BRANCH   1  10
ATOM      6  C   LIG    1       22.158 -31.511  12.007  0.00  0.00    +0.151 A 
ATOM      7  C   LIG    1       22.455 -31.833  10.664  0.00  0.00    +0.148 A 
ATOM      8  N   LIG    1       21.949 -32.785   9.802  0.00  0.00    -0.231 NA
ATOM      9  C   LIG    1       22.674 -32.681   8.713  0.00  0.00    +0.203 A 
ATOM     10  N   LIG    1       23.638 -31.710   8.825  0.00  0.00    -0.285 N 
ATOM     11  C   LIG    1       23.476 -31.124  10.058  0.00  0.00    +0.169 A 
ATOM     12  N   LIG    1       24.177 -30.119  10.602  0.00  0.00    -0.202 NA
ATOM     13  C   LIG    1       23.812 -29.861  11.870  0.00  0.00    +0.192 A 
ATOM     14  N   LIG    1       22.880 -30.520  12.593  0.00  0.00    -0.205 NA
BRANCH   6  15
ATOM     15  N   LIG    1       21.193 -32.142  12.794  0.00  0.00    -0.326 N 
ATOM     16  H   LIG    1       20.689 -32.829  12.236  0.00  0.00    +0.147 HD
BRANCH  15  17
ATOM     17  C   LIG    1       20.373 -31.300  13.658  0.00  0.00    +0.114 C 
BRANCH  17  18
ATOM     18  C   LIG    1       18.931 -31.204  13.157  0.00  0.00    +0.087 C 
BRANCH  18  20
ATOM     19  C   LIG    1       16.298 -30.321  13.340  0.00  0.00    +0.084 C 
ATOM     20  S   LIG    1       17.931 -29.939  14.025  0.00  0.00    -0.163 S 
ENDBRANCH  18  20
ENDBRANCH  17  18
ENDBRANCH  15  17
ENDBRANCH   6  15
BRANCH  13  21
ATOM     21  S   LIG    1       24.662 -28.516  12.681  0.00  0.00    -0.086 S 
BRANCH  21  22
ATOM     22  C   LIG    1       23.310 -27.977  13.774  0.00  0.00    +0.086 C 
BRANCH  22  23
ATOM     23  C   LIG    1       22.480 -26.861  13.148  0.00  0.00    +0.124 C 
BRANCH  23  24
ATOM     24  C   LIG    1       21.018 -27.260  13.085  0.00  0.00    +0.391 C 
ATOM     25  F   LIG    1       20.837 -28.294  12.232  0.00  0.00    -0.171 F 
ATOM     26  F   LIG    1       20.256 -26.235  12.641  0.00  0.00    -0.171 F 
ATOM     27  F   LIG    1       20.525 -27.638  14.284  0.00  0.00    -0.171 F 
ENDBRANCH  23  24
ENDBRANCH  22  23
ENDBRANCH  21  22
ENDBRANCH  13  21
ENDBRANCH   1  10
BRANCH   3  28
ATOM     28  O   LIG    1       26.256 -31.236   5.251  0.00  0.00    -0.386 OA
ATOM     29  H   LIG    1       26.637 -30.697   4.532  0.00  0.00    +0.210 HD
ENDBRANCH   3  28
BRANCH   2  30
ATOM     30  O   LIG    1       24.526 -33.011   5.926  0.00  0.00    -0.385 OA
ATOM     31  H   LIG    1       25.474 -33.150   6.126  0.00  0.00    +0.210 HD
ENDBRANCH   2  30
BRANCH   4  32
ATOM     32  C   LIG    1       24.165 -28.310   6.295  0.00  0.00    +0.206 C 
BRANCH  32  33
ATOM     33  O   LIG    1       24.812 -27.155   5.770  0.00  0.00    -0.284 OA
BRANCH  33  34
ATOM     34  P   LIG    1       26.053 -26.561   6.633  0.00  0.00    +0.482 P 
ATOM     35  O   LIG    1       26.283 -27.242   7.920  0.00  0.00    -0.227 OA
BRANCH  34  36
ATOM     36  O   LIG    1       27.301 -26.704   5.624  0.00  0.00    -0.302 OA
ATOM     37  H   LIG    1       27.617 -25.827   5.335  0.00  0.00    +0.222 HD
ENDBRANCH  34  36
BRANCH  34  38
ATOM     38  O   LIG    1       25.788 -24.987   6.715  0.00  0.00    -0.206 OA
BRANCH  38  39
ATOM     39  P   LIG    1       24.533 -24.182   6.135  0.00  0.00    +0.386 P 
ATOM     40  O   LIG    1       23.207 -24.747   6.572  0.00  0.00    -0.254 OA
BRANCH  39  41
ATOM     41  C   LIG    1       24.795 -22.403   6.386  0.00  0.00    +0.318 C 
ATOM     42 CL   LIG    1       26.504 -22.114   6.926  0.00  0.00    -0.075 Cl
ATOM     43 CL   LIG    1       23.737 -21.860   7.756  0.00  0.00    -0.075 Cl
BRANCH  41  44
ATOM     44  P   LIG    1       24.471 -21.240   5.024  0.00  0.00    +0.375 P 
ATOM     45  O   LIG    1       23.610 -20.045   5.278  0.00  0.00    -0.255 OA
BRANCH  44  46
ATOM     46  O   LIG    1       25.912 -20.759   4.478  0.00  0.00    -0.322 OA
ATOM     47  H   LIG    1       26.277 -19.987   4.949  0.00  0.00    +0.220 HD
ENDBRANCH  44  46
BRANCH  44  48
ATOM     48  O   LIG    1       23.971 -22.056   3.733  0.00  0.00    -0.322 OA
ATOM     49  H   LIG    1       24.694 -22.332   3.135  0.00  0.00    +0.220 HD
ENDBRANCH  44  48
ENDBRANCH  41  44
ENDBRANCH  39  41
BRANCH  39  50
ATOM     50  O   LIG    1       24.713 -24.465   4.550  0.00  0.00    -0.321 OA
ATOM     51  H   LIG    1       24.732 -25.415   4.320  0.00  0.00    +0.220 HD
ENDBRANCH  39  50
ENDBRANCH  38  39
ENDBRANCH  34  38
ENDBRANCH  33  34
ENDBRANCH  32  33
ENDBRANCH   4  32
TORSDOF 22
ENDMDL
MODEL 9
REMARK VINA RESULT:      -6.6      6.792     10.407
REMARK  Name = *****
REMARK                            x       y       z     vdW  Elec       q    Type
REMARK                         _______ _______ _______ _____ _____    ______ ____
ROOT
ATOM      1  C   LIG    1       24.990 -30.100   8.164  0.00  0.00    +0.253 C 
ATOM      2  C   LIG    1       24.439 -30.855   6.953  0.00  0.00    +0.195 C 
ATOM      3  C   LIG    1       25.023 -30.095   5.776  0.00  0.00    +0.178 C 
ATOM      4  C   LIG    1       25.175 -28.663   6.289  0.00  0.00    +0.178 C 
ATOM      5  O   LIG    1       25.159 -28.723   7.736  0.00  0.00    -0.346 OA
ENDROOT
BRANCH   1  10
ATOM      6  C   LIG    1       23.391 -29.798  12.760  0.00  0.00    +0.151 A 
ATOM      7  C   LIG    1       23.308 -30.014  11.367  0.00  0.00    +0.148 A 
ATOM      8  N   LIG    1       22.318 -30.546  10.565  0.00  0.00    -0.231 NA
ATOM      9  C   LIG    1       22.837 -30.586   9.360  0.00  0.00    +0.203 A 
ATOM     10  N   LIG    1       24.126 -30.114   9.337  0.00  0.00    -0.285 N 
ATOM     11  C   LIG    1       24.424 -29.698  10.613  0.00  0.00    +0.169 A 
ATOM     12  N   LIG    1       25.561 -29.151  11.068  0.00  0.00    -0.202 NA
ATOM     13  C   LIG    1       25.544 -28.955  12.398  0.00  0.00    +0.192 A 
ATOM     14  N   LIG    1       24.547 -29.279  13.250  0.00  0.00    -0.205 NA
BRANCH   6  15
ATOM     15  N   LIG    1       22.387 -30.093  13.684  0.00  0.00    -0.326 N 
ATOM     16  H   LIG    1       22.279 -31.103  13.764  0.00  0.00    +0.147 HD
BRANCH  15  17
ATOM     17  C   LIG    1       21.149 -29.326  13.601  0.00  0.00    +0.114 C 
BRANCH  17  18
ATOM     18  C   LIG    1       21.334 -27.890  14.093  0.00  0.00    +0.087 C 
BRANCH  18  20
ATOM     19  C   LIG    1       18.995 -26.392  13.908  0.00  0.00    +0.084 C 
ATOM     20  S   LIG    1       19.963 -27.289  15.149  0.00  0.00    -0.163 S 
ENDBRANCH  18  20
ENDBRANCH  17  18
ENDBRANCH  15  17
ENDBRANCH   6  15
BRANCH  13  21
ATOM     21  S   LIG    1       27.000 -28.200  13.106  0.00  0.00    -0.086 S 
BRANCH  21  22
ATOM     22  C   LIG    1       26.736 -26.506  12.493  0.00  0.00    +0.086 C 
BRANCH  22  23
ATOM     23  C   LIG    1       26.667 -25.493  13.630  0.00  0.00    +0.124 C 
BRANCH  23  24
ATOM     24  C   LIG    1       25.224 -25.154  13.952  0.00  0.00    +0.391 C 
ATOM     25  F   LIG    1       24.376 -25.915  13.223  0.00  0.00    -0.171 F 
ATOM     26  F   LIG    1       24.954 -23.862  13.663  0.00  0.00    -0.171 F 
ATOM     27  F   LIG    1       24.918 -25.348  15.253  0.00  0.00    -0.171 F 
ENDBRANCH  23  24
ENDBRANCH  22  23
ENDBRANCH  21  22
ENDBRANCH  13  21
ENDBRANCH   1  10
BRANCH   3  28
ATOM     28  O   LIG    1       26.312 -30.674   5.496  0.00  0.00    -0.386 OA
ATOM     29  H   LIG    1       26.907 -29.936   5.261  0.00  0.00    +0.210 HD
ENDBRANCH   3  28
BRANCH   2  30
ATOM     30  O   LIG    1       24.831 -32.228   6.904  0.00  0.00    -0.385 OA
ATOM     31  H   LIG    1       25.782 -32.253   7.131  0.00  0.00    +0.210 HD
ENDBRANCH   2  30
BRANCH   4  32
ATOM     32  C   LIG    1       24.079 -27.685   5.824  0.00  0.00    +0.206 C 
BRANCH  32  33
ATOM     33  O   LIG    1       24.287 -26.361   6.305  0.00  0.00    -0.284 OA
BRANCH  33  34
ATOM     34  P   LIG    1       25.385 -25.464   5.516  0.00  0.00    +0.482 P 
ATOM     35  O   LIG    1       26.728 -25.470   6.122  0.00  0.00    -0.227 OA
BRANCH  34  36
ATOM     36  O   LIG    1       25.371 -26.092   4.031  0.00  0.00    -0.302 OA
ATOM     37  H   LIG    1       24.490 -25.996   3.622  0.00  0.00    +0.222 HD
ENDBRANCH  34  36
BRANCH  34  38
ATOM     38  O   LIG    1       24.704 -24.028   5.344  0.00  0.00    -0.206 OA
BRANCH  38  39
ATOM     39  P   LIG    1       23.974 -23.158   6.472  0.00  0.00    +0.386 P 
ATOM     40  O   LIG    1       24.780 -23.022   7.736  0.00  0.00    -0.254 OA
BRANCH  39  41
ATOM     41  C   LIG    1       23.339 -21.627   5.729  0.00  0.00    +0.318 C 
ATOM     42 CL   LIG    1       23.276 -20.324   6.991  0.00  0.00    -0.075 Cl
ATOM     43 CL   LIG    1       21.622 -21.913   5.217  0.00  0.00    -0.075 Cl
BRANCH  41  44
ATOM     44  P   LIG    1       24.173 -20.913   4.277  0.00  0.00    +0.375 P 
ATOM     45  O   LIG    1       23.873 -19.502   3.888  0.00  0.00    -0.255 OA
BRANCH  44  46
ATOM     46  O   LIG    1       25.758 -21.075   4.533  0.00  0.00    -0.322 OA
ATOM     47  H   LIG    1       25.992 -21.822   5.114  0.00  0.00    +0.220 HD
ENDBRANCH  44  46
BRANCH  44  48
ATOM     48  O   LIG    1       24.015 -21.910   3.027  0.00  0.00    -0.322 OA
ATOM     49  H   LIG    1       23.152 -22.369   2.993  0.00  0.00    +0.220 HD
ENDBRANCH  44  48
ENDBRANCH  41  44
ENDBRANCH  39  41
BRANCH  39  50
ATOM     50  O   LIG    1       22.691 -24.099   6.780  0.00  0.00    -0.321 OA
ATOM     51  H   LIG    1       22.288 -23.939   7.656  0.00  0.00    +0.220 HD
ENDBRANCH  39  50
ENDBRANCH  38  39
ENDBRANCH  34  38
ENDBRANCH  33  34
ENDBRANCH  32  33
ENDBRANCH   4  32
TORSDOF 22
ENDMDL
