MODEL 1
REMARK VINA RESULT:      15.5      0.000      0.000
REMARK  Name = *****
REMARK                            x       y       z     vdW  Elec       q    Type
REMARK                         _______ _______ _______ _____ _____    ______ ____
ROOT
ATOM      1  C   LIG    1       26.862 -19.588   5.008  0.00  0.00    +0.021 C 
ATOM      2  C   LIG    1       27.799 -20.728   4.471  0.00  0.00    +0.016 C 
ATOM      3  C   LIG    1       29.242 -20.705   4.963  0.00  0.00    +0.001 C 
ATOM      4  C   LIG    1       29.333 -20.663   6.476  0.00  0.00    +0.000 C 
ATOM      5  C   LIG    1       28.475 -19.551   7.056  0.00  0.00    +0.001 C 
ATOM      6  C   LIG    1       27.022 -19.646   6.577  0.00  0.00    +0.016 C 
ENDROOT
BRANCH   1  10
ATOM      7  C   LIG    1       27.850 -15.531   3.524  0.00  0.00    +0.122 A 
ATOM      8  C   LIG    1       28.566 -16.129   4.551  0.00  0.00    +0.046 A 
ATOM      9  C   LIG    1       28.277 -17.425   4.996  0.00  0.00    +0.008 A 
ATOM     10  C   LIG    1       27.234 -18.184   4.447  0.00  0.00    -0.037 A 
ATOM     11  C   LIG    1       26.536 -17.581   3.383  0.00  0.00    +0.008 A 
ATOM     12  C   LIG    1       26.871 -16.297   2.893  0.00  0.00    +0.046 A 
BRANCH   7  13
ATOM     13  O   LIG    1       28.020 -14.229   3.105  0.00  0.00    -0.475 OA
BRANCH  13  14
ATOM     14  C   LIG    1       27.368 -13.155   3.840  0.00  0.00    +0.203 C 
ATOM     15  C   LIG    1       27.378 -11.915   2.913  0.00  0.00    +0.068 C 
BRANCH  14  17
ATOM     16  C   LIG    1       29.158 -11.634   5.011  0.00  0.00    +0.008 C 
ATOM     17  C   LIG    1       28.151 -12.776   5.130  0.00  0.00    +0.056 C 
ENDBRANCH  14  17
BRANCH  14  18
ATOM     18  C   LIG    1       25.853 -13.474   4.056  0.00  0.00    +0.349 C 
ATOM     19  O   LIG    1       25.328 -13.638   5.149  0.00  0.00    -0.246 OA
BRANCH  18  20
ATOM     20  O   LIG    1       25.130 -13.529   2.920  0.00  0.00    -0.478 OA
ATOM     21  H   LIG    1       24.427 -14.181   2.983  0.00  0.00    +0.295 HD
ENDBRANCH  18  20
ENDBRANCH  14  18
ENDBRANCH  13  14
ENDBRANCH   7  13
ENDBRANCH   1  10
BRANCH   1  22
ATOM     22  C   LIG    1       25.393 -19.956   4.596  0.00  0.00    -0.037 A 
ATOM     23  C   LIG    1       24.717 -19.272   3.579  0.00  0.00    +0.008 A 
ATOM     24  C   LIG    1       23.367 -19.533   3.290  0.00  0.00    +0.046 A 
ATOM     25  C   LIG    1       22.644 -20.518   3.959  0.00  0.00    +0.122 A 
ATOM     26  C   LIG    1       23.311 -21.248   4.940  0.00  0.00    +0.046 A 
ATOM     27  C   LIG    1       24.657 -20.965   5.254  0.00  0.00    +0.008 A 
BRANCH  25  28
ATOM     28  O   LIG    1       21.350 -20.892   3.690  0.00  0.00    -0.475 OA
BRANCH  28  29
ATOM     29  C   LIG    1       20.247 -20.000   3.959  0.00  0.00    +0.203 C 
ATOM     30  C   LIG    1       19.356 -20.571   5.070  0.00  0.00    +0.068 C 
BRANCH  29  31
ATOM     31  C   LIG    1       20.626 -18.538   4.230  0.00  0.00    +0.349 C 
ATOM     32  O   LIG    1       21.787 -18.134   4.477  0.00  0.00    -0.246 OA
BRANCH  31  33
ATOM     33  O   LIG    1       19.595 -17.667   4.159  0.00  0.00    -0.478 OA
ATOM     34  H   LIG    1       19.073 -17.640   5.007  0.00  0.00    +0.295 HD
ENDBRANCH  31  33
ENDBRANCH  29  31
BRANCH  29  35
ATOM     35  C   LIG    1       19.386 -19.887   2.658  0.00  0.00    +0.056 C 
ATOM     36  C   LIG    1       19.353 -18.515   1.991  0.00  0.00    +0.008 C 
ENDBRANCH  29  35
ENDBRANCH  28  29
ENDBRANCH  25  28
ENDBRANCH   1  22
TORSDOF 12
ENDMDL
