MODEL 1
REMARK VINA RESULT:      -2.5      0.000      0.000
REMARK  Name = *****
REMARK                            x       y       z     vdW  Elec       q    Type
REMARK                         _______ _______ _______ _____ _____    ______ ____
ROOT
ATOM      1  C   LIG    1       23.117 -21.312   7.062  0.00  0.00    +0.138 C 
ATOM      2  N   LIG    1       23.673 -20.884   5.783  0.00  0.00    -0.272 N 
ATOM      3  C   LIG    1       22.876 -21.093   4.660  0.00  0.00    +0.228 C 
ATOM      4  O   LIG    1       21.741 -21.567   4.729  0.00  0.00    -0.275 OA
ATOM      5  C   LIG    1       23.492 -20.787   3.335  0.00  0.00    +0.193 C 
ATOM      6  C   LIG    1       23.654 -19.308   3.193  0.00  0.00    +0.233 C 
ATOM      7  O   LIG    1       22.873 -18.690   2.467  0.00  0.00    -0.274 OA
ATOM      8  N   LIG    1       24.708 -18.740   3.916  0.00  0.00    -0.238 N 
ATOM      9  C   LIG    1       25.540 -19.499   4.819  0.00  0.00    +0.064 A 
ATOM     10  C   LIG    1       26.929 -19.223   4.820  0.00  0.00    +0.045 A 
ATOM     11  C   LIG    1       27.798 -19.846   5.711  0.00  0.00    +0.043 A 
ATOM     12 CL   LIG    1       29.475 -19.472   5.683  0.00  0.00    -0.084 Cl
ATOM     13  C   LIG    1       27.310 -20.766   6.623  0.00  0.00    +0.022 A 
ATOM     14  C   LIG    1       25.949 -21.078   6.624  0.00  0.00    +0.027 A 
ATOM     15  C   LIG    1       25.046 -20.481   5.717  0.00  0.00    +0.058 A 
ENDROOT
BRANCH   8  16
ATOM     16  C   LIG    1       24.995 -17.329   3.784  0.00  0.00    +0.041 A 
ATOM     17  C   LIG    1       24.019 -16.360   4.090  0.00  0.00    +0.024 A 
ATOM     18  C   LIG    1       24.290 -14.994   3.964  0.00  0.00    +0.002 A 
ATOM     19  C   LIG    1       25.538 -14.570   3.521  0.00  0.00    +0.000 A 
ATOM     20  C   LIG    1       26.512 -15.509   3.199  0.00  0.00    +0.002 A 
ATOM     21  C   LIG    1       26.241 -16.876   3.326  0.00  0.00    +0.024 A 
ENDBRANCH   8  16
TORSDOF 1
ENDMDL
