MODEL 1
REMARK VINA RESULT:      -5.5      0.000      0.000
REMARK  Name = *****
REMARK                            x       y       z     vdW  Elec       q    Type
REMARK                         _______ _______ _______ _____ _____    ______ ____
ROOT
ATOM      1  C   LIG    1       23.536 -19.741   4.175  0.00  0.00    +0.084 C 
ATOM      2  C   LIG    1       24.306 -20.133   2.912  0.00  0.00    +0.027 C 
ENDROOT
BRANCH   1   3
ATOM      3  N   LIG    1       23.678 -18.285   4.465  0.00  0.00    -0.305 NA
ATOM      4  H   LIG    1       24.260 -18.192   5.301  0.00  0.00    +0.123 HD
BRANCH   3   6
ATOM      5  C   LIG    1       21.255 -18.301   3.967  0.00  0.00    +0.027 C 
ATOM      6  C   LIG    1       22.406 -17.538   4.648  0.00  0.00    +0.088 C 
BRANCH   6   7
ATOM      7  C   LIG    1       22.450 -16.097   4.097  0.00  0.00    +0.247 C 
BRANCH   7   8
ATOM      8  O   LIG    1       23.432 -15.291   4.781  0.00  0.00    -0.490 OA
BRANCH   8   9
ATOM      9  C   LIG    1       24.250 -14.584   3.936  0.00  0.00    +0.121 A 
ATOM     10  C   LIG    1       25.518 -15.097   3.662  0.00  0.00    +0.045 A 
ATOM     11  C   LIG    1       26.416 -14.346   2.886  0.00  0.00    +0.004 A 
ATOM     12  C   LIG    1       26.034 -13.098   2.372  0.00  0.00    +0.000 A 
ATOM     13  C   LIG    1       24.756 -12.621   2.602  0.00  0.00    +0.004 A 
ATOM     14  C   LIG    1       23.868 -13.362   3.363  0.00  0.00    +0.045 A 
ENDBRANCH   8   9
ENDBRANCH   7   8
ENDBRANCH   6   7
ENDBRANCH   3   6
ENDBRANCH   1   3
BRANCH   1  15
ATOM     15  C   LIG    1       23.954 -20.682   5.365  0.00  0.00    +0.161 C 
BRANCH  15  16
ATOM     16  C   LIG    1       25.435 -20.712   5.711  0.00  0.00    -0.018 A 
ATOM     17  C   LIG    1       26.328 -19.841   5.068  0.00  0.00    +0.010 A 
ATOM     18  C   LIG    1       27.676 -19.795   5.429  0.00  0.00    +0.046 A 
ATOM     19  C   LIG    1       28.142 -20.629   6.440  0.00  0.00    +0.117 A 
ATOM     20  C   LIG    1       27.291 -21.528   7.061  0.00  0.00    +0.046 A 
ATOM     21  C   LIG    1       25.942 -21.572   6.702  0.00  0.00    +0.010 A 
BRANCH  19  22
ATOM     22  O   LIG    1       29.451 -20.521   6.808  0.00  0.00    -0.507 OA
ATOM     23  H   LIG    1       29.904 -21.345   6.563  0.00  0.00    +0.292 HD
ENDBRANCH  19  22
ENDBRANCH  15  16
BRANCH  15  24
ATOM     24  O   LIG    1       23.149 -20.365   6.510  0.00  0.00    -0.386 OA
ATOM     25  H   LIG    1       23.485 -19.533   6.884  0.00  0.00    +0.210 HD
ENDBRANCH  15  24
ENDBRANCH   1  15
TORSDOF 9
ENDMDL
MODEL 2
REMARK VINA RESULT:      -5.5      1.374      2.223
REMARK  Name = *****
REMARK                            x       y       z     vdW  Elec       q    Type
REMARK                         _______ _______ _______ _____ _____    ______ ____
ROOT
ATOM      1  C   LIG    1       22.327 -18.589   4.429  0.00  0.00    +0.084 C 
ATOM      2  C   LIG    1       20.971 -18.615   3.719  0.00  0.00    +0.027 C 
ENDROOT
BRANCH   1   3
ATOM      3  N   LIG    1       23.204 -17.514   3.879  0.00  0.00    -0.305 NA
ATOM      4  H   LIG    1       24.149 -17.898   3.799  0.00  0.00    +0.123 HD
BRANCH   3   6
ATOM      5  C   LIG    1       21.957 -16.131   5.509  0.00  0.00    +0.027 C 
ATOM      6  C   LIG    1       23.235 -16.249   4.657  0.00  0.00    +0.088 C 
BRANCH   6   7
ATOM      7  C   LIG    1       23.372 -14.986   3.780  0.00  0.00    +0.247 C 
BRANCH   7   8
ATOM      8  O   LIG    1       23.983 -13.896   4.501  0.00  0.00    -0.490 OA
BRANCH   8   9
ATOM      9  C   LIG    1       25.325 -13.751   4.249  0.00  0.00    +0.121 A 
ATOM     10  C   LIG    1       25.796 -14.072   2.975  0.00  0.00    +0.045 A 
ATOM     11  C   LIG    1       27.175 -14.034   2.717  0.00  0.00    +0.004 A 
ATOM     12  C   LIG    1       28.073 -13.656   3.726  0.00  0.00    +0.000 A 
ATOM     13  C   LIG    1       27.594 -13.287   4.970  0.00  0.00    +0.004 A 
ATOM     14  C   LIG    1       26.234 -13.319   5.225  0.00  0.00    +0.045 A 
ENDBRANCH   8   9
ENDBRANCH   7   8
ENDBRANCH   6   7
ENDBRANCH   3   6
ENDBRANCH   1   3
BRANCH   1  15
ATOM     15  C   LIG    1       22.969 -20.025   4.401  0.00  0.00    +0.161 C 
BRANCH  15  16
ATOM     16  C   LIG    1       24.297 -20.183   5.124  0.00  0.00    -0.018 A 
ATOM     17  C   LIG    1       24.337 -20.738   6.413  0.00  0.00    +0.010 A 
ATOM     18  C   LIG    1       25.552 -20.969   7.062  0.00  0.00    +0.046 A 
ATOM     19  C   LIG    1       26.743 -20.638   6.421  0.00  0.00    +0.117 A 
ATOM     20  C   LIG    1       26.729 -20.050   5.167  0.00  0.00    +0.046 A 
ATOM     21  C   LIG    1       25.513 -19.823   4.517  0.00  0.00    +0.010 A 
BRANCH  19  22
ATOM     22  O   LIG    1       27.914 -20.926   7.056  0.00  0.00    -0.507 OA
ATOM     23  H   LIG    1       28.607 -21.027   6.384  0.00  0.00    +0.292 HD
ENDBRANCH  19  22
ENDBRANCH  15  16
BRANCH  15  24
ATOM     24  O   LIG    1       21.997 -20.975   4.863  0.00  0.00    -0.386 OA
ATOM     25  H   LIG    1       21.564 -20.595   5.646  0.00  0.00    +0.210 HD
ENDBRANCH  15  24
ENDBRANCH   1  15
TORSDOF 9
ENDMDL
MODEL 3
REMARK VINA RESULT:      -5.0      1.280      1.798
REMARK  Name = *****
REMARK                            x       y       z     vdW  Elec       q    Type
REMARK                         _______ _______ _______ _____ _____    ______ ____
ROOT
ATOM      1  C   LIG    1       23.149 -20.069   5.225  0.00  0.00    +0.084 C 
ATOM      2  C   LIG    1       22.791 -21.330   6.013  0.00  0.00    +0.027 C 
ENDROOT
BRANCH   1   3
ATOM      3  N   LIG    1       21.984 -19.577   4.433  0.00  0.00    -0.305 NA
ATOM      4  H   LIG    1       22.117 -19.882   3.466  0.00  0.00    +0.123 HD
BRANCH   3   6
ATOM      5  C   LIG    1       20.753 -17.711   3.372  0.00  0.00    +0.027 C 
ATOM      6  C   LIG    1       21.752 -18.109   4.474  0.00  0.00    +0.088 C 
BRANCH   6   7
ATOM      7  C   LIG    1       23.040 -17.275   4.310  0.00  0.00    +0.247 C 
BRANCH   7   8
ATOM      8  O   LIG    1       22.754 -15.866   4.185  0.00  0.00    -0.490 OA
BRANCH   8   9
ATOM      9  C   LIG    1       23.875 -15.083   4.071  0.00  0.00    +0.121 A 
ATOM     10  C   LIG    1       25.032 -15.659   3.544  0.00  0.00    +0.045 A 
ATOM     11  C   LIG    1       26.223 -14.916   3.511  0.00  0.00    +0.004 A 
ATOM     12  C   LIG    1       26.245 -13.595   3.984  0.00  0.00    +0.000 A 
ATOM     13  C   LIG    1       25.081 -13.013   4.454  0.00  0.00    +0.004 A 
ATOM     14  C   LIG    1       23.906 -13.743   4.483  0.00  0.00    +0.045 A 
ENDBRANCH   8   9
ENDBRANCH   7   8
ENDBRANCH   6   7
ENDBRANCH   3   6
ENDBRANCH   1   3
BRANCH   1  15
ATOM     15  C   LIG    1       24.448 -20.325   4.374  0.00  0.00    +0.161 C 
BRANCH  15  16
ATOM     16  C   LIG    1       25.770 -20.246   5.121  0.00  0.00    -0.018 A 
ATOM     17  C   LIG    1       25.969 -21.005   6.285  0.00  0.00    +0.010 A 
ATOM     18  C   LIG    1       27.202 -21.011   6.940  0.00  0.00    +0.046 A 
ATOM     19  C   LIG    1       28.249 -20.248   6.433  0.00  0.00    +0.117 A 
ATOM     20  C   LIG    1       28.066 -19.456   5.311  0.00  0.00    +0.046 A 
ATOM     21  C   LIG    1       26.833 -19.453   4.654  0.00  0.00    +0.010 A 
BRANCH  19  22
ATOM     22  O   LIG    1       29.457 -20.318   7.061  0.00  0.00    -0.507 OA
ATOM     23  H   LIG    1       29.455 -21.100   7.637  0.00  0.00    +0.292 HD
ENDBRANCH  19  22
ENDBRANCH  15  16
BRANCH  15  24
ATOM     24  O   LIG    1       24.306 -21.572   3.678  0.00  0.00    -0.386 OA
ATOM     25  H   LIG    1       25.180 -21.997   3.658  0.00  0.00    +0.210 HD
ENDBRANCH  15  24
ENDBRANCH   1  15
TORSDOF 9
ENDMDL
MODEL 4
REMARK VINA RESULT:      -4.3      2.177      3.980
REMARK  Name = *****
REMARK                            x       y       z     vdW  Elec       q    Type
REMARK                         _______ _______ _______ _____ _____    ______ ____
ROOT
ATOM      1  C   LIG    1       27.750 -19.591   5.119  0.00  0.00    +0.084 C 
ATOM      2  C   LIG    1       29.185 -20.074   5.340  0.00  0.00    +0.027 C 
ENDROOT
BRANCH   1   3
ATOM      3  N   LIG    1       27.705 -18.119   4.881  0.00  0.00    -0.305 NA
ATOM      4  H   LIG    1       27.709 -17.658   5.794  0.00  0.00    +0.123 HD
BRANCH   3   6
ATOM      5  C   LIG    1       26.106 -18.735   3.095  0.00  0.00    +0.027 C 
ATOM      6  C   LIG    1       26.556 -17.633   4.072  0.00  0.00    +0.088 C 
BRANCH   6   7
ATOM      7  C   LIG    1       26.860 -16.348   3.275  0.00  0.00    +0.247 C 
BRANCH   7   8
ATOM      8  O   LIG    1       26.895 -15.184   4.127  0.00  0.00    -0.490 OA
BRANCH   8   9
ATOM      9  C   LIG    1       26.026 -14.193   3.743  0.00  0.00    +0.121 A 
ATOM     10  C   LIG    1       25.181 -13.646   4.708  0.00  0.00    +0.045 A 
ATOM     11  C   LIG    1       24.209 -12.707   4.327  0.00  0.00    +0.004 A 
ATOM     12  C   LIG    1       24.103 -12.305   2.987  0.00  0.00    +0.000 A 
ATOM     13  C   LIG    1       24.981 -12.811   2.045  0.00  0.00    +0.004 A 
ATOM     14  C   LIG    1       25.942 -13.734   2.421  0.00  0.00    +0.045 A 
ENDBRANCH   8   9
ENDBRANCH   7   8
ENDBRANCH   6   7
ENDBRANCH   3   6
ENDBRANCH   1   3
BRANCH   1  15
ATOM     15  C   LIG    1       26.836 -20.083   6.302  0.00  0.00    +0.161 C 
BRANCH  15  16
ATOM     16  C   LIG    1       25.441 -20.557   5.923  0.00  0.00    -0.018 A 
ATOM     17  C   LIG    1       24.376 -20.407   6.826  0.00  0.00    +0.010 A 
ATOM     18  C   LIG    1       23.073 -20.759   6.468  0.00  0.00    +0.046 A 
ATOM     19  C   LIG    1       22.827 -21.271   5.197  0.00  0.00    +0.117 A 
ATOM     20  C   LIG    1       23.867 -21.468   4.303  0.00  0.00    +0.046 A 
ATOM     21  C   LIG    1       25.170 -21.113   4.660  0.00  0.00    +0.010 A 
BRANCH  19  22
ATOM     22  O   LIG    1       21.537 -21.553   4.858  0.00  0.00    -0.507 OA
ATOM     23  H   LIG    1       21.190 -22.199   5.495  0.00  0.00    +0.292 HD
ENDBRANCH  19  22
ENDBRANCH  15  16
BRANCH  15  24
ATOM     24  O   LIG    1       27.547 -21.076   7.054  0.00  0.00    -0.386 OA
ATOM     25  H   LIG    1       28.468 -20.777   7.139  0.00  0.00    +0.210 HD
ENDBRANCH  15  24
ENDBRANCH   1  15
TORSDOF 9
ENDMDL
MODEL 5
REMARK VINA RESULT:      -4.0      2.807      4.878
REMARK  Name = *****
REMARK                            x       y       z     vdW  Elec       q    Type
REMARK                         _______ _______ _______ _____ _____    ______ ____
ROOT
ATOM      1  C   LIG    1       23.673 -14.890   4.293  0.00  0.00    +0.084 C 
ATOM      2  C   LIG    1       23.780 -14.046   5.565  0.00  0.00    +0.027 C 
ENDROOT
BRANCH   1   3
ATOM      3  N   LIG    1       23.511 -14.030   3.085  0.00  0.00    -0.305 NA
ATOM      4  H   LIG    1       23.388 -14.648   2.280  0.00  0.00    +0.123 HD
BRANCH   3   6
ATOM      5  C   LIG    1       24.039 -11.740   2.309  0.00  0.00    +0.027 C 
ATOM      6  C   LIG    1       24.616 -13.071   2.825  0.00  0.00    +0.088 C 
BRANCH   6   7
ATOM      7  C   LIG    1       25.661 -13.591   1.815  0.00  0.00    +0.247 C 
BRANCH   7   8
ATOM      8  O   LIG    1       26.637 -14.446   2.446  0.00  0.00    -0.490 OA
BRANCH   8   9
ATOM      9  C   LIG    1       27.346 -13.830   3.447  0.00  0.00    +0.121 A 
ATOM     10  C   LIG    1       26.974 -14.076   4.768  0.00  0.00    +0.045 A 
ATOM     11  C   LIG    1       27.611 -13.381   5.809  0.00  0.00    +0.004 A 
ATOM     12  C   LIG    1       28.630 -12.460   5.523  0.00  0.00    +0.000 A 
ATOM     13  C   LIG    1       29.031 -12.262   4.213  0.00  0.00    +0.004 A 
ATOM     14  C   LIG    1       28.407 -12.950   3.187  0.00  0.00    +0.045 A 
ENDBRANCH   8   9
ENDBRANCH   7   8
ENDBRANCH   6   7
ENDBRANCH   3   6
ENDBRANCH   1   3
BRANCH   1  15
ATOM     15  C   LIG    1       22.548 -15.976   4.470  0.00  0.00    +0.161 C 
BRANCH  15  16
ATOM     16  C   LIG    1       22.989 -17.427   4.355  0.00  0.00    -0.018 A 
ATOM     17  C   LIG    1       22.142 -18.458   4.792  0.00  0.00    +0.010 A 
ATOM     18  C   LIG    1       22.491 -19.800   4.620  0.00  0.00    +0.046 A 
ATOM     19  C   LIG    1       23.700 -20.118   4.010  0.00  0.00    +0.117 A 
ATOM     20  C   LIG    1       24.572 -19.120   3.607  0.00  0.00    +0.046 A 
ATOM     21  C   LIG    1       24.221 -17.779   3.776  0.00  0.00    +0.010 A 
BRANCH  19  22
ATOM     22  O   LIG    1       23.987 -21.436   3.805  0.00  0.00    -0.507 OA
ATOM     23  H   LIG    1       23.582 -21.950   4.522  0.00  0.00    +0.292 HD
ENDBRANCH  19  22
ENDBRANCH  15  16
BRANCH  15  24
ATOM     24  O   LIG    1       21.856 -15.728   5.702  0.00  0.00    -0.386 OA
ATOM     25  H   LIG    1       22.509 -15.773   6.420  0.00  0.00    +0.210 HD
ENDBRANCH  15  24
ENDBRANCH   1  15
TORSDOF 9
ENDMDL
MODEL 6
REMARK VINA RESULT:      -3.8      1.703      2.386
REMARK  Name = *****
REMARK                            x       y       z     vdW  Elec       q    Type
REMARK                         _______ _______ _______ _____ _____    ______ ____
ROOT
ATOM      1  C   LIG    1       23.310 -17.632   3.608  0.00  0.00    +0.084 C 
ATOM      2  C   LIG    1       24.792 -17.305   3.806  0.00  0.00    +0.027 C 
ENDROOT
BRANCH   1   3
ATOM      3  N   LIG    1       22.444 -16.731   4.424  0.00  0.00    -0.305 NA
ATOM      4  H   LIG    1       21.606 -16.527   3.874  0.00  0.00    +0.123 HD
BRANCH   3   6
ATOM      5  C   LIG    1       22.313 -14.901   6.084  0.00  0.00    +0.027 C 
ATOM      6  C   LIG    1       23.078 -15.463   4.871  0.00  0.00    +0.088 C 
BRANCH   6   7
ATOM      7  C   LIG    1       23.140 -14.381   3.772  0.00  0.00    +0.247 C 
BRANCH   7   8
ATOM      8  O   LIG    1       23.955 -13.259   4.170  0.00  0.00    -0.490 OA
BRANCH   8   9
ATOM      9  C   LIG    1       25.302 -13.472   4.013  0.00  0.00    +0.121 A 
ATOM     10  C   LIG    1       26.119 -13.398   5.141  0.00  0.00    +0.045 A 
ATOM     11  C   LIG    1       27.512 -13.508   4.996  0.00  0.00    +0.004 A 
ATOM     12  C   LIG    1       28.076 -13.712   3.728  0.00  0.00    +0.000 A 
ATOM     13  C   LIG    1       27.256 -13.839   2.622  0.00  0.00    +0.004 A 
ATOM     14  C   LIG    1       25.883 -13.736   2.764  0.00  0.00    +0.045 A 
ENDBRANCH   8   9
ENDBRANCH   7   8
ENDBRANCH   6   7
ENDBRANCH   3   6
ENDBRANCH   1   3
BRANCH   1  15
ATOM     15  C   LIG    1       23.067 -19.166   3.861  0.00  0.00    +0.161 C 
BRANCH  15  16
ATOM     16  C   LIG    1       24.112 -19.884   4.701  0.00  0.00    -0.018 A 
ATOM     17  C   LIG    1       25.431 -20.003   4.235  0.00  0.00    +0.010 A 
ATOM     18  C   LIG    1       26.424 -20.586   5.025  0.00  0.00    +0.046 A 
ATOM     19  C   LIG    1       26.100 -21.059   6.292  0.00  0.00    +0.117 A 
ATOM     20  C   LIG    1       24.797 -20.992   6.759  0.00  0.00    +0.046 A 
ATOM     21  C   LIG    1       23.804 -20.407   5.970  0.00  0.00    +0.010 A 
BRANCH  19  22
ATOM     22  O   LIG    1       27.103 -21.572   7.062  0.00  0.00    -0.507 OA
ATOM     23  H   LIG    1       27.364 -20.896   7.708  0.00  0.00    +0.292 HD
ENDBRANCH  19  22
ENDBRANCH  15  16
BRANCH  15  24
ATOM     24  O   LIG    1       21.746 -19.343   4.394  0.00  0.00    -0.386 OA
ATOM     25  H   LIG    1       21.765 -20.124   4.972  0.00  0.00    +0.210 HD
ENDBRANCH  15  24
ENDBRANCH   1  15
TORSDOF 9
ENDMDL
MODEL 7
REMARK VINA RESULT:      -3.3      2.020      6.343
REMARK  Name = *****
REMARK                            x       y       z     vdW  Elec       q    Type
REMARK                         _______ _______ _______ _____ _____    ______ ____
ROOT
ATOM      1  C   LIG    1       23.424 -15.533   4.058  0.00  0.00    +0.084 C 
ATOM      2  C   LIG    1       22.704 -14.770   2.944  0.00  0.00    +0.027 C 
ENDROOT
BRANCH   1   3
ATOM      3  N   LIG    1       22.486 -16.433   4.790  0.00  0.00    -0.305 NA
ATOM      4  H   LIG    1       22.771 -16.443   5.772  0.00  0.00    +0.123 HD
BRANCH   3   6
ATOM      5  C   LIG    1       21.049 -18.026   3.557  0.00  0.00    +0.027 C 
ATOM      6  C   LIG    1       22.396 -17.824   4.274  0.00  0.00    +0.088 C 
BRANCH   6   7
ATOM      7  C   LIG    1       22.549 -18.901   5.369  0.00  0.00    +0.247 C 
BRANCH   7   8
ATOM      8  O   LIG    1       23.160 -20.104   4.856  0.00  0.00    -0.490 OA
BRANCH   8   9
ATOM      9  C   LIG    1       24.443 -20.303   5.300  0.00  0.00    +0.121 A 
ATOM     10  C   LIG    1       24.627 -20.931   6.532  0.00  0.00    +0.045 A 
ATOM     11  C   LIG    1       25.921 -21.055   7.061  0.00  0.00    +0.004 A 
ATOM     12  C   LIG    1       27.026 -20.570   6.346  0.00  0.00    +0.000 A 
ATOM     13  C   LIG    1       26.842 -19.997   5.100  0.00  0.00    +0.004 A 
ATOM     14  C   LIG    1       25.566 -19.878   4.576  0.00  0.00    +0.045 A 
ENDBRANCH   8   9
ENDBRANCH   7   8
ENDBRANCH   6   7
ENDBRANCH   3   6
ENDBRANCH   1   3
BRANCH   1  15
ATOM     15  C   LIG    1       24.199 -14.520   4.979  0.00  0.00    +0.161 C 
BRANCH  15  16
ATOM     16  C   LIG    1       25.626 -14.190   4.567  0.00  0.00    -0.018 A 
ATOM     17  C   LIG    1       26.139 -14.674   3.353  0.00  0.00    +0.010 A 
ATOM     18  C   LIG    1       27.416 -14.315   2.916  0.00  0.00    +0.046 A 
ATOM     19  C   LIG    1       28.194 -13.469   3.700  0.00  0.00    +0.117 A 
ATOM     20  C   LIG    1       27.727 -13.012   4.922  0.00  0.00    +0.046 A 
ATOM     21  C   LIG    1       26.449 -13.368   5.357  0.00  0.00    +0.010 A 
BRANCH  19  22
ATOM     22  O   LIG    1       29.414 -13.092   3.221  0.00  0.00    -0.507 OA
ATOM     23  H   LIG    1       29.442 -12.122   3.192  0.00  0.00    +0.292 HD
ENDBRANCH  19  22
ENDBRANCH  15  16
BRANCH  15  24
ATOM     24  O   LIG    1       23.405 -13.335   5.134  0.00  0.00    -0.386 OA
ATOM     25  H   LIG    1       23.874 -12.746   5.749  0.00  0.00    +0.210 HD
ENDBRANCH  15  24
ENDBRANCH   1  15
TORSDOF 9
ENDMDL
MODEL 8
REMARK VINA RESULT:      -3.3      1.893      6.040
REMARK  Name = *****
REMARK                            x       y       z     vdW  Elec       q    Type
REMARK                         _______ _______ _______ _____ _____    ______ ____
ROOT
ATOM      1  C   LIG    1       27.580 -19.355   5.505  0.00  0.00    +0.084 C 
ATOM      2  C   LIG    1       28.407 -19.874   6.683  0.00  0.00    +0.027 C 
ENDROOT
BRANCH   1   3
ATOM      3  N   LIG    1       27.114 -20.475   4.637  0.00  0.00    -0.305 NA
ATOM      4  H   LIG    1       27.274 -20.200   3.665  0.00  0.00    +0.123 HD
BRANCH   3   6
ATOM      5  C   LIG    1       24.900 -20.587   3.538  0.00  0.00    +0.027 C 
ATOM      6  C   LIG    1       25.697 -20.885   4.821  0.00  0.00    +0.088 C 
BRANCH   6   7
ATOM      7  C   LIG    1       25.004 -20.196   6.015  0.00  0.00    +0.247 C 
BRANCH   7   8
ATOM      8  O   LIG    1       23.668 -20.699   6.222  0.00  0.00    -0.490 OA
BRANCH   8   9
ATOM      9  C   LIG    1       22.719 -20.080   5.447  0.00  0.00    +0.121 A 
ATOM     10  C   LIG    1       21.725 -20.866   4.865  0.00  0.00    +0.045 A 
ATOM     11  C   LIG    1       20.804 -20.279   3.983  0.00  0.00    +0.004 A 
ATOM     12  C   LIG    1       20.869 -18.906   3.705  0.00  0.00    +0.000 A 
ATOM     13  C   LIG    1       21.824 -18.122   4.328  0.00  0.00    +0.004 A 
ATOM     14  C   LIG    1       22.730 -18.699   5.201  0.00  0.00    +0.045 A 
ENDBRANCH   8   9
ENDBRANCH   7   8
ENDBRANCH   6   7
ENDBRANCH   3   6
ENDBRANCH   1   3
BRANCH   1  15
ATOM     15  C   LIG    1       28.384 -18.238   4.743  0.00  0.00    +0.161 C 
BRANCH  15  16
ATOM     16  C   LIG    1       27.574 -17.060   4.224  0.00  0.00    -0.018 A 
ATOM     17  C   LIG    1       26.342 -17.277   3.586  0.00  0.00    +0.010 A 
ATOM     18  C   LIG    1       25.544 -16.207   3.176  0.00  0.00    +0.046 A 
ATOM     19  C   LIG    1       25.979 -14.904   3.400  0.00  0.00    +0.117 A 
ATOM     20  C   LIG    1       27.210 -14.663   3.988  0.00  0.00    +0.046 A 
ATOM     21  C   LIG    1       28.007 -15.734   4.402  0.00  0.00    +0.010 A 
BRANCH  19  22
ATOM     22  O   LIG    1       25.153 -13.881   3.039  0.00  0.00    -0.507 OA
ATOM     23  H   LIG    1       25.699 -13.098   2.863  0.00  0.00    +0.292 HD
ENDBRANCH  19  22
ENDBRANCH  15  16
BRANCH  15  24
ATOM     24  O   LIG    1       29.475 -17.807   5.570  0.00  0.00    -0.386 OA
ATOM     25  H   LIG    1       29.646 -18.510   6.219  0.00  0.00    +0.210 HD
ENDBRANCH  15  24
ENDBRANCH   1  15
TORSDOF 9
ENDMDL
MODEL 9
REMARK VINA RESULT:      -3.2      1.873      5.827
REMARK  Name = *****
REMARK                            x       y       z     vdW  Elec       q    Type
REMARK                         _______ _______ _______ _____ _____    ______ ____
ROOT
ATOM      1  C   LIG    1       24.445 -15.166   4.432  0.00  0.00    +0.084 C 
ATOM      2  C   LIG    1       24.152 -13.684   4.676  0.00  0.00    +0.027 C 
ENDROOT
BRANCH   1   3
ATOM      3  N   LIG    1       25.528 -15.344   3.422  0.00  0.00    -0.305 NA
ATOM      4  H   LIG    1       25.536 -16.330   3.147  0.00  0.00    +0.123 HD
BRANCH   3   6
ATOM      5  C   LIG    1       27.472 -13.924   2.846  0.00  0.00    +0.027 C 
ATOM      6  C   LIG    1       26.888 -14.929   3.856  0.00  0.00    +0.088 C 
BRANCH   6   7
ATOM      7  C   LIG    1       27.872 -16.107   4.019  0.00  0.00    +0.247 C 
BRANCH   7   8
ATOM      8  O   LIG    1       27.191 -17.379   4.013  0.00  0.00    -0.490 OA
BRANCH   8   9
ATOM      9  C   LIG    1       27.773 -18.319   4.827  0.00  0.00    +0.121 A 
ATOM     10  C   LIG    1       27.126 -19.545   4.986  0.00  0.00    +0.045 A 
ATOM     11  C   LIG    1       27.641 -20.487   5.892  0.00  0.00    +0.004 A 
ATOM     12  C   LIG    1       28.809 -20.206   6.615  0.00  0.00    +0.000 A 
ATOM     13  C   LIG    1       29.475 -19.011   6.411  0.00  0.00    +0.004 A 
ATOM     14  C   LIG    1       28.971 -18.084   5.516  0.00  0.00    +0.045 A 
ENDBRANCH   8   9
ENDBRANCH   7   8
ENDBRANCH   6   7
ENDBRANCH   3   6
ENDBRANCH   1   3
BRANCH   1  15
ATOM     15  C   LIG    1       23.109 -15.922   4.087  0.00  0.00    +0.161 C 
BRANCH  15  16
ATOM     16  C   LIG    1       23.154 -17.440   4.166  0.00  0.00    -0.018 A 
ATOM     17  C   LIG    1       24.125 -18.155   3.448  0.00  0.00    +0.010 A 
ATOM     18  C   LIG    1       24.237 -19.542   3.570  0.00  0.00    +0.046 A 
ATOM     19  C   LIG    1       23.368 -20.226   4.415  0.00  0.00    +0.117 A 
ATOM     20  C   LIG    1       22.374 -19.549   5.102  0.00  0.00    +0.046 A 
ATOM     21  C   LIG    1       22.265 -18.162   4.982  0.00  0.00    +0.010 A 
BRANCH  19  22
ATOM     22  O   LIG    1       23.538 -21.571   4.556  0.00  0.00    -0.507 OA
ATOM     23  H   LIG    1       24.426 -21.729   4.916  0.00  0.00    +0.292 HD
ENDBRANCH  19  22
ENDBRANCH  15  16
BRANCH  15  24
ATOM     24  O   LIG    1       22.051 -15.381   4.892  0.00  0.00    -0.386 OA
ATOM     25  H   LIG    1       21.214 -15.750   4.563  0.00  0.00    +0.210 HD
ENDBRANCH  15  24
ENDBRANCH   1  15
TORSDOF 9
ENDMDL
