MODEL 1
REMARK VINA RESULT:      -5.2      0.000      0.000
REMARK  Name = *****
REMARK                            x       y       z     vdW  Elec       q    Type
REMARK                         _______ _______ _______ _____ _____    ______ ____
ROOT
ATOM      1  C   LIG    1       24.402 -20.762   5.289  0.00  0.00    +0.084 C 
ATOM      2  C   LIG    1       25.860 -20.415   5.594  0.00  0.00    -0.027 A 
ATOM      3  C   LIG    1       26.643 -19.619   4.732  0.00  0.00    -0.035 A 
ATOM      4  C   LIG    1       27.983 -19.339   5.059  0.00  0.00    +0.004 A 
ATOM      5  C   LIG    1       28.558 -19.857   6.217  0.00  0.00    +0.000 A 
ATOM      6  C   LIG    1       27.807 -20.669   7.056  0.00  0.00    +0.000 A 
ATOM      7  C   LIG    1       26.069 -19.027   3.456  0.00  0.00    +0.049 C 
ATOM      8  C   LIG    1       24.904 -19.885   2.939  0.00  0.00    +0.014 C 
ATOM      9  C   LIG    1       26.476 -20.955   6.743  0.00  0.00    +0.005 A 
ATOM     10  C   LIG    1       23.845 -20.098   4.012  0.00  0.00    +0.024 C 
ENDROOT
BRANCH   7  11
ATOM     11  C   LIG    1       25.704 -17.549   3.580  0.00  0.00    -0.038 A 
ATOM     12  C   LIG    1       24.410 -17.184   3.989  0.00  0.00    +0.025 A 
ATOM     13  C   LIG    1       24.050 -15.834   4.115  0.00  0.00    +0.059 A 
ATOM     14 CL   LIG    1       22.434 -15.479   4.617  0.00  0.00    -0.082 Cl
ATOM     15  C   LIG    1       24.984 -14.831   3.838  0.00  0.00    +0.059 A 
ATOM     16 CL   LIG    1       24.614 -13.150   3.975  0.00  0.00    -0.082 Cl
ATOM     17  C   LIG    1       26.272 -15.181   3.435  0.00  0.00    +0.022 A 
ATOM     18  C   LIG    1       26.628 -16.527   3.309  0.00  0.00    +0.006 A 
ENDBRANCH   7  11
BRANCH   1  20
ATOM     19  C   LIG    1       22.927 -21.571   7.062  0.00  0.00    +0.101 C 
ATOM     20  N   LIG    1       23.520 -20.405   6.419  0.00  0.00    -0.312 NA
ATOM     21  H   LIG    1       24.049 -19.889   7.118  0.00  0.00    +0.122 HD
ENDBRANCH   1  20
TORSDOF 2
ENDMDL
MODEL 2
REMARK VINA RESULT:      -5.1      1.111      1.871
REMARK  Name = *****
REMARK                            x       y       z     vdW  Elec       q    Type
REMARK                         _______ _______ _______ _____ _____    ______ ____
ROOT
ATOM      1  C   LIG    1       23.777 -20.810   4.442  0.00  0.00    +0.084 C 
ATOM      2  C   LIG    1       25.152 -20.568   5.067  0.00  0.00    -0.027 A 
ATOM      3  C   LIG    1       26.094 -19.686   4.498  0.00  0.00    -0.035 A 
ATOM      4  C   LIG    1       27.349 -19.508   5.112  0.00  0.00    +0.004 A 
ATOM      5  C   LIG    1       27.684 -20.212   6.266  0.00  0.00    +0.000 A 
ATOM      6  C   LIG    1       26.777 -21.108   6.815  0.00  0.00    +0.000 A 
ATOM      7  C   LIG    1       25.783 -18.892   3.241  0.00  0.00    +0.049 C 
ATOM      8  C   LIG    1       24.731 -19.618   2.389  0.00  0.00    +0.014 C 
ATOM      9  C   LIG    1       25.529 -21.293   6.216  0.00  0.00    +0.005 A 
ATOM     10  C   LIG    1       23.483 -19.945   3.198  0.00  0.00    +0.024 C 
ENDROOT
BRANCH   7  11
ATOM     11  C   LIG    1       25.415 -17.434   3.515  0.00  0.00    -0.038 A 
ATOM     12  C   LIG    1       26.386 -16.430   3.362  0.00  0.00    +0.025 A 
ATOM     13  C   LIG    1       26.073 -15.085   3.603  0.00  0.00    +0.059 A 
ATOM     14 CL   LIG    1       27.334 -13.920   3.396  0.00  0.00    -0.082 Cl
ATOM     15  C   LIG    1       24.781 -14.725   3.995  0.00  0.00    +0.059 A 
ATOM     16 CL   LIG    1       24.322 -13.089   4.305  0.00  0.00    -0.082 Cl
ATOM     17  C   LIG    1       23.806 -15.712   4.146  0.00  0.00    +0.022 A 
ATOM     18  C   LIG    1       24.121 -17.052   3.908  0.00  0.00    +0.006 A 
ENDBRANCH   7  11
BRANCH   1  20
ATOM     19  C   LIG    1       22.152 -19.238   5.369  0.00  0.00    +0.101 C 
ATOM     20  N   LIG    1       22.697 -20.588   5.426  0.00  0.00    -0.312 NA
ATOM     21  H   LIG    1       21.940 -21.246   5.259  0.00  0.00    +0.122 HD
ENDBRANCH   1  20
TORSDOF 2
ENDMDL
MODEL 3
REMARK VINA RESULT:      -5.0      1.030      1.314
REMARK  Name = *****
REMARK                            x       y       z     vdW  Elec       q    Type
REMARK                         _______ _______ _______ _____ _____    ______ ____
ROOT
ATOM      1  C   LIG    1       23.683 -20.240   4.548  0.00  0.00    +0.084 C 
ATOM      2  C   LIG    1       25.057 -20.292   5.218  0.00  0.00    -0.027 A 
ATOM      3  C   LIG    1       26.199 -19.693   4.648  0.00  0.00    -0.035 A 
ATOM      4  C   LIG    1       27.441 -19.781   5.305  0.00  0.00    +0.004 A 
ATOM      5  C   LIG    1       27.564 -20.475   6.506  0.00  0.00    +0.000 A 
ATOM      6  C   LIG    1       26.454 -21.097   7.060  0.00  0.00    +0.000 A 
ATOM      7  C   LIG    1       26.123 -18.924   3.340  0.00  0.00    +0.049 C 
ATOM      8  C   LIG    1       24.955 -19.431   2.481  0.00  0.00    +0.014 C 
ATOM      9  C   LIG    1       25.216 -21.017   6.418  0.00  0.00    +0.005 A 
ATOM     10  C   LIG    1       23.642 -19.405   3.251  0.00  0.00    +0.024 C 
ENDROOT
BRANCH   7  11
ATOM     11  C   LIG    1       26.105 -17.407   3.524  0.00  0.00    -0.038 A 
ATOM     12  C   LIG    1       24.879 -16.740   3.686  0.00  0.00    +0.025 A 
ATOM     13  C   LIG    1       24.835 -15.350   3.861  0.00  0.00    +0.059 A 
ATOM     14 CL   LIG    1       23.280 -14.614   4.044  0.00  0.00    -0.082 Cl
ATOM     15  C   LIG    1       26.019 -14.608   3.883  0.00  0.00    +0.059 A 
ATOM     16 CL   LIG    1       26.042 -12.895   4.099  0.00  0.00    -0.082 Cl
ATOM     17  C   LIG    1       27.243 -15.259   3.728  0.00  0.00    +0.022 A 
ATOM     18  C   LIG    1       27.284 -16.644   3.552  0.00  0.00    +0.006 A 
ENDBRANCH   7  11
BRANCH   1  20
ATOM     19  C   LIG    1       22.020 -18.500   4.972  0.00  0.00    +0.101 C 
ATOM     20  N   LIG    1       22.658 -19.711   5.472  0.00  0.00    -0.312 NA
ATOM     21  H   LIG    1       21.938 -20.413   5.624  0.00  0.00    +0.122 HD
ENDBRANCH   1  20
TORSDOF 2
ENDMDL
