MODEL 1
REMARK VINA RESULT:      14.7      0.000      0.000
REMARK  Name = *****
REMARK                            x       y       z     vdW  Elec       q    Type
REMARK                         _______ _______ _______ _____ _____    ______ ____
ROOT
ATOM      1  C   LIG    1       24.834 -18.916   4.443  0.00  0.00    +0.250 C 
ATOM      2  C   LIG    1       26.158 -18.460   5.124  0.00  0.00    +0.092 C 
ATOM      3  C   LIG    1       27.129 -19.717   4.956  0.00  0.00    +0.054 C 
ATOM      4  N   LIG    1       28.613 -19.672   5.049  0.00  0.00    -0.292 NA
ATOM      5  C   LIG    1       29.292 -18.428   5.419  0.00  0.00    +0.090 C 
ATOM      6  C   LIG    1       28.546 -17.375   6.247  0.00  0.00    +0.051 C 
ATOM      7  C   LIG    1       27.797 -16.535   5.246  0.00  0.00    -0.039 A 
ATOM      8  C   LIG    1       28.372 -15.322   4.822  0.00  0.00    +0.053 A 
ATOM      9  C   LIG    1       27.898 -14.754   3.667  0.00  0.00    +0.167 A 
ATOM     10  O   LIG    1       28.410 -13.654   3.055  0.00  0.00    -0.453 OA
ATOM     11  C   LIG    1       27.654 -13.659   1.828  0.00  0.00    +0.466 C 
ATOM     12  O   LIG    1       26.601 -14.648   1.812  0.00  0.00    -0.453 OA
ATOM     13  C   LIG    1       26.871 -15.326   2.962  0.00  0.00    +0.167 A 
ATOM     14  C   LIG    1       26.246 -16.488   3.386  0.00  0.00    +0.054 A 
ATOM     15  C   LIG    1       29.085 -20.776   5.912  0.00  0.00    +0.085 C 
ATOM     16  C   LIG    1       27.996 -20.930   6.913  0.00  0.00    +0.017 C 
ATOM     17  C   LIG    1       26.823 -20.814   5.996  0.00  0.00    +0.029 C 
ATOM     18  C   LIG    1       26.609 -20.193   3.603  0.00  0.00    +0.041 C 
ATOM     19  C   LIG    1       26.707 -17.127   4.557  0.00  0.00    -0.031 A 
ATOM     20  C   LIG    1       25.348 -19.793   3.349  0.00  0.00    +0.136 C 
ENDROOT
BRANCH  20  21
ATOM     21  O   LIG    1       24.720 -20.013   2.147  0.00  0.00    -0.496 OA
ATOM     22  C   LIG    1       23.767 -21.069   2.057  0.00  0.00    +0.277 C 
ENDBRANCH  20  21
BRANCH   1  23
ATOM     23  O   LIG    1       23.858 -19.476   5.357  0.00  0.00    -0.451 OA
BRANCH  23  24
ATOM     24  C   LIG    1       22.501 -19.585   5.183  0.00  0.00    +0.340 C 
ATOM     25  O   LIG    1       21.853 -20.599   5.297  0.00  0.00    -0.248 OA
BRANCH  24  26
ATOM     26  C   LIG    1       22.006 -18.248   4.555  0.00  0.00    +0.172 C 
BRANCH  26  27
ATOM     27  O   LIG    1       22.493 -18.201   3.187  0.00  0.00    -0.377 OA
ATOM     28  H   LIG    1       22.243 -19.041   2.754  0.00  0.00    +0.211 HD
ENDBRANCH  26  27
BRANCH  26  29
ATOM     29  C   LIG    1       20.521 -18.546   4.562  0.00  0.00    +0.166 C 
BRANCH  29  30
ATOM     30  C   LIG    1       20.002 -19.344   3.421  0.00  0.00    +0.310 C 
ATOM     31  O   LIG    1       20.131 -20.563   3.263  0.00  0.00    -0.251 OA
BRANCH  30  33
ATOM     32  C   LIG    1       19.351 -17.149   2.944  0.00  0.00    +0.280 C 
ATOM     33  O   LIG    1       19.559 -18.471   2.474  0.00  0.00    -0.468 OA
ENDBRANCH  30  33
ENDBRANCH  29  30
ENDBRANCH  26  29
BRANCH  26  34
ATOM     34  C   LIG    1       22.433 -16.873   5.145  0.00  0.00    +0.047 C 
BRANCH  34  35
ATOM     35  C   LIG    1       23.032 -15.716   4.318  0.00  0.00    +0.006 C 
BRANCH  35  36
ATOM     36  C   LIG    1       23.614 -14.502   5.053  0.00  0.00    +0.034 C 
BRANCH  36  37
ATOM     37  C   LIG    1       24.018 -13.293   4.164  0.00  0.00    +0.060 C 
ATOM     38  C   LIG    1       23.374 -12.023   4.718  0.00  0.00    +0.041 C 
ATOM     39  C   LIG    1       23.727 -13.472   2.670  0.00  0.00    +0.041 C 
BRANCH  37  40
ATOM     40  O   LIG    1       25.442 -13.120   4.272  0.00  0.00    -0.389 OA
ATOM     41  H   LIG    1       25.642 -12.186   4.078  0.00  0.00    +0.210 HD
ENDBRANCH  37  40
ENDBRANCH  36  37
ENDBRANCH  35  36
ENDBRANCH  34  35
ENDBRANCH  26  34
ENDBRANCH  24  26
ENDBRANCH  23  24
ENDBRANCH   1  23
TORSDOF 13
ENDMDL
