MODEL 1
REMARK VINA RESULT:      -8.4      0.000      0.000
REMARK  Name = *****
REMARK                            x       y       z     vdW  Elec       q    Type
REMARK                         _______ _______ _______ _____ _____    ______ ____
ROOT
ATOM      1  C   LIG    1       26.749 -20.190   7.396  0.00  0.00    +0.146 C 
ATOM      2  C   LIG    1       25.859 -20.885   6.421  0.00  0.00    +0.033 C 
ATOM      3  N   LIG    1       25.262 -21.973   6.992  0.00  0.00    -0.341 NA
ATOM      4  C   LIG    1       24.531 -22.682   6.089  0.00  0.00    +0.090 C 
ATOM      5  C   LIG    1       24.526 -21.885   4.943  0.00  0.00    +0.031 C 
ATOM      6  C   LIG    1       25.576 -22.119   8.405  0.00  0.00    +0.123 C 
ATOM      7  C   LIG    1       25.368 -20.752   5.150  0.00  0.00    +0.024 C 
ATOM      8  C   LIG    1       26.205 -20.750   8.741  0.00  0.00    +0.042 C 
ENDROOT
BRANCH   1  10
ATOM      9  O   LIG    1       28.985 -20.783   8.141  0.00  0.00    -0.250 OA
ATOM     10  C   LIG    1       28.223 -20.539   7.210  0.00  0.00    +0.314 C 
BRANCH  10  11
ATOM     11  O   LIG    1       28.678 -20.484   5.938  0.00  0.00    -0.480 OA
ATOM     12  H   LIG    1       28.750 -19.576   5.590  0.00  0.00    +0.295 HD
ENDBRANCH  10  11
ENDBRANCH   1  10
BRANCH   4  13
ATOM     13  C   LIG    1       23.879 -23.956   6.362  0.00  0.00    +0.209 C 
ATOM     14  O   LIG    1       22.741 -24.024   6.820  0.00  0.00    -0.285 OA
BRANCH  13  15
ATOM     15  C   LIG    1       24.608 -25.240   6.102  0.00  0.00    +0.024 C 
ATOM     16  C   LIG    1       23.886 -26.354   5.647  0.00  0.00    +0.012 C 
ATOM     17  C   LIG    1       24.539 -27.565   5.392  0.00  0.00    +0.001 C 
ATOM     18  C   LIG    1       25.914 -27.674   5.594  0.00  0.00    +0.000 C 
ATOM     19  C   LIG    1       26.633 -26.584   6.081  0.00  0.00    +0.001 C 
ATOM     20  C   LIG    1       25.982 -25.375   6.349  0.00  0.00    +0.012 C 
ENDBRANCH  13  15
ENDBRANCH   4  13
TORSDOF 4
ENDMDL
MODEL 2
REMARK VINA RESULT:      -8.1      2.536      6.451
REMARK  Name = *****
REMARK                            x       y       z     vdW  Elec       q    Type
REMARK                         _______ _______ _______ _____ _____    ______ ____
ROOT
ATOM      1  C   LIG    1       23.442 -21.675   6.768  0.00  0.00    +0.146 C 
ATOM      2  C   LIG    1       24.658 -21.200   7.489  0.00  0.00    +0.033 C 
ATOM      3  N   LIG    1       25.609 -20.763   6.609  0.00  0.00    -0.341 NA
ATOM      4  C   LIG    1       26.767 -20.426   7.239  0.00  0.00    +0.090 C 
ATOM      5  C   LIG    1       26.452 -20.482   8.598  0.00  0.00    +0.031 C 
ATOM      6  C   LIG    1       25.160 -20.793   5.225  0.00  0.00    +0.123 C 
ATOM      7  C   LIG    1       25.122 -20.974   8.756  0.00  0.00    +0.024 C 
ATOM      8  C   LIG    1       23.640 -21.001   5.381  0.00  0.00    +0.042 C 
ENDROOT
BRANCH   1  10
ATOM      9  O   LIG    1       24.369 -23.899   6.449  0.00  0.00    -0.250 OA
ATOM     10  C   LIG    1       23.381 -23.194   6.639  0.00  0.00    +0.314 C 
BRANCH  10  11
ATOM     11  O   LIG    1       22.141 -23.732   6.666  0.00  0.00    -0.480 OA
ATOM     12  H   LIG    1       21.601 -23.501   5.887  0.00  0.00    +0.295 HD
ENDBRANCH  10  11
ENDBRANCH   1  10
BRANCH   4  13
ATOM     13  C   LIG    1       28.001 -20.045   6.567  0.00  0.00    +0.209 C 
ATOM     14  O   LIG    1       28.070 -19.919   5.346  0.00  0.00    -0.285 OA
BRANCH  13  15
ATOM     15  C   LIG    1       29.248 -19.812   7.366  0.00  0.00    +0.024 C 
ATOM     16  C   LIG    1       29.739 -18.505   7.498  0.00  0.00    +0.012 C 
ATOM     17  C   LIG    1       30.898 -18.255   8.241  0.00  0.00    +0.001 C 
ATOM     18  C   LIG    1       31.578 -19.310   8.851  0.00  0.00    +0.000 C 
ATOM     19  C   LIG    1       31.118 -20.615   8.694  0.00  0.00    +0.001 C 
ATOM     20  C   LIG    1       29.967 -20.871   7.942  0.00  0.00    +0.012 C 
ENDBRANCH  13  15
ENDBRANCH   4  13
TORSDOF 4
ENDMDL
MODEL 3
REMARK VINA RESULT:      -7.9      3.881      5.270
REMARK  Name = *****
REMARK                            x       y       z     vdW  Elec       q    Type
REMARK                         _______ _______ _______ _____ _____    ______ ____
ROOT
ATOM      1  C   LIG    1       31.155 -19.768   8.193  0.00  0.00    +0.146 C 
ATOM      2  C   LIG    1       29.886 -20.505   7.927  0.00  0.00    +0.033 C 
ATOM      3  N   LIG    1       29.209 -19.950   6.876  0.00  0.00    -0.341 NA
ATOM      4  C   LIG    1       27.997 -20.540   6.685  0.00  0.00    +0.090 C 
ATOM      5  C   LIG    1       28.007 -21.640   7.546  0.00  0.00    +0.031 C 
ATOM      6  C   LIG    1       29.934 -18.857   6.246  0.00  0.00    +0.123 C 
ATOM      7  C   LIG    1       29.197 -21.616   8.332  0.00  0.00    +0.024 C 
ATOM      8  C   LIG    1       31.346 -19.015   6.846  0.00  0.00    +0.042 C 
ENDROOT
BRANCH   1  10
ATOM      9  O   LIG    1       32.001 -18.425  10.034  0.00  0.00    -0.250 OA
ATOM     10  C   LIG    1       31.042 -18.791   9.360  0.00  0.00    +0.314 C 
BRANCH  10  11
ATOM     11  O   LIG    1       29.786 -18.401   9.674  0.00  0.00    -0.480 OA
ATOM     12  H   LIG    1       29.657 -18.236  10.627  0.00  0.00    +0.295 HD
ENDBRANCH  10  11
ENDBRANCH   1  10
BRANCH   4  13
ATOM     13  C   LIG    1       26.995 -20.093   5.729  0.00  0.00    +0.209 C 
ATOM     14  O   LIG    1       27.275 -19.362   4.781  0.00  0.00    -0.285 OA
BRANCH  13  15
ATOM     15  C   LIG    1       25.564 -20.508   5.894  0.00  0.00    +0.024 C 
ATOM     16  C   LIG    1       24.760 -20.654   4.754  0.00  0.00    +0.012 C 
ATOM     17  C   LIG    1       23.422 -21.044   4.876  0.00  0.00    +0.001 C 
ATOM     18  C   LIG    1       22.877 -21.286   6.137  0.00  0.00    +0.000 C 
ATOM     19  C   LIG    1       23.658 -21.109   7.277  0.00  0.00    +0.001 C 
ATOM     20  C   LIG    1       24.992 -20.706   7.160  0.00  0.00    +0.012 C 
ENDBRANCH  13  15
ENDBRANCH   4  13
TORSDOF 4
ENDMDL
MODEL 4
REMARK VINA RESULT:      -7.8      2.700      5.663
REMARK  Name = *****
REMARK                            x       y       z     vdW  Elec       q    Type
REMARK                         _______ _______ _______ _____ _____    ______ ____
ROOT
ATOM      1  C   LIG    1       25.905 -26.265   6.595  0.00  0.00    +0.146 C 
ATOM      2  C   LIG    1       25.761 -24.796   6.811  0.00  0.00    +0.033 C 
ATOM      3  N   LIG    1       24.512 -24.370   6.458  0.00  0.00    -0.341 NA
ATOM      4  C   LIG    1       24.395 -23.016   6.544  0.00  0.00    +0.090 C 
ATOM      5  C   LIG    1       25.578 -22.604   7.162  0.00  0.00    +0.031 C 
ATOM      6  C   LIG    1       23.633 -25.455   6.052  0.00  0.00    +0.123 C 
ATOM      7  C   LIG    1       26.442 -23.728   7.327  0.00  0.00    +0.024 C 
ATOM      8  C   LIG    1       24.413 -26.699   6.526  0.00  0.00    +0.042 C 
ENDROOT
BRANCH   1  10
ATOM      9  O   LIG    1       26.084 -26.701   4.210  0.00  0.00    -0.250 OA
ATOM     10  C   LIG    1       26.639 -26.609   5.302  0.00  0.00    +0.314 C 
BRANCH  10  11
ATOM     11  O   LIG    1       27.954 -26.892   5.437  0.00  0.00    -0.480 OA
ATOM     12  H   LIG    1       28.436 -26.915   4.589  0.00  0.00    +0.295 HD
ENDBRANCH  10  11
ENDBRANCH   1  10
BRANCH   4  13
ATOM     13  C   LIG    1       23.232 -22.251   6.119  0.00  0.00    +0.209 C 
ATOM     14  O   LIG    1       22.087 -22.568   6.438  0.00  0.00    -0.285 OA
BRANCH  13  15
ATOM     15  C   LIG    1       23.406 -21.045   5.245  0.00  0.00    +0.024 C 
ATOM     16  C   LIG    1       22.483 -19.994   5.342  0.00  0.00    +0.012 C 
ATOM     17  C   LIG    1       22.623 -18.853   4.543  0.00  0.00    +0.001 C 
ATOM     18  C   LIG    1       23.680 -18.759   3.639  0.00  0.00    +0.000 C 
ATOM     19  C   LIG    1       24.581 -19.814   3.511  0.00  0.00    +0.001 C 
ATOM     20  C   LIG    1       24.438 -20.961   4.298  0.00  0.00    +0.012 C 
ENDBRANCH  13  15
ENDBRANCH   4  13
TORSDOF 4
ENDMDL
MODEL 5
REMARK VINA RESULT:      -7.8      3.738      7.827
REMARK  Name = *****
REMARK                            x       y       z     vdW  Elec       q    Type
REMARK                         _______ _______ _______ _____ _____    ______ ____
ROOT
ATOM      1  C   LIG    1       26.608 -21.260   6.988  0.00  0.00    +0.146 C 
ATOM      2  C   LIG    1       27.574 -20.246   6.474  0.00  0.00    +0.033 C 
ATOM      3  N   LIG    1       28.773 -20.340   7.123  0.00  0.00    -0.341 NA
ATOM      4  C   LIG    1       29.632 -19.354   6.745  0.00  0.00    +0.090 C 
ATOM      5  C   LIG    1       28.995 -18.731   5.669  0.00  0.00    +0.031 C 
ATOM      6  C   LIG    1       28.823 -21.442   8.071  0.00  0.00    +0.123 C 
ATOM      7  C   LIG    1       27.694 -19.292   5.501  0.00  0.00    +0.024 C 
ATOM      8  C   LIG    1       27.574 -22.260   7.683  0.00  0.00    +0.042 C 
ENDROOT
BRANCH   1  10
ATOM      9  O   LIG    1       25.906 -20.338   9.125  0.00  0.00    -0.250 OA
ATOM     10  C   LIG    1       25.608 -20.678   7.984  0.00  0.00    +0.314 C 
BRANCH  10  11
ATOM     11  O   LIG    1       24.325 -20.630   7.560  0.00  0.00    -0.480 OA
ATOM     12  H   LIG    1       24.198 -20.075   6.767  0.00  0.00    +0.295 HD
ENDBRANCH  10  11
ENDBRANCH   1  10
BRANCH   4  13
ATOM     13  C   LIG    1       30.937 -19.111   7.344  0.00  0.00    +0.209 C 
ATOM     14  O   LIG    1       31.964 -19.629   6.909  0.00  0.00    -0.285 OA
BRANCH  13  15
ATOM     15  C   LIG    1       31.056 -18.220   8.544  0.00  0.00    +0.024 C 
ATOM     16  C   LIG    1       32.241 -17.496   8.742  0.00  0.00    +0.012 C 
ATOM     17  C   LIG    1       32.380 -16.653   9.850  0.00  0.00    +0.001 C 
ATOM     18  C   LIG    1       31.340 -16.533  10.771  0.00  0.00    +0.000 C 
ATOM     19  C   LIG    1       30.173 -17.276  10.602  0.00  0.00    +0.001 C 
ATOM     20  C   LIG    1       30.036 -18.129   9.503  0.00  0.00    +0.012 C 
ENDBRANCH  13  15
ENDBRANCH   4  13
TORSDOF 4
ENDMDL
MODEL 6
REMARK VINA RESULT:      -7.8      2.761      4.544
REMARK  Name = *****
REMARK                            x       y       z     vdW  Elec       q    Type
REMARK                         _______ _______ _______ _____ _____    ______ ____
ROOT
ATOM      1  C   LIG    1       30.734 -19.322   7.299  0.00  0.00    +0.146 C 
ATOM      2  C   LIG    1       29.612 -20.297   7.421  0.00  0.00    +0.033 C 
ATOM      3  N   LIG    1       28.621 -20.017   6.522  0.00  0.00    -0.341 NA
ATOM      4  C   LIG    1       27.540 -20.827   6.689  0.00  0.00    +0.090 C 
ATOM      5  C   LIG    1       27.962 -21.781   7.618  0.00  0.00    +0.031 C 
ATOM      6  C   LIG    1       28.952 -18.911   5.636  0.00  0.00    +0.123 C 
ATOM      7  C   LIG    1       29.268 -21.444   8.083  0.00  0.00    +0.024 C 
ATOM      8  C   LIG    1       30.465 -18.739   5.883  0.00  0.00    +0.042 C 
ENDROOT
BRANCH   1  10
ATOM      9  O   LIG    1       31.553 -17.363   8.482  0.00  0.00    -0.250 OA
ATOM     10  C   LIG    1       30.691 -18.229   8.364  0.00  0.00    +0.314 C 
BRANCH  10  11
ATOM     11  O   LIG    1       29.669 -18.314   9.245  0.00  0.00    -0.480 OA
ATOM     12  H   LIG    1       29.132 -17.501   9.296  0.00  0.00    +0.295 HD
ENDBRANCH  10  11
ENDBRANCH   1  10
BRANCH   4  13
ATOM     13  C   LIG    1       26.281 -20.696   5.970  0.00  0.00    +0.209 C 
ATOM     14  O   LIG    1       26.111 -19.847   5.097  0.00  0.00    -0.285 OA
BRANCH  13  15
ATOM     15  C   LIG    1       25.132 -21.600   6.300  0.00  0.00    +0.024 C 
ATOM     16  C   LIG    1       24.028 -21.078   6.989  0.00  0.00    +0.012 C 
ATOM     17  C   LIG    1       22.939 -21.896   7.307  0.00  0.00    +0.001 C 
ATOM     18  C   LIG    1       22.948 -23.243   6.945  0.00  0.00    +0.000 C 
ATOM     19  C   LIG    1       24.056 -23.779   6.292  0.00  0.00    +0.001 C 
ATOM     20  C   LIG    1       25.152 -22.967   5.984  0.00  0.00    +0.012 C 
ENDBRANCH  13  15
ENDBRANCH   4  13
TORSDOF 4
ENDMDL
MODEL 7
REMARK VINA RESULT:      -7.7      3.738      7.312
REMARK  Name = *****
REMARK                            x       y       z     vdW  Elec       q    Type
REMARK                         _______ _______ _______ _____ _____    ______ ____
ROOT
ATOM      1  C   LIG    1       24.855 -30.375   8.816  0.00  0.00    +0.146 C 
ATOM      2  C   LIG    1       24.697 -29.611   7.545  0.00  0.00    +0.033 C 
ATOM      3  N   LIG    1       25.511 -28.513   7.529  0.00  0.00    -0.341 NA
ATOM      4  C   LIG    1       25.303 -27.743   6.426  0.00  0.00    +0.090 C 
ATOM      5  C   LIG    1       24.448 -28.505   5.627  0.00  0.00    +0.031 C 
ATOM      6  C   LIG    1       26.369 -28.424   8.701  0.00  0.00    +0.123 C 
ATOM      7  C   LIG    1       24.062 -29.682   6.335  0.00  0.00    +0.024 C 
ATOM      8  C   LIG    1       26.222 -29.830   9.319  0.00  0.00    +0.042 C 
ENDROOT
BRANCH   1  10
ATOM      9  O   LIG    1       23.944 -29.618  10.939  0.00  0.00    -0.250 OA
ATOM     10  C   LIG    1       23.744 -30.090   9.824  0.00  0.00    +0.314 C 
BRANCH  10  11
ATOM     11  O   LIG    1       22.503 -30.470   9.444  0.00  0.00    -0.480 OA
ATOM     12  H   LIG    1       22.082 -29.853   8.817  0.00  0.00    +0.295 HD
ENDBRANCH  10  11
ENDBRANCH   1  10
BRANCH   4  13
ATOM     13  C   LIG    1       25.926 -26.449   6.184  0.00  0.00    +0.209 C 
ATOM     14  O   LIG    1       27.065 -26.344   5.735  0.00  0.00    -0.285 OA
BRANCH  13  15
ATOM     15  C   LIG    1       25.180 -25.188   6.504  0.00  0.00    +0.024 C 
ATOM     16  C   LIG    1       25.890 -24.082   6.995  0.00  0.00    +0.012 C 
ATOM     17  C   LIG    1       25.222 -22.890   7.298  0.00  0.00    +0.001 C 
ATOM     18  C   LIG    1       23.843 -22.797   7.119  0.00  0.00    +0.000 C 
ATOM     19  C   LIG    1       23.125 -23.902   6.667  0.00  0.00    +0.001 C 
ATOM     20  C   LIG    1       23.786 -25.099   6.375  0.00  0.00    +0.012 C 
ENDBRANCH  13  15
ENDBRANCH   4  13
TORSDOF 4
ENDMDL
MODEL 8
REMARK VINA RESULT:      -7.5      4.007      5.228
REMARK  Name = *****
REMARK                            x       y       z     vdW  Elec       q    Type
REMARK                         _______ _______ _______ _____ _____    ______ ____
ROOT
ATOM      1  C   LIG    1       31.082 -19.480   7.153  0.00  0.00    +0.146 C 
ATOM      2  C   LIG    1       30.079 -20.484   7.613  0.00  0.00    +0.033 C 
ATOM      3  N   LIG    1       28.812 -19.975   7.547  0.00  0.00    -0.341 NA
ATOM      4  C   LIG    1       27.892 -20.835   8.065  0.00  0.00    +0.090 C 
ATOM      5  C   LIG    1       28.607 -22.013   8.290  0.00  0.00    +0.031 C 
ATOM      6  C   LIG    1       28.764 -18.639   6.973  0.00  0.00    +0.123 C 
ATOM      7  C   LIG    1       29.988 -21.791   8.009  0.00  0.00    +0.024 C 
ATOM      8  C   LIG    1       30.173 -18.498   6.361  0.00  0.00    +0.042 C 
ENDROOT
BRANCH   1  10
ATOM      9  O   LIG    1       32.012 -19.299   9.391  0.00  0.00    -0.250 OA
ATOM     10  C   LIG    1       31.787 -18.771   8.306  0.00  0.00    +0.314 C 
BRANCH  10  11
ATOM     11  O   LIG    1       32.086 -17.470   8.093  0.00  0.00    -0.480 OA
ATOM     12  H   LIG    1       31.500 -16.853   8.571  0.00  0.00    +0.295 HD
ENDBRANCH  10  11
ENDBRANCH   1  10
BRANCH   4  13
ATOM     13  C   LIG    1       26.480 -20.532   8.250  0.00  0.00    +0.209 C 
ATOM     14  O   LIG    1       26.008 -20.260   9.352  0.00  0.00    -0.285 OA
BRANCH  13  15
ATOM     15  C   LIG    1       25.547 -20.566   7.077  0.00  0.00    +0.024 C 
ATOM     16  C   LIG    1       24.167 -20.667   7.306  0.00  0.00    +0.012 C 
ATOM     17  C   LIG    1       23.271 -20.696   6.232  0.00  0.00    +0.001 C 
ATOM     18  C   LIG    1       23.747 -20.631   4.923  0.00  0.00    +0.000 C 
ATOM     19  C   LIG    1       25.118 -20.568   4.685  0.00  0.00    +0.001 C 
ATOM     20  C   LIG    1       26.018 -20.551   5.755  0.00  0.00    +0.012 C 
ENDBRANCH  13  15
ENDBRANCH   4  13
TORSDOF 4
ENDMDL
MODEL 9
REMARK VINA RESULT:      -7.4      4.095      7.636
REMARK  Name = *****
REMARK                            x       y       z     vdW  Elec       q    Type
REMARK                         _______ _______ _______ _____ _____    ______ ____
ROOT
ATOM      1  C   LIG    1       24.536 -30.905   7.301  0.00  0.00    +0.146 C 
ATOM      2  C   LIG    1       25.248 -29.686   7.783  0.00  0.00    +0.033 C 
ATOM      3  N   LIG    1       25.186 -28.684   6.854  0.00  0.00    -0.341 NA
ATOM      4  C   LIG    1       25.921 -27.601   7.228  0.00  0.00    +0.090 C 
ATOM      5  C   LIG    1       26.304 -27.877   8.542  0.00  0.00    +0.031 C 
ATOM      6  C   LIG    1       24.382 -29.033   5.693  0.00  0.00    +0.123 C 
ATOM      7  C   LIG    1       25.882 -29.195   8.891  0.00  0.00    +0.024 C 
ATOM      8  C   LIG    1       23.649 -30.302   6.175  0.00  0.00    +0.042 C 
ENDROOT
BRANCH   1  10
ATOM      9  O   LIG    1       25.253 -33.172   6.796  0.00  0.00    -0.250 OA
ATOM     10  C   LIG    1       25.483 -31.967   6.747  0.00  0.00    +0.314 C 
BRANCH  10  11
ATOM     11  O   LIG    1       26.656 -31.504   6.259  0.00  0.00    -0.480 OA
ATOM     12  H   LIG    1       26.598 -30.597   5.903  0.00  0.00    +0.295 HD
ENDBRANCH  10  11
ENDBRANCH   1  10
BRANCH   4  13
ATOM     13  C   LIG    1       26.154 -26.427   6.399  0.00  0.00    +0.209 C 
ATOM     14  O   LIG    1       27.011 -26.407   5.518  0.00  0.00    -0.285 OA
BRANCH  13  15
ATOM     15  C   LIG    1       25.349 -25.181   6.621  0.00  0.00    +0.024 C 
ATOM     16  C   LIG    1       23.968 -25.208   6.376  0.00  0.00    +0.012 C 
ATOM     17  C   LIG    1       23.190 -24.063   6.579  0.00  0.00    +0.001 C 
ATOM     18  C   LIG    1       23.787 -22.883   7.021  0.00  0.00    +0.000 C 
ATOM     19  C   LIG    1       25.163 -22.836   7.232  0.00  0.00    +0.001 C 
ATOM     20  C   LIG    1       25.946 -23.975   7.018  0.00  0.00    +0.012 C 
ENDBRANCH  13  15
ENDBRANCH   4  13
TORSDOF 4
ENDMDL
