MODEL 1
REMARK VINA RESULT:      -3.5      0.000      0.000
REMARK  Name = *****
REMARK                            x       y       z     vdW  Elec       q    Type
REMARK                         _______ _______ _______ _____ _____    ______ ____
ROOT
ATOM      1  N   LIG    1       22.773 -17.835   4.774  0.00  0.00    -0.311 NA
ATOM      2  H   LIG    1       22.794 -17.625   5.772  0.00  0.00    +0.122 HD
ENDROOT
BRANCH   1   3
ATOM      3  C   LIG    1       22.613 -16.575   4.020  0.00  0.00    +0.115 C 
BRANCH   3   4
ATOM      4  C   LIG    1       23.202 -15.376   4.796  0.00  0.00    +0.169 C 
BRANCH   4   5
ATOM      5  C   LIG    1       23.187 -14.090   3.931  0.00  0.00    +0.203 C 
ATOM      6  O   LIG    1       24.152 -14.168   2.867  0.00  0.00    -0.486 OA
ATOM      7  C   LIG    1       25.445 -13.896   3.229  0.00  0.00    +0.124 A 
ATOM      8  C   LIG    1       25.790 -13.214   4.402  0.00  0.00    -0.003 A 
ATOM      9  C   LIG    1       27.150 -13.031   4.704  0.00  0.00    +0.045 A 
ATOM     10  C   LIG    1       28.120 -13.500   3.827  0.00  0.00    +0.124 A 
ATOM     11  C   LIG    1       27.779 -14.141   2.646  0.00  0.00    +0.042 A 
ATOM     12  F   LIG    1       29.418 -13.328   4.131  0.00  0.00    -0.205 F 
ATOM     13  C   LIG    1       24.739 -12.706   5.345  0.00  0.00    +0.042 C 
ATOM     14  C   LIG    1       26.428 -14.337   2.342  0.00  0.00    +0.049 A 
ATOM     15  C   LIG    1       23.356 -12.785   4.714  0.00  0.00    +0.052 C 
ENDBRANCH   4   5
BRANCH   4  16
ATOM     16  O   LIG    1       22.447 -15.163   5.997  0.00  0.00    -0.387 OA
ATOM     17  H   LIG    1       22.963 -15.582   6.710  0.00  0.00    +0.210 HD
ENDBRANCH   4  16
ENDBRANCH   3   4
ENDBRANCH   1   3
BRANCH   1  18
ATOM     18  C   LIG    1       21.617 -18.717   4.526  0.00  0.00    +0.115 C 
BRANCH  18  19
ATOM     19  C   LIG    1       22.066 -20.137   4.100  0.00  0.00    +0.169 C 
BRANCH  19  20
ATOM     20  C   LIG    1       23.325 -20.608   4.858  0.00  0.00    +0.203 C 
ATOM     21  O   LIG    1       24.455 -19.884   4.346  0.00  0.00    -0.486 OA
ATOM     22  C   LIG    1       25.609 -20.011   5.071  0.00  0.00    +0.124 A 
ATOM     23  C   LIG    1       25.654 -20.530   6.372  0.00  0.00    -0.003 A 
ATOM     24  C   LIG    1       26.887 -20.616   7.029  0.00  0.00    +0.045 A 
ATOM     25  C   LIG    1       28.041 -20.163   6.398  0.00  0.00    +0.124 A 
ATOM     26  C   LIG    1       27.994 -19.625   5.118  0.00  0.00    +0.042 A 
ATOM     27  F   LIG    1       29.214 -20.242   7.039  0.00  0.00    -0.205 F 
ATOM     28  C   LIG    1       24.409 -21.013   7.054  0.00  0.00    +0.042 C 
ATOM     29  C   LIG    1       26.772 -19.548   4.452  0.00  0.00    +0.049 A 
ATOM     30  C   LIG    1       23.182 -20.433   6.373  0.00  0.00    +0.052 C 
ENDBRANCH  19  20
BRANCH  19  31
ATOM     31  O   LIG    1       21.017 -21.098   4.293  0.00  0.00    -0.387 OA
ATOM     32  H   LIG    1       20.329 -20.670   4.833  0.00  0.00    +0.210 HD
ENDBRANCH  19  31
ENDBRANCH  18  19
ENDBRANCH   1  18
TORSDOF 8
ENDMDL
MODEL 2
REMARK VINA RESULT:      -2.3      1.468      6.696
REMARK  Name = *****
REMARK                            x       y       z     vdW  Elec       q    Type
REMARK                         _______ _______ _______ _____ _____    ______ ____
ROOT
ATOM      1  N   LIG    1       21.752 -17.865   4.432  0.00  0.00    -0.311 NA
ATOM      2  H   LIG    1       21.401 -17.778   5.386  0.00  0.00    +0.122 HD
ENDROOT
BRANCH   1   3
ATOM      3  C   LIG    1       22.889 -18.807   4.422  0.00  0.00    +0.115 C 
BRANCH   3   4
ATOM      4  C   LIG    1       22.655 -19.983   5.397  0.00  0.00    +0.169 C 
BRANCH   4   5
ATOM      5  C   LIG    1       23.446 -21.240   4.955  0.00  0.00    +0.203 C 
ATOM      6  O   LIG    1       24.472 -21.570   5.908  0.00  0.00    -0.486 OA
ATOM      7  C   LIG    1       25.620 -20.828   5.811  0.00  0.00    +0.124 A 
ATOM      8  C   LIG    1       25.970 -20.093   4.672  0.00  0.00    -0.003 A 
ATOM      9  C   LIG    1       27.146 -19.325   4.697  0.00  0.00    +0.045 A 
ATOM     10  C   LIG    1       27.949 -19.331   5.831  0.00  0.00    +0.124 A 
ATOM     11  C   LIG    1       27.623 -20.088   6.944  0.00  0.00    +0.042 A 
ATOM     12  F   LIG    1       29.067 -18.584   5.847  0.00  0.00    -0.205 F 
ATOM     13  C   LIG    1       25.102 -20.093   3.449  0.00  0.00    +0.042 C 
ATOM     14  C   LIG    1       26.449 -20.848   6.933  0.00  0.00    +0.049 A 
ATOM     15  C   LIG    1       24.029 -21.170   3.541  0.00  0.00    +0.052 C 
ENDBRANCH   4   5
BRANCH   4  16
ATOM     16  O   LIG    1       23.053 -19.597   6.719  0.00  0.00    -0.387 OA
ATOM     17  H   LIG    1       23.996 -19.833   6.790  0.00  0.00    +0.210 HD
ENDBRANCH   4  16
ENDBRANCH   3   4
ENDBRANCH   1   3
BRANCH   1  18
ATOM     18  C   LIG    1       22.204 -16.530   3.997  0.00  0.00    +0.115 C 
BRANCH  18  19
ATOM     19  C   LIG    1       22.751 -15.699   5.184  0.00  0.00    +0.169 C 
BRANCH  19  20
ATOM     20  C   LIG    1       23.636 -14.523   4.721  0.00  0.00    +0.203 C 
ATOM     21  O   LIG    1       25.012 -14.907   4.873  0.00  0.00    -0.486 OA
ATOM     22  C   LIG    1       25.922 -14.070   4.286  0.00  0.00    +0.124 A 
ATOM     23  C   LIG    1       25.579 -13.090   3.345  0.00  0.00    -0.003 A 
ATOM     24  C   LIG    1       26.588 -12.284   2.803  0.00  0.00    +0.045 A 
ATOM     25  C   LIG    1       27.912 -12.483   3.180  0.00  0.00    +0.124 A 
ATOM     26  C   LIG    1       28.255 -13.471   4.095  0.00  0.00    +0.042 A 
ATOM     27  F   LIG    1       28.869 -11.713   2.650  0.00  0.00    -0.205 F 
ATOM     28  C   LIG    1       24.153 -12.879   2.934  0.00  0.00    +0.042 C 
ATOM     29  C   LIG    1       27.256 -14.269   4.650  0.00  0.00    +0.049 A 
ATOM     30  C   LIG    1       23.324 -14.103   3.280  0.00  0.00    +0.052 C 
ENDBRANCH  19  20
BRANCH  19  31
ATOM     31  O   LIG    1       21.688 -15.190   6.003  0.00  0.00    -0.387 OA
ATOM     32  H   LIG    1       21.337 -15.939   6.517  0.00  0.00    +0.210 HD
ENDBRANCH  19  31
ENDBRANCH  18  19
ENDBRANCH   1  18
TORSDOF 8
ENDMDL
