MODEL 1
REMARK VINA RESULT:       1.9      0.000      0.000
REMARK  Name = *****
REMARK                            x       y       z     vdW  Elec       q    Type
REMARK                         _______ _______ _______ _____ _____    ______ ____
ROOT
ATOM      1  O   LIG    1       26.067 -20.899   3.039  0.00  0.00    -0.252 OA
ATOM      2  C   LIG    1       25.302 -20.211   3.704  0.00  0.00    +0.312 C 
ATOM      3  N   LIG    1       25.147 -20.214   5.045  0.00  0.00    -0.199 N 
ATOM      4  C   LIG    1       24.089 -19.420   5.404  0.00  0.00    +0.258 C 
ATOM      5  O   LIG    1       23.643 -19.317   6.542  0.00  0.00    -0.272 OA
ATOM      6  C   LIG    1       23.580 -18.657   4.137  0.00  0.00    +0.164 C 
ATOM      7  N   LIG    1       24.408 -19.332   3.153  0.00  0.00    -0.278 N 
ATOM      8  H   LIG    1       24.364 -19.177   2.155  0.00  0.00    +0.152 HD
ENDROOT
BRANCH   6   9
ATOM      9  C   LIG    1       22.086 -18.937   3.889  0.00  0.00    -0.011 A 
ATOM     10  C   LIG    1       21.269 -17.999   3.223  0.00  0.00    +0.006 A 
ATOM     11  C   LIG    1       19.918 -18.260   2.970  0.00  0.00    +0.000 A 
ATOM     12  C   LIG    1       19.352 -19.464   3.373  0.00  0.00    +0.000 A 
ATOM     13  C   LIG    1       20.136 -20.408   4.029  0.00  0.00    +0.000 A 
ATOM     14  C   LIG    1       21.490 -20.152   4.276  0.00  0.00    +0.006 A 
ENDBRANCH   6   9
BRANCH   6  15
ATOM     15  C   LIG    1       23.978 -17.169   4.136  0.00  0.00    -0.011 A 
ATOM     16  C   LIG    1       25.233 -16.723   3.682  0.00  0.00    +0.006 A 
ATOM     17  C   LIG    1       25.548 -15.362   3.647  0.00  0.00    +0.000 A 
ATOM     18  C   LIG    1       24.621 -14.418   4.073  0.00  0.00    +0.000 A 
ATOM     19  C   LIG    1       23.381 -14.834   4.548  0.00  0.00    +0.000 A 
ATOM     20  C   LIG    1       23.062 -16.193   4.585  0.00  0.00    +0.006 A 
ENDBRANCH   6  15
BRANCH   3  21
ATOM     21  C   LIG    1       25.911 -21.021   5.957  0.00  0.00    +0.292 C 
BRANCH  21  22
ATOM     22  O   LIG    1       26.701 -20.169   6.763  0.00  0.00    -0.267 OA
BRANCH  22  23
ATOM     23  P   LIG    1       28.267 -20.143   6.461  0.00  0.00    +0.474 P 
ATOM     24  O   LIG    1       29.051 -19.030   7.062  0.00  0.00    -0.228 OA
BRANCH  23  25
ATOM     25  O   LIG    1       28.423 -20.232   4.876  0.00  0.00    -0.303 OA
ATOM     26  H   LIG    1       27.644 -20.658   4.472  0.00  0.00    +0.222 HD
ENDBRANCH  23  25
BRANCH  23  27
ATOM     27  O   LIG    1       28.806 -21.571   6.926  0.00  0.00    -0.303 OA
ATOM     28  H   LIG    1       28.854 -22.185   6.169  0.00  0.00    +0.222 HD
ENDBRANCH  23  27
ENDBRANCH  22  23
ENDBRANCH  21  22
ENDBRANCH   3  21
TORSDOF 7
ENDMDL
MODEL 2
REMARK VINA RESULT:       3.7      0.964      4.101
REMARK  Name = *****
REMARK                            x       y       z     vdW  Elec       q    Type
REMARK                         _______ _______ _______ _____ _____    ______ ____
ROOT
ATOM      1  O   LIG    1       24.561 -20.419   7.058  0.00  0.00    -0.252 OA
ATOM      2  C   LIG    1       24.320 -19.952   5.951  0.00  0.00    +0.312 C 
ATOM      3  N   LIG    1       24.824 -20.347   4.762  0.00  0.00    -0.199 N 
ATOM      4  C   LIG    1       24.439 -19.483   3.771  0.00  0.00    +0.258 C 
ATOM      5  O   LIG    1       24.834 -19.525   2.610  0.00  0.00    -0.272 OA
ATOM      6  C   LIG    1       23.402 -18.471   4.359  0.00  0.00    +0.164 C 
ATOM      7  N   LIG    1       23.506 -18.868   5.753  0.00  0.00    -0.278 N 
ATOM      8  H   LIG    1       23.024 -18.420   6.520  0.00  0.00    +0.152 HD
ENDROOT
BRANCH   6   9
ATOM      9  C   LIG    1       23.876 -17.019   4.162  0.00  0.00    -0.011 A 
ATOM     10  C   LIG    1       23.072 -15.929   4.558  0.00  0.00    +0.006 A 
ATOM     11  C   LIG    1       23.509 -14.609   4.406  0.00  0.00    +0.000 A 
ATOM     12  C   LIG    1       24.760 -14.346   3.858  0.00  0.00    +0.000 A 
ATOM     13  C   LIG    1       25.574 -15.403   3.462  0.00  0.00    +0.000 A 
ATOM     14  C   LIG    1       25.142 -16.724   3.620  0.00  0.00    +0.006 A 
ENDBRANCH   6   9
BRANCH   6  15
ATOM     15  C   LIG    1       21.960 -18.759   3.901  0.00  0.00    -0.011 A 
ATOM     16  C   LIG    1       21.220 -17.852   3.119  0.00  0.00    +0.006 A 
ATOM     17  C   LIG    1       19.932 -18.162   2.677  0.00  0.00    +0.000 A 
ATOM     18  C   LIG    1       19.350 -19.380   3.014  0.00  0.00    +0.000 A 
ATOM     19  C   LIG    1       20.051 -20.284   3.806  0.00  0.00    +0.000 A 
ATOM     20  C   LIG    1       21.340 -19.977   4.249  0.00  0.00    +0.006 A 
ENDBRANCH   6  15
BRANCH   3  21
ATOM     21  C   LIG    1       25.724 -21.453   4.581  0.00  0.00    +0.292 C 
BRANCH  21  22
ATOM     22  O   LIG    1       26.534 -21.571   5.734  0.00  0.00    -0.267 OA
BRANCH  22  23
ATOM     23  P   LIG    1       27.731 -20.526   5.880  0.00  0.00    +0.474 P 
ATOM     24  O   LIG    1       27.694 -19.622   7.062  0.00  0.00    -0.228 OA
BRANCH  23  25
ATOM     25  O   LIG    1       27.816 -19.741   4.495  0.00  0.00    -0.303 OA
ATOM     26  H   LIG    1       28.287 -20.268   3.823  0.00  0.00    +0.222 HD
ENDBRANCH  23  25
BRANCH  23  27
ATOM     27  O   LIG    1       29.061 -21.406   5.844  0.00  0.00    -0.303 OA
ATOM     28  H   LIG    1       28.859 -22.344   6.027  0.00  0.00    +0.222 HD
ENDBRANCH  23  27
ENDBRANCH  22  23
ENDBRANCH  21  22
ENDBRANCH   3  21
TORSDOF 7
ENDMDL
