MODEL 1
REMARK VINA RESULT:       3.3      0.000      0.000
REMARK  Name = *****
REMARK                            x       y       z     vdW  Elec       q    Type
REMARK                         _______ _______ _______ _____ _____    ______ ____
ROOT
ATOM      1  C   LIG    1       25.958 -13.142   3.875  0.00  0.00    +0.075 C 
ATOM      2  C   LIG    1       25.371 -14.395   4.625  0.00  0.00    +0.000 C 
ATOM      3  C   LIG    1       25.579 -14.227   6.167  0.00  0.00    +0.014 C 
ATOM      4  C   LIG    1       26.279 -15.574   4.152  0.00  0.00    +0.001 C 
ATOM      5  C   LIG    1       25.707 -16.508   3.054  0.00  0.00    -0.003 C 
ATOM      6  C   LIG    1       24.215 -16.832   3.255  0.00  0.00    -0.000 C 
ATOM      7  C   LIG    1       23.435 -15.513   3.292  0.00  0.00    +0.005 C 
ATOM      8  C   LIG    1       23.968 -17.772   4.472  0.00  0.00    +0.018 C 
ATOM      9  C   LIG    1       24.851 -19.011   4.386  0.00  0.00    -0.070 C 
ATOM     10  C   LIG    1       24.380 -20.253   4.598  0.00  0.00    -0.027 C 
ATOM     11  C   LIG    1       22.970 -20.554   5.005  0.00  0.00    +0.027 C 
ATOM     12  C   LIG    1       22.232 -19.318   5.510  0.00  0.00    +0.005 C 
ATOM     13  C   LIG    1       26.310 -18.774   4.085  0.00  0.00    +0.031 C 
ATOM     14  C   LIG    1       22.469 -18.131   4.585  0.00  0.00    +0.008 C 
ATOM     15  C   LIG    1       26.511 -17.815   2.915  0.00  0.00    +0.008 C 
ATOM     16  C   LIG    1       27.602 -14.915   3.683  0.00  0.00    +0.007 C 
ATOM     17  C   LIG    1       23.849 -14.608   4.444  0.00  0.00    +0.010 C 
ATOM     18  C   LIG    1       27.469 -13.418   3.937  0.00  0.00    +0.036 C 
ENDROOT
BRANCH   1  19
ATOM     19  O   LIG    1       25.649 -11.953   4.609  0.00  0.00    -0.388 OA
ATOM     20  H   LIG    1       25.135 -12.218   5.392  0.00  0.00    +0.210 HD
ENDBRANCH   1  19
BRANCH   1  21
ATOM     21  C   LIG    1       25.456 -12.945   2.417  0.00  0.00    +0.062 C 
BRANCH  21  23
ATOM     22  C   LIG    1       23.477 -11.449   2.881  0.00  0.00    +0.004 C 
ATOM     23  C   LIG    1       24.605 -11.714   2.206  0.00  0.00    -0.032 C 
ENDBRANCH  21  23
ENDBRANCH   1  21
TORSDOF 3
ENDMDL
MODEL 2
REMARK VINA RESULT:       5.8      1.469      3.354
REMARK  Name = *****
REMARK                            x       y       z     vdW  Elec       q    Type
REMARK                         _______ _______ _______ _____ _____    ______ ____
ROOT
ATOM      1  C   LIG    1       25.733 -12.558   3.792  0.00  0.00    +0.075 C 
ATOM      2  C   LIG    1       25.055 -13.864   3.233  0.00  0.00    +0.000 C 
ATOM      3  C   LIG    1       24.464 -13.581   1.812  0.00  0.00    +0.014 C 
ATOM      4  C   LIG    1       23.856 -14.108   4.204  0.00  0.00    +0.001 C 
ATOM      5  C   LIG    1       24.042 -15.194   5.295  0.00  0.00    -0.003 C 
ATOM      6  C   LIG    1       24.771 -16.448   4.780  0.00  0.00    -0.000 C 
ATOM      7  C   LIG    1       26.132 -16.020   4.217  0.00  0.00    +0.005 C 
ATOM      8  C   LIG    1       23.896 -17.289   3.804  0.00  0.00    +0.018 C 
ATOM      9  C   LIG    1       22.535 -17.589   4.421  0.00  0.00    -0.070 C 
ATOM     10  C   LIG    1       21.980 -18.814   4.393  0.00  0.00    -0.027 C 
ATOM     11  C   LIG    1       22.594 -19.994   3.702  0.00  0.00    +0.027 C 
ATOM     12  C   LIG    1       23.703 -19.592   2.735  0.00  0.00    +0.005 C 
ATOM     13  C   LIG    1       21.808 -16.422   5.042  0.00  0.00    +0.031 C 
ATOM     14  C   LIG    1       24.639 -18.575   3.377  0.00  0.00    +0.008 C 
ATOM     15  C   LIG    1       22.711 -15.599   5.957  0.00  0.00    +0.008 C 
ATOM     16  C   LIG    1       23.554 -12.729   4.842  0.00  0.00    +0.007 C 
ATOM     17  C   LIG    1       26.014 -15.064   3.040  0.00  0.00    +0.010 C 
ATOM     18  C   LIG    1       24.511 -11.725   4.211  0.00  0.00    +0.036 C 
ENDROOT
BRANCH   1  19
ATOM     19  O   LIG    1       26.438 -11.894   2.738  0.00  0.00    -0.388 OA
ATOM     20  H   LIG    1       26.240 -10.944   2.806  0.00  0.00    +0.210 HD
ENDBRANCH   1  19
BRANCH   1  21
ATOM     21  C   LIG    1       26.726 -12.776   4.967  0.00  0.00    +0.062 C 
BRANCH  21  23
ATOM     22  C   LIG    1       28.885 -13.239   3.744  0.00  0.00    +0.004 C 
ATOM     23  C   LIG    1       28.175 -12.516   4.621  0.00  0.00    -0.032 C 
ENDBRANCH  21  23
ENDBRANCH   1  21
TORSDOF 3
ENDMDL
MODEL 3
REMARK VINA RESULT:       6.0      2.332      6.190
REMARK  Name = *****
REMARK                            x       y       z     vdW  Elec       q    Type
REMARK                         _______ _______ _______ _____ _____    ______ ____
ROOT
ATOM      1  C   LIG    1       23.719 -19.566   4.498  0.00  0.00    +0.075 C 
ATOM      2  C   LIG    1       23.666 -18.275   3.600  0.00  0.00    +0.000 C 
ATOM      3  C   LIG    1       23.142 -18.650   2.173  0.00  0.00    +0.014 C 
ATOM      4  C   LIG    1       25.163 -17.856   3.458  0.00  0.00    +0.001 C 
ATOM      5  C   LIG    1       25.656 -16.687   4.350  0.00  0.00    -0.003 C 
ATOM      6  C   LIG    1       24.633 -15.541   4.462  0.00  0.00    -0.000 C 
ATOM      7  C   LIG    1       23.323 -16.115   5.012  0.00  0.00    +0.005 C 
ATOM      8  C   LIG    1       24.488 -14.738   3.135  0.00  0.00    +0.018 C 
ATOM      9  C   LIG    1       25.852 -14.286   2.626  0.00  0.00    -0.070 C 
ATOM     10  C   LIG    1       26.086 -13.033   2.195  0.00  0.00    -0.027 C 
ATOM     11  C   LIG    1       25.034 -11.971   2.103  0.00  0.00    +0.027 C 
ATOM     12  C   LIG    1       23.621 -12.540   2.188  0.00  0.00    +0.005 C 
ATOM     13  C   LIG    1       26.936 -15.335   2.589  0.00  0.00    +0.031 C 
ATOM     14  C   LIG    1       23.513 -13.554   3.320  0.00  0.00    +0.008 C 
ATOM     15  C   LIG    1       27.017 -16.128   3.890  0.00  0.00    +0.008 C 
ATOM     16  C   LIG    1       25.981 -19.144   3.733  0.00  0.00    +0.007 C 
ATOM     17  C   LIG    1       22.707 -17.169   4.104  0.00  0.00    +0.010 C 
ATOM     18  C   LIG    1       24.978 -20.267   3.965  0.00  0.00    +0.036 C 
ENDROOT
BRANCH   1  19
ATOM     19  O   LIG    1       22.566 -20.375   4.245  0.00  0.00    -0.388 OA
ATOM     20  H   LIG    1       22.126 -20.535   5.098  0.00  0.00    +0.210 HD
ENDBRANCH   1  19
BRANCH   1  21
ATOM     21  C   LIG    1       23.793 -19.307   6.029  0.00  0.00    +0.062 C 
BRANCH  21  23
ATOM     22  C   LIG    1       22.763 -21.572   6.457  0.00  0.00    +0.004 C 
ATOM     23  C   LIG    1       23.453 -20.505   6.886  0.00  0.00    -0.032 C 
ENDBRANCH  21  23
ENDBRANCH   1  21
TORSDOF 3
ENDMDL
