MODEL 1
REMARK VINA RESULT:     -10.0      0.000      0.000
REMARK  Name = *****
REMARK                            x       y       z     vdW  Elec       q    Type
REMARK                         _______ _______ _______ _____ _____    ______ ____
ROOT
ATOM      1  P   LIG    1       26.417 -20.633   7.195  0.00  0.00    +0.345 P 
ATOM      2  O   LIG    1       26.644 -20.422   8.707  0.00  0.00    -0.257 OA
ENDROOT
BRANCH   1   3
ATOM      3  N   LIG    1       28.060 -20.170   6.792  0.00  0.00    -0.221 NA
ATOM      4  H   LIG    1       28.450 -20.947   6.263  0.00  0.00    +0.133 HD
BRANCH   3   5
ATOM      5  C   LIG    1       29.044 -19.814   7.864  0.00  0.00    +0.169 C 
ATOM      6  C   LIG    1       29.960 -21.026   8.084  0.00  0.00    +0.036 C 
BRANCH   5   7
ATOM      7  C   LIG    1       30.005 -18.681   7.452  0.00  0.00    +0.325 C 
ATOM      8  O   LIG    1       30.033 -18.158   6.361  0.00  0.00    -0.249 OA
BRANCH   7   9
ATOM      9  O   LIG    1       30.981 -18.497   8.416  0.00  0.00    -0.461 OA
BRANCH   9  11
ATOM     10  C   LIG    1       30.292 -17.596  10.592  0.00  0.00    +0.051 C 
ATOM     11  C   LIG    1       30.841 -17.291   9.203  0.00  0.00    +0.170 C 
ATOM     12  C   LIG    1       32.212 -16.616   9.297  0.00  0.00    +0.051 C 
ENDBRANCH   9  11
ENDBRANCH   7   9
ENDBRANCH   5   7
ENDBRANCH   3   5
ENDBRANCH   1   3
BRANCH   1  13
ATOM     13  O   LIG    1       26.168 -20.866   5.533  0.00  0.00    -0.431 OA
BRANCH  13  14
ATOM     14  C   LIG    1       24.945 -20.357   5.117  0.00  0.00    +0.129 A 
ATOM     15  C   LIG    1       24.832 -19.586   3.948  0.00  0.00    +0.046 A 
ATOM     16  C   LIG    1       23.644 -18.922   3.648  0.00  0.00    +0.004 A 
ATOM     17  C   LIG    1       22.545 -19.058   4.489  0.00  0.00    +0.000 A 
ATOM     18  C   LIG    1       22.629 -19.886   5.610  0.00  0.00    +0.004 A 
ATOM     19  C   LIG    1       23.828 -20.542   5.925  0.00  0.00    +0.046 A 
ENDBRANCH  13  14
ENDBRANCH   1  13
BRANCH   1  20
ATOM     20  C   LIG    1       26.651 -22.647   7.301  0.00  0.00    +0.286 C 
BRANCH  20  21
ATOM     21  O   LIG    1       25.350 -23.245   7.462  0.00  0.00    -0.363 OA
BRANCH  21  22
ATOM     22  C   LIG    1       25.083 -24.270   6.484  0.00  0.00    +0.136 C 
ATOM     23  C   LIG    1       23.623 -24.732   6.566  0.00  0.00    +0.039 C 
BRANCH  22  24
ATOM     24  C   LIG    1       25.976 -25.501   6.750  0.00  0.00    +0.156 C 
BRANCH  24  25
ATOM     25  N   LIG    1       25.462 -26.758   6.254  0.00  0.00    -0.312 N 
ATOM     26  C   LIG    1       25.398 -27.945   6.929  0.00  0.00    +0.165 A 
ATOM     27  N   LIG    1       25.781 -28.201   8.190  0.00  0.00    -0.216 NA
ATOM     28  C   LIG    1       25.500 -29.479   8.522  0.00  0.00    +0.225 A 
ATOM     29  N   LIG    1       24.901 -30.433   7.775  0.00  0.00    -0.219 NA
ATOM     30  C   LIG    1       24.556 -30.126   6.503  0.00  0.00    +0.147 A 
ATOM     31  C   LIG    1       24.818 -28.829   6.032  0.00  0.00    +0.147 A 
ATOM     32  N   LIG    1       24.586 -28.217   4.817  0.00  0.00    -0.231 NA
ATOM     33  C   LIG    1       25.013 -26.983   4.978  0.00  0.00    +0.201 A 
BRANCH  30  34
ATOM     34  N   LIG    1       23.919 -31.098   5.739  0.00  0.00    -0.341 N 
ATOM     35  H   LIG    1       24.571 -31.769   5.343  0.00  0.00    +0.144 HD
ATOM     36  H   LIG    1       23.244 -30.687   5.107  0.00  0.00    +0.144 HD
ENDBRANCH  30  34
ENDBRANCH  24  25
ENDBRANCH  22  24
ENDBRANCH  21  22
ENDBRANCH  20  21
ENDBRANCH   1  20
TORSDOF 13
ENDMDL
MODEL 2
REMARK VINA RESULT:     -10.0      1.221      1.742
REMARK  Name = *****
REMARK                            x       y       z     vdW  Elec       q    Type
REMARK                         _______ _______ _______ _____ _____    ______ ____
ROOT
ATOM      1  P   LIG    1       26.159 -21.315   7.266  0.00  0.00    +0.345 P 
ATOM      2  O   LIG    1       26.444 -21.268   8.783  0.00  0.00    -0.257 OA
ENDROOT
BRANCH   1   3
ATOM      3  N   LIG    1       27.775 -21.881   6.888  0.00  0.00    -0.221 NA
ATOM      4  H   LIG    1       28.017 -22.550   7.616  0.00  0.00    +0.133 HD
BRANCH   3   5
ATOM      5  C   LIG    1       28.917 -20.920   6.761  0.00  0.00    +0.169 C 
ATOM      6  C   LIG    1       28.343 -19.554   6.359  0.00  0.00    +0.036 C 
BRANCH   5   7
ATOM      7  C   LIG    1       29.635 -20.652   8.099  0.00  0.00    +0.325 C 
ATOM      8  O   LIG    1       30.118 -21.505   8.809  0.00  0.00    -0.249 OA
BRANCH   7   9
ATOM      9  O   LIG    1       29.456 -19.338   8.492  0.00  0.00    -0.461 OA
BRANCH   9  11
ATOM     10  C   LIG    1       31.723 -18.507   8.056  0.00  0.00    +0.051 C 
ATOM     11  C   LIG    1       30.618 -18.715   9.086  0.00  0.00    +0.170 C 
ATOM     12  C   LIG    1       30.189 -17.379   9.698  0.00  0.00    +0.051 C 
ENDBRANCH   9  11
ENDBRANCH   7   9
ENDBRANCH   5   7
ENDBRANCH   3   5
ENDBRANCH   1   3
BRANCH   1  13
ATOM     13  O   LIG    1       25.844 -21.367   5.599  0.00  0.00    -0.431 OA
BRANCH  13  14
ATOM     14  C   LIG    1       24.850 -20.472   5.232  0.00  0.00    +0.129 A 
ATOM     15  C   LIG    1       23.628 -20.411   5.920  0.00  0.00    +0.046 A 
ATOM     16  C   LIG    1       22.570 -19.651   5.425  0.00  0.00    +0.004 A 
ATOM     17  C   LIG    1       22.739 -18.908   4.262  0.00  0.00    +0.000 A 
ATOM     18  C   LIG    1       23.977 -18.903   3.617  0.00  0.00    +0.004 A 
ATOM     19  C   LIG    1       25.039 -19.681   4.103  0.00  0.00    +0.046 A 
ENDBRANCH  13  14
ENDBRANCH   1  13
BRANCH   1  20
ATOM     20  C   LIG    1       25.191 -23.097   7.364  0.00  0.00    +0.286 C 
BRANCH  20  21
ATOM     21  O   LIG    1       26.142 -24.144   7.088  0.00  0.00    -0.363 OA
BRANCH  21  22
ATOM     22  C   LIG    1       25.551 -25.267   6.404  0.00  0.00    +0.136 C 
ATOM     23  C   LIG    1       24.021 -25.154   6.395  0.00  0.00    +0.039 C 
BRANCH  22  24
ATOM     24  C   LIG    1       25.916 -26.580   7.131  0.00  0.00    +0.156 C 
BRANCH  24  25
ATOM     25  N   LIG    1       25.449 -27.791   6.494  0.00  0.00    -0.312 N 
ATOM     26  C   LIG    1       24.925 -28.894   7.108  0.00  0.00    +0.165 A 
ATOM     27  N   LIG    1       24.719 -29.091   8.421  0.00  0.00    -0.216 NA
ATOM     28  C   LIG    1       24.124 -30.284   8.635  0.00  0.00    +0.225 A 
ATOM     29  N   LIG    1       23.731 -31.205   7.727  0.00  0.00    -0.219 NA
ATOM     30  C   LIG    1       23.983 -30.964   6.420  0.00  0.00    +0.147 A 
ATOM     31  C   LIG    1       24.620 -29.763   6.071  0.00  0.00    +0.147 A 
ATOM     32  N   LIG    1       25.001 -29.231   4.856  0.00  0.00    -0.231 NA
ATOM     33  C   LIG    1       25.523 -28.061   5.152  0.00  0.00    +0.201 A 
BRANCH  30  34
ATOM     34  N   LIG    1       23.559 -31.901   5.483  0.00  0.00    -0.341 N 
ATOM     35  H   LIG    1       22.978 -31.489   4.759  0.00  0.00    +0.144 HD
ATOM     36  H   LIG    1       23.210 -32.738   5.930  0.00  0.00    +0.144 HD
ENDBRANCH  30  34
ENDBRANCH  24  25
ENDBRANCH  22  24
ENDBRANCH  21  22
ENDBRANCH  20  21
ENDBRANCH   1  20
TORSDOF 13
ENDMDL
MODEL 3
REMARK VINA RESULT:      -9.6      1.681      2.509
REMARK  Name = *****
REMARK                            x       y       z     vdW  Elec       q    Type
REMARK                         _______ _______ _______ _____ _____    ______ ____
ROOT
ATOM      1  P   LIG    1       24.590 -22.672   6.098  0.00  0.00    +0.345 P 
ATOM      2  O   LIG    1       24.396 -23.260   7.512  0.00  0.00    -0.257 OA
ENDROOT
BRANCH   1   3
ATOM      3  N   LIG    1       26.205 -22.092   6.463  0.00  0.00    -0.221 NA
ATOM      4  H   LIG    1       26.571 -22.712   7.183  0.00  0.00    +0.133 HD
BRANCH   3   5
ATOM      5  C   LIG    1       26.432 -20.685   6.923  0.00  0.00    +0.169 C 
ATOM      6  C   LIG    1       26.196 -20.639   8.439  0.00  0.00    +0.036 C 
BRANCH   5   7
ATOM      7  C   LIG    1       27.892 -20.219   6.751  0.00  0.00    +0.325 C 
ATOM      8  O   LIG    1       28.436 -20.025   5.688  0.00  0.00    -0.249 OA
BRANCH   7   9
ATOM      9  O   LIG    1       28.564 -20.272   7.958  0.00  0.00    -0.461 OA
BRANCH   9  11
ATOM     10  C   LIG    1       30.138 -18.494   8.579  0.00  0.00    +0.051 C 
ATOM     11  C   LIG    1       29.947 -19.849   7.906  0.00  0.00    +0.170 C 
ATOM     12  C   LIG    1       30.804 -20.919   8.586  0.00  0.00    +0.051 C 
ENDBRANCH   9  11
ENDBRANCH   7   9
ENDBRANCH   5   7
ENDBRANCH   3   5
ENDBRANCH   1   3
BRANCH   1  13
ATOM     13  O   LIG    1       24.804 -22.025   4.544  0.00  0.00    -0.431 OA
BRANCH  13  14
ATOM     14  C   LIG    1       24.068 -20.863   4.361  0.00  0.00    +0.129 A 
ATOM     15  C   LIG    1       24.574 -19.785   3.617  0.00  0.00    +0.046 A 
ATOM     16  C   LIG    1       23.914 -18.558   3.604  0.00  0.00    +0.004 A 
ATOM     17  C   LIG    1       22.718 -18.411   4.298  0.00  0.00    +0.000 A 
ATOM     18  C   LIG    1       22.170 -19.502   4.975  0.00  0.00    +0.004 A 
ATOM     19  C   LIG    1       22.841 -20.733   5.005  0.00  0.00    +0.046 A 
ENDBRANCH  13  14
ENDBRANCH   1  13
BRANCH   1  20
ATOM     20  C   LIG    1       25.054 -24.464   5.267  0.00  0.00    +0.286 C 
BRANCH  20  21
ATOM     21  O   LIG    1       26.247 -24.962   5.902  0.00  0.00    -0.363 OA
BRANCH  21  22
ATOM     22  C   LIG    1       26.223 -26.391   6.091  0.00  0.00    +0.136 C 
ATOM     23  C   LIG    1       26.628 -27.116   4.802  0.00  0.00    +0.039 C 
BRANCH  22  24
ATOM     24  C   LIG    1       24.794 -26.853   6.454  0.00  0.00    +0.156 C 
BRANCH  24  25
ATOM     25  N   LIG    1       24.640 -28.273   6.676  0.00  0.00    -0.312 N 
ATOM     26  C   LIG    1       25.207 -29.016   7.673  0.00  0.00    +0.165 A 
ATOM     27  N   LIG    1       26.013 -28.596   8.662  0.00  0.00    -0.216 NA
ATOM     28  C   LIG    1       26.319 -29.616   9.492  0.00  0.00    +0.225 A 
ATOM     29  N   LIG    1       25.906 -30.902   9.436  0.00  0.00    -0.219 NA
ATOM     30  C   LIG    1       25.113 -31.275   8.405  0.00  0.00    +0.147 A 
ATOM     31  C   LIG    1       24.742 -30.305   7.460  0.00  0.00    +0.147 A 
ATOM     32  N   LIG    1       23.956 -30.364   6.327  0.00  0.00    -0.231 NA
ATOM     33  C   LIG    1       23.943 -29.132   5.866  0.00  0.00    +0.201 A 
BRANCH  30  34
ATOM     34  N   LIG    1       24.669 -32.593   8.357  0.00  0.00    -0.341 N 
ATOM     35  H   LIG    1       23.745 -32.705   8.762  0.00  0.00    +0.144 HD
ATOM     36  H   LIG    1       25.387 -33.235   8.668  0.00  0.00    +0.144 HD
ENDBRANCH  30  34
ENDBRANCH  24  25
ENDBRANCH  22  24
ENDBRANCH  21  22
ENDBRANCH  20  21
ENDBRANCH   1  20
TORSDOF 13
ENDMDL
MODEL 4
REMARK VINA RESULT:      -9.5      1.930      3.124
REMARK  Name = *****
REMARK                            x       y       z     vdW  Elec       q    Type
REMARK                         _______ _______ _______ _____ _____    ______ ____
ROOT
ATOM      1  P   LIG    1       24.744 -22.949   6.272  0.00  0.00    +0.345 P 
ATOM      2  O   LIG    1       24.477 -23.652   7.620  0.00  0.00    -0.257 OA
ENDROOT
BRANCH   1   3
ATOM      3  N   LIG    1       26.416 -22.611   6.676  0.00  0.00    -0.221 NA
ATOM      4  H   LIG    1       26.622 -23.162   7.507  0.00  0.00    +0.133 HD
BRANCH   3   5
ATOM      5  C   LIG    1       26.877 -21.210   6.939  0.00  0.00    +0.169 C 
ATOM      6  C   LIG    1       26.048 -20.651   8.104  0.00  0.00    +0.036 C 
BRANCH   5   7
ATOM      7  C   LIG    1       28.334 -21.135   7.438  0.00  0.00    +0.325 C 
ATOM      8  O   LIG    1       28.687 -21.332   8.579  0.00  0.00    -0.249 OA
BRANCH   7   9
ATOM      9  O   LIG    1       29.153 -20.592   6.465  0.00  0.00    -0.461 OA
BRANCH   9  11
ATOM     10  C   LIG    1       31.155 -19.305   7.062  0.00  0.00    +0.051 C 
ATOM     11  C   LIG    1       29.661 -19.270   6.763  0.00  0.00    +0.170 C 
ATOM     12  C   LIG    1       29.368 -18.360   5.567  0.00  0.00    +0.051 C 
ENDBRANCH   9  11
ENDBRANCH   7   9
ENDBRANCH   5   7
ENDBRANCH   3   5
ENDBRANCH   1   3
BRANCH   1  13
ATOM     13  O   LIG    1       25.036 -22.175   4.790  0.00  0.00    -0.431 OA
BRANCH  13  14
ATOM     14  C   LIG    1       24.353 -20.972   4.691  0.00  0.00    +0.129 A 
ATOM     15  C   LIG    1       23.187 -20.728   5.435  0.00  0.00    +0.046 A 
ATOM     16  C   LIG    1       22.405 -19.602   5.182  0.00  0.00    +0.004 A 
ATOM     17  C   LIG    1       22.806 -18.686   4.216  0.00  0.00    +0.000 A 
ATOM     18  C   LIG    1       24.005 -18.884   3.528  0.00  0.00    +0.004 A 
ATOM     19  C   LIG    1       24.785 -20.025   3.767  0.00  0.00    +0.046 A 
ENDBRANCH  13  14
ENDBRANCH   1  13
BRANCH   1  20
ATOM     20  C   LIG    1       24.986 -24.688   5.255  0.00  0.00    +0.286 C 
BRANCH  20  21
ATOM     21  O   LIG    1       26.265 -25.247   5.612  0.00  0.00    -0.363 OA
BRANCH  21  22
ATOM     22  C   LIG    1       26.236 -26.684   5.716  0.00  0.00    +0.136 C 
ATOM     23  C   LIG    1       25.958 -27.322   4.349  0.00  0.00    +0.039 C 
BRANCH  22  24
ATOM     24  C   LIG    1       25.105 -27.123   6.672  0.00  0.00    +0.156 C 
BRANCH  24  25
ATOM     25  N   LIG    1       25.367 -28.327   7.429  0.00  0.00    -0.312 N 
ATOM     26  C   LIG    1       24.863 -29.575   7.191  0.00  0.00    +0.165 A 
ATOM     27  N   LIG    1       24.034 -29.958   6.206  0.00  0.00    -0.216 NA
ATOM     28  C   LIG    1       23.810 -31.288   6.263  0.00  0.00    +0.225 A 
ATOM     29  N   LIG    1       24.318 -32.192   7.130  0.00  0.00    -0.219 NA
ATOM     30  C   LIG    1       25.131 -31.747   8.116  0.00  0.00    +0.147 A 
ATOM     31  C   LIG    1       25.422 -30.375   8.175  0.00  0.00    +0.147 A 
ATOM     32  N   LIG    1       26.203 -29.627   9.033  0.00  0.00    -0.231 NA
ATOM     33  C   LIG    1       26.121 -28.397   8.572  0.00  0.00    +0.201 A 
BRANCH  30  34
ATOM     34  N   LIG    1       25.672 -32.679   8.996  0.00  0.00    -0.341 N 
ATOM     35  H   LIG    1       25.005 -32.980   9.700  0.00  0.00    +0.144 HD
ATOM     36  H   LIG    1       26.585 -32.390   9.323  0.00  0.00    +0.144 HD
ENDBRANCH  30  34
ENDBRANCH  24  25
ENDBRANCH  22  24
ENDBRANCH  21  22
ENDBRANCH  20  21
ENDBRANCH   1  20
TORSDOF 13
ENDMDL
MODEL 5
REMARK VINA RESULT:      -8.6      2.820      8.844
REMARK  Name = *****
REMARK                            x       y       z     vdW  Elec       q    Type
REMARK                         _______ _______ _______ _____ _____    ______ ____
ROOT
ATOM      1  P   LIG    1       24.784 -23.631   5.960  0.00  0.00    +0.345 P 
ATOM      2  O   LIG    1       26.128 -24.384   6.056  0.00  0.00    -0.257 OA
ENDROOT
BRANCH   1   3
ATOM      3  N   LIG    1       23.847 -25.075   6.295  0.00  0.00    -0.221 NA
ATOM      4  H   LIG    1       23.964 -25.262   7.289  0.00  0.00    +0.133 HD
BRANCH   3   5
ATOM      5  C   LIG    1       24.115 -26.354   5.562  0.00  0.00    +0.169 C 
ATOM      6  C   LIG    1       25.165 -26.068   4.479  0.00  0.00    +0.036 C 
BRANCH   5   7
ATOM      7  C   LIG    1       24.766 -27.435   6.447  0.00  0.00    +0.325 C 
ATOM      8  O   LIG    1       25.856 -27.342   6.965  0.00  0.00    -0.249 OA
BRANCH   7   9
ATOM      9  O   LIG    1       24.044 -28.613   6.386  0.00  0.00    -0.461 OA
BRANCH   9  11
ATOM     10  C   LIG    1       24.088 -30.024   8.393  0.00  0.00    +0.051 C 
ATOM     11  C   LIG    1       24.679 -29.752   7.014  0.00  0.00    +0.170 C 
ATOM     12  C   LIG    1       24.505 -30.966   6.099  0.00  0.00    +0.051 C 
ENDBRANCH   9  11
ENDBRANCH   7   9
ENDBRANCH   5   7
ENDBRANCH   3   5
ENDBRANCH   1   3
BRANCH   1  13
ATOM     13  O   LIG    1       23.307 -22.803   5.854  0.00  0.00    -0.431 OA
BRANCH  13  14
ATOM     14  C   LIG    1       23.426 -21.622   5.135  0.00  0.00    +0.129 A 
ATOM     15  C   LIG    1       24.512 -21.394   4.275  0.00  0.00    +0.046 A 
ATOM     16  C   LIG    1       24.722 -20.136   3.713  0.00  0.00    +0.004 A 
ATOM     17  C   LIG    1       23.824 -19.107   3.968  0.00  0.00    +0.000 A 
ATOM     18  C   LIG    1       22.699 -19.349   4.760  0.00  0.00    +0.004 A 
ATOM     19  C   LIG    1       22.494 -20.609   5.342  0.00  0.00    +0.046 A 
ENDBRANCH  13  14
ENDBRANCH   1  13
BRANCH   1  20
ATOM     20  C   LIG    1       24.918 -22.872   7.837  0.00  0.00    +0.286 C 
BRANCH  20  21
ATOM     21  O   LIG    1       26.313 -22.737   8.172  0.00  0.00    -0.363 OA
BRANCH  21  22
ATOM     22  C   LIG    1       26.780 -21.376   8.081  0.00  0.00    +0.136 C 
ATOM     23  C   LIG    1       25.605 -20.413   7.866  0.00  0.00    +0.039 C 
BRANCH  22  24
ATOM     24  C   LIG    1       27.733 -21.223   6.875  0.00  0.00    +0.156 C 
BRANCH  24  25
ATOM     25  N   LIG    1       28.784 -20.244   7.037  0.00  0.00    -0.312 N 
ATOM     26  C   LIG    1       29.835 -20.301   7.909  0.00  0.00    +0.165 A 
ATOM     27  N   LIG    1       30.128 -21.272   8.789  0.00  0.00    -0.216 NA
ATOM     28  C   LIG    1       31.283 -21.000   9.431  0.00  0.00    +0.225 A 
ATOM     29  N   LIG    1       32.111 -19.943   9.267  0.00  0.00    -0.219 NA
ATOM     30  C   LIG    1       31.755 -18.983   8.383  0.00  0.00    +0.147 A 
ATOM     31  C   LIG    1       30.558 -19.143   7.666  0.00  0.00    +0.147 A 
ATOM     32  N   LIG    1       29.936 -18.365   6.711  0.00  0.00    -0.231 NA
ATOM     33  C   LIG    1       28.858 -19.043   6.379  0.00  0.00    +0.201 A 
BRANCH  30  34
ATOM     34  N   LIG    1       32.615 -17.906   8.196  0.00  0.00    -0.341 N 
ATOM     35  H   LIG    1       32.430 -17.145   8.842  0.00  0.00    +0.144 HD
ATOM     36  H   LIG    1       32.698 -17.667   7.217  0.00  0.00    +0.144 HD
ENDBRANCH  30  34
ENDBRANCH  24  25
ENDBRANCH  22  24
ENDBRANCH  21  22
ENDBRANCH  20  21
ENDBRANCH   1  20
TORSDOF 13
ENDMDL
MODEL 6
REMARK VINA RESULT:      -8.4      2.865      9.318
REMARK  Name = *****
REMARK                            x       y       z     vdW  Elec       q    Type
REMARK                         _______ _______ _______ _____ _____    ______ ____
ROOT
ATOM      1  P   LIG    1       25.617 -22.231   6.767  0.00  0.00    +0.345 P 
ATOM      2  O   LIG    1       26.892 -23.094   6.662  0.00  0.00    -0.257 OA
ENDROOT
BRANCH   1   3
ATOM      3  N   LIG    1       24.722 -23.493   7.592  0.00  0.00    -0.221 NA
ATOM      4  H   LIG    1       25.418 -24.078   8.051  0.00  0.00    +0.133 HD
BRANCH   3   5
ATOM      5  C   LIG    1       23.797 -24.399   6.839  0.00  0.00    +0.169 C 
ATOM      6  C   LIG    1       22.525 -23.607   6.507  0.00  0.00    +0.036 C 
BRANCH   5   7
ATOM      7  C   LIG    1       24.351 -24.823   5.464  0.00  0.00    +0.325 C 
ATOM      8  O   LIG    1       24.691 -24.060   4.589  0.00  0.00    -0.249 OA
BRANCH   7   9
ATOM      9  O   LIG    1       24.193 -26.185   5.276  0.00  0.00    -0.461 OA
BRANCH   9  11
ATOM     10  C   LIG    1       24.347 -28.475   6.144  0.00  0.00    +0.051 C 
ATOM     11  C   LIG    1       24.740 -27.013   6.329  0.00  0.00    +0.170 C 
ATOM     12  C   LIG    1       26.262 -26.855   6.326  0.00  0.00    +0.051 C 
ENDBRANCH   9  11
ENDBRANCH   7   9
ENDBRANCH   5   7
ENDBRANCH   3   5
ENDBRANCH   1   3
BRANCH   1  13
ATOM     13  O   LIG    1       24.215 -21.281   6.883  0.00  0.00    -0.431 OA
BRANCH  13  14
ATOM     14  C   LIG    1       23.980 -20.561   5.720  0.00  0.00    +0.129 A 
ATOM     15  C   LIG    1       24.930 -20.508   4.687  0.00  0.00    +0.046 A 
ATOM     16  C   LIG    1       24.768 -19.629   3.618  0.00  0.00    +0.004 A 
ATOM     17  C   LIG    1       23.634 -18.829   3.547  0.00  0.00    +0.000 A 
ATOM     18  C   LIG    1       22.649 -18.934   4.532  0.00  0.00    +0.004 A 
ATOM     19  C   LIG    1       22.817 -19.804   5.619  0.00  0.00    +0.046 A 
ENDBRANCH  13  14
ENDBRANCH   1  13
BRANCH   1  20
ATOM     20  C   LIG    1       26.289 -21.188   8.373  0.00  0.00    +0.286 C 
BRANCH  20  21
ATOM     21  O   LIG    1       27.706 -21.419   8.502  0.00  0.00    -0.363 OA
BRANCH  21  22
ATOM     22  C   LIG    1       28.496 -20.289   8.081  0.00  0.00    +0.136 C 
ATOM     23  C   LIG    1       28.399 -20.094   6.562  0.00  0.00    +0.039 C 
BRANCH  22  24
ATOM     24  C   LIG    1       29.983 -20.525   8.425  0.00  0.00    +0.156 C 
BRANCH  24  25
ATOM     25  N   LIG    1       30.804 -19.336   8.468  0.00  0.00    -0.312 N 
ATOM     26  C   LIG    1       30.805 -18.371   9.436  0.00  0.00    +0.165 A 
ATOM     27  N   LIG    1       30.062 -18.319  10.554  0.00  0.00    -0.216 NA
ATOM     28  C   LIG    1       30.392 -17.240  11.295  0.00  0.00    +0.225 A 
ATOM     29  N   LIG    1       31.335 -16.303  11.048  0.00  0.00    -0.219 NA
ATOM     30  C   LIG    1       32.039 -16.393   9.896  0.00  0.00    +0.147 A 
ATOM     31  C   LIG    1       31.770 -17.463   9.028  0.00  0.00    +0.147 A 
ATOM     32  N   LIG    1       32.308 -17.830   7.811  0.00  0.00    -0.231 NA
ATOM     33  C   LIG    1       31.682 -18.942   7.491  0.00  0.00    +0.201 A 
BRANCH  30  34
ATOM     34  N   LIG    1       33.025 -15.443   9.650  0.00  0.00    -0.341 N 
ATOM     35  H   LIG    1       33.044 -15.145   8.679  0.00  0.00    +0.144 HD
ATOM     36  H   LIG    1       33.908 -15.712  10.064  0.00  0.00    +0.144 HD
ENDBRANCH  30  34
ENDBRANCH  24  25
ENDBRANCH  22  24
ENDBRANCH  21  22
ENDBRANCH  20  21
ENDBRANCH   1  20
TORSDOF 13
ENDMDL
MODEL 7
REMARK VINA RESULT:      -8.2      2.653      5.459
REMARK  Name = *****
REMARK                            x       y       z     vdW  Elec       q    Type
REMARK                         _______ _______ _______ _____ _____    ______ ____
ROOT
ATOM      1  P   LIG    1       25.384 -22.973   6.169  0.00  0.00    +0.345 P 
ATOM      2  O   LIG    1       24.664 -23.500   4.910  0.00  0.00    -0.257 OA
ENDROOT
BRANCH   1   3
ATOM      3  N   LIG    1       23.909 -22.962   7.118  0.00  0.00    -0.221 NA
ATOM      4  H   LIG    1       23.331 -23.714   6.749  0.00  0.00    +0.133 HD
BRANCH   3   5
ATOM      5  C   LIG    1       23.054 -21.734   7.196  0.00  0.00    +0.169 C 
ATOM      6  C   LIG    1       23.876 -20.628   7.871  0.00  0.00    +0.036 C 
BRANCH   5   7
ATOM      7  C   LIG    1       22.698 -21.154   5.813  0.00  0.00    +0.325 C 
ATOM      8  O   LIG    1       21.941 -21.667   5.021  0.00  0.00    -0.249 OA
BRANCH   7   9
ATOM      9  O   LIG    1       23.529 -20.092   5.503  0.00  0.00    -0.461 OA
BRANCH   9  11
ATOM     10  C   LIG    1       22.329 -18.245   4.421  0.00  0.00    +0.051 C 
ATOM     11  C   LIG    1       23.249 -19.447   4.238  0.00  0.00    +0.170 C 
ATOM     12  C   LIG    1       24.578 -19.023   3.610  0.00  0.00    +0.051 C 
ENDBRANCH   9  11
ENDBRANCH   7   9
ENDBRANCH   5   7
ENDBRANCH   3   5
ENDBRANCH   1   3
BRANCH   1  13
ATOM     13  O   LIG    1       26.176 -22.395   7.555  0.00  0.00    -0.431 OA
BRANCH  13  14
ATOM     14  C   LIG    1       27.146 -21.453   7.241  0.00  0.00    +0.129 A 
ATOM     15  C   LIG    1       26.988 -20.571   6.160  0.00  0.00    +0.046 A 
ATOM     16  C   LIG    1       28.046 -19.768   5.737  0.00  0.00    +0.004 A 
ATOM     17  C   LIG    1       29.257 -19.806   6.419  0.00  0.00    +0.000 A 
ATOM     18  C   LIG    1       29.394 -20.624   7.542  0.00  0.00    +0.004 A 
ATOM     19  C   LIG    1       28.337 -21.446   7.960  0.00  0.00    +0.046 A 
ENDBRANCH  13  14
ENDBRANCH   1  13
BRANCH   1  20
ATOM     20  C   LIG    1       26.106 -24.798   6.688  0.00  0.00    +0.286 C 
BRANCH  20  21
ATOM     21  O   LIG    1       25.029 -25.752   6.600  0.00  0.00    -0.363 OA
BRANCH  21  22
ATOM     22  C   LIG    1       25.478 -27.063   6.204  0.00  0.00    +0.136 C 
ATOM     23  C   LIG    1       26.023 -27.041   4.771  0.00  0.00    +0.039 C 
BRANCH  22  24
ATOM     24  C   LIG    1       24.296 -28.058   6.237  0.00  0.00    +0.156 C 
BRANCH  24  25
ATOM     25  N   LIG    1       24.567 -29.318   6.893  0.00  0.00    -0.312 N 
ATOM     26  C   LIG    1       25.086 -30.447   6.323  0.00  0.00    +0.165 A 
ATOM     27  N   LIG    1       25.467 -30.631   5.048  0.00  0.00    -0.216 NA
ATOM     28  C   LIG    1       25.991 -31.864   4.881  0.00  0.00    +0.225 A 
ATOM     29  N   LIG    1       26.171 -32.836   5.803  0.00  0.00    -0.219 NA
ATOM     30  C   LIG    1       25.749 -32.604   7.068  0.00  0.00    +0.147 A 
ATOM     31  C   LIG    1       25.165 -31.362   7.362  0.00  0.00    +0.147 A 
ATOM     32  N   LIG    1       24.652 -30.829   8.527  0.00  0.00    -0.231 NA
ATOM     33  C   LIG    1       24.275 -29.612   8.199  0.00  0.00    +0.201 A 
BRANCH  30  34
ATOM     34  N   LIG    1       25.954 -33.594   8.023  0.00  0.00    -0.341 N 
ATOM     35  H   LIG    1       26.937 -33.812   8.151  0.00  0.00    +0.144 HD
ATOM     36  H   LIG    1       25.326 -34.375   7.885  0.00  0.00    +0.144 HD
ENDBRANCH  30  34
ENDBRANCH  24  25
ENDBRANCH  22  24
ENDBRANCH  21  22
ENDBRANCH  20  21
ENDBRANCH   1  20
TORSDOF 13
ENDMDL
MODEL 8
REMARK VINA RESULT:      -8.1      2.589      5.249
REMARK  Name = *****
REMARK                            x       y       z     vdW  Elec       q    Type
REMARK                         _______ _______ _______ _____ _____    ______ ____
ROOT
ATOM      1  P   LIG    1       25.290 -23.056   6.285  0.00  0.00    +0.345 P 
ATOM      2  O   LIG    1       24.504 -23.652   5.098  0.00  0.00    -0.257 OA
ENDROOT
BRANCH   1   3
ATOM      3  N   LIG    1       23.841 -22.819   7.243  0.00  0.00    -0.221 NA
ATOM      4  H   LIG    1       23.200 -23.564   6.974  0.00  0.00    +0.133 HD
BRANCH   3   5
ATOM      5  C   LIG    1       23.082 -21.529   7.186  0.00  0.00    +0.169 C 
ATOM      6  C   LIG    1       23.983 -20.425   7.755  0.00  0.00    +0.036 C 
BRANCH   5   7
ATOM      7  C   LIG    1       22.779 -21.068   5.746  0.00  0.00    +0.325 C 
ATOM      8  O   LIG    1       21.969 -21.584   5.010  0.00  0.00    -0.249 OA
BRANCH   7   9
ATOM      9  O   LIG    1       23.711 -20.136   5.328  0.00  0.00    -0.461 OA
BRANCH   9  11
ATOM     10  C   LIG    1       22.348 -18.280   4.480  0.00  0.00    +0.051 C 
ATOM     11  C   LIG    1       23.339 -19.389   4.145  0.00  0.00    +0.170 C 
ATOM     12  C   LIG    1       24.612 -18.811   3.521  0.00  0.00    +0.051 C 
ENDBRANCH   9  11
ENDBRANCH   7   9
ENDBRANCH   5   7
ENDBRANCH   3   5
ENDBRANCH   1   3
BRANCH   1  13
ATOM     13  O   LIG    1       26.155 -22.402   7.590  0.00  0.00    -0.431 OA
BRANCH  13  14
ATOM     14  C   LIG    1       27.198 -21.591   7.165  0.00  0.00    +0.129 A 
ATOM     15  C   LIG    1       28.423 -21.551   7.851  0.00  0.00    +0.046 A 
ATOM     16  C   LIG    1       29.385 -20.595   7.533  0.00  0.00    +0.004 A 
ATOM     17  C   LIG    1       29.152 -19.700   6.496  0.00  0.00    +0.000 A 
ATOM     18  C   LIG    1       27.969 -19.785   5.758  0.00  0.00    +0.004 A 
ATOM     19  C   LIG    1       26.991 -20.734   6.087  0.00  0.00    +0.046 A 
ENDBRANCH  13  14
ENDBRANCH   1  13
BRANCH   1  20
ATOM     20  C   LIG    1       25.869 -24.869   6.989  0.00  0.00    +0.286 C 
BRANCH  20  21
ATOM     21  O   LIG    1       26.664 -25.516   5.976  0.00  0.00    -0.363 OA
BRANCH  21  22
ATOM     22  C   LIG    1       26.157 -26.817   5.617  0.00  0.00    +0.136 C 
ATOM     23  C   LIG    1       25.792 -26.866   4.128  0.00  0.00    +0.039 C 
BRANCH  22  24
ATOM     24  C   LIG    1       24.875 -27.126   6.421  0.00  0.00    +0.156 C 
BRANCH  24  25
ATOM     25  N   LIG    1       24.677 -28.517   6.759  0.00  0.00    -0.312 N 
ATOM     26  C   LIG    1       25.227 -29.194   7.812  0.00  0.00    +0.165 A 
ATOM     27  N   LIG    1       26.053 -28.721   8.760  0.00  0.00    -0.216 NA
ATOM     28  C   LIG    1       26.331 -29.679   9.669  0.00  0.00    +0.225 A 
ATOM     29  N   LIG    1       25.877 -30.951   9.720  0.00  0.00    -0.219 NA
ATOM     30  C   LIG    1       25.066 -31.381   8.727  0.00  0.00    +0.147 A 
ATOM     31  C   LIG    1       24.720 -30.480   7.708  0.00  0.00    +0.147 A 
ATOM     32  N   LIG    1       23.925 -30.607   6.586  0.00  0.00    -0.231 NA
ATOM     33  C   LIG    1       23.948 -29.417   6.025  0.00  0.00    +0.201 A 
BRANCH  30  34
ATOM     34  N   LIG    1       24.579 -32.683   8.790  0.00  0.00    -0.341 N 
ATOM     35  H   LIG    1       23.707 -32.796   8.283  0.00  0.00    +0.144 HD
ATOM     36  H   LIG    1       24.610 -33.043   9.735  0.00  0.00    +0.144 HD
ENDBRANCH  30  34
ENDBRANCH  24  25
ENDBRANCH  22  24
ENDBRANCH  21  22
ENDBRANCH  20  21
ENDBRANCH   1  20
TORSDOF 13
ENDMDL
MODEL 9
REMARK VINA RESULT:      -7.6      2.026      5.303
REMARK  Name = *****
REMARK                            x       y       z     vdW  Elec       q    Type
REMARK                         _______ _______ _______ _____ _____    ______ ____
ROOT
ATOM      1  P   LIG    1       25.876 -21.630   6.083  0.00  0.00    +0.345 P 
ATOM      2  O   LIG    1       25.354 -22.367   4.831  0.00  0.00    -0.257 OA
ENDROOT
BRANCH   1   3
ATOM      3  N   LIG    1       24.276 -21.512   6.791  0.00  0.00    -0.221 NA
ATOM      4  H   LIG    1       24.344 -21.938   7.713  0.00  0.00    +0.133 HD
BRANCH   3   5
ATOM      5  C   LIG    1       23.085 -22.109   6.106  0.00  0.00    +0.169 C 
ATOM      6  C   LIG    1       22.188 -22.740   7.181  0.00  0.00    +0.036 C 
BRANCH   5   7
ATOM      7  C   LIG    1       22.184 -21.056   5.429  0.00  0.00    +0.325 C 
ATOM      8  O   LIG    1       21.228 -21.309   4.733  0.00  0.00    -0.249 OA
BRANCH   7   9
ATOM      9  O   LIG    1       22.746 -19.797   5.534  0.00  0.00    -0.461 OA
BRANCH   9  11
ATOM     10  C   LIG    1       22.256 -17.585   4.591  0.00  0.00    +0.051 C 
ATOM     11  C   LIG    1       22.717 -19.013   4.319  0.00  0.00    +0.170 C 
ATOM     12  C   LIG    1       24.120 -19.022   3.706  0.00  0.00    +0.051 C 
ENDBRANCH   9  11
ENDBRANCH   7   9
ENDBRANCH   5   7
ENDBRANCH   3   5
ENDBRANCH   1   3
BRANCH   1  13
ATOM     13  O   LIG    1       26.449 -20.819   7.459  0.00  0.00    -0.431 OA
BRANCH  13  14
ATOM     14  C   LIG    1       27.665 -20.193   7.222  0.00  0.00    +0.129 A 
ATOM     15  C   LIG    1       28.548 -19.887   8.270  0.00  0.00    +0.046 A 
ATOM     16  C   LIG    1       29.668 -19.089   8.045  0.00  0.00    +0.004 A 
ATOM     17  C   LIG    1       29.941 -18.628   6.762  0.00  0.00    +0.000 A 
ATOM     18  C   LIG    1       29.109 -18.995   5.702  0.00  0.00    +0.004 A 
ATOM     19  C   LIG    1       27.971 -19.783   5.928  0.00  0.00    +0.046 A 
ENDBRANCH  13  14
ENDBRANCH   1  13
BRANCH   1  20
ATOM     20  C   LIG    1       26.521 -23.329   6.984  0.00  0.00    +0.286 C 
BRANCH  20  21
ATOM     21  O   LIG    1       25.386 -24.193   7.186  0.00  0.00    -0.363 OA
BRANCH  21  22
ATOM     22  C   LIG    1       25.382 -25.327   6.296  0.00  0.00    +0.136 C 
ATOM     23  C   LIG    1       23.964 -25.614   5.788  0.00  0.00    +0.039 C 
BRANCH  22  24
ATOM     24  C   LIG    1       25.874 -26.587   7.041  0.00  0.00    +0.156 C 
BRANCH  24  25
ATOM     25  N   LIG    1       25.465 -27.847   6.463  0.00  0.00    -0.312 N 
ATOM     26  C   LIG    1       24.912 -28.912   7.118  0.00  0.00    +0.165 A 
ATOM     27  N   LIG    1       24.618 -29.018   8.424  0.00  0.00    -0.216 NA
ATOM     28  C   LIG    1       24.022 -30.202   8.682  0.00  0.00    +0.225 A 
ATOM     29  N   LIG    1       23.702 -31.192   7.819  0.00  0.00    -0.219 NA
ATOM     30  C   LIG    1       24.042 -31.041   6.518  0.00  0.00    +0.147 A 
ATOM     31  C   LIG    1       24.689 -29.857   6.128  0.00  0.00    +0.147 A 
ATOM     32  N   LIG    1       25.147 -29.408   4.906  0.00  0.00    -0.231 NA
ATOM     33  C   LIG    1       25.634 -28.211   5.152  0.00  0.00    +0.201 A 
BRANCH  30  34
ATOM     34  N   LIG    1       23.694 -32.048   5.624  0.00  0.00    -0.341 N 
ATOM     35  H   LIG    1       23.803 -32.975   6.023  0.00  0.00    +0.144 HD
ATOM     36  H   LIG    1       24.105 -31.890   4.713  0.00  0.00    +0.144 HD
ENDBRANCH  30  34
ENDBRANCH  24  25
ENDBRANCH  22  24
ENDBRANCH  21  22
ENDBRANCH  20  21
ENDBRANCH   1  20
TORSDOF 13
ENDMDL
