MODEL 1
REMARK VINA RESULT:      -8.1      0.000      0.000
REMARK  Name = *****
REMARK                            x       y       z     vdW  Elec       q    Type
REMARK                         _______ _______ _______ _____ _____    ______ ____
ROOT
ATOM      1  C   LIG    1       30.082 -20.893   8.117  0.00  0.00    +0.179 C 
ATOM      2  C   LIG    1       30.531 -19.677   7.298  0.00  0.00    +0.177 C 
ATOM      3  C   LIG    1       29.643 -19.527   6.062  0.00  0.00    +0.180 C 
ATOM      4  C   LIG    1       28.150 -19.573   6.404  0.00  0.00    +0.214 C 
ATOM      5  C   LIG    1       27.853 -20.831   7.254  0.00  0.00    +0.339 C 
ATOM      6  O   LIG    1       28.681 -20.819   8.423  0.00  0.00    -0.331 OA
ENDROOT
BRANCH   2   7
ATOM      7  O   LIG    1       31.890 -19.837   6.870  0.00  0.00    -0.387 OA
ATOM      8  H   LIG    1       31.864 -19.942   5.899  0.00  0.00    +0.210 HD
ENDBRANCH   2   7
BRANCH   3   9
ATOM      9  O   LIG    1       29.958 -18.299   5.376  0.00  0.00    -0.386 OA
ATOM     10  H   LIG    1       29.711 -18.405   4.439  0.00  0.00    +0.210 HD
ENDBRANCH   3   9
BRANCH   4  11
ATOM     11  O   LIG    1       27.411 -19.571   5.171  0.00  0.00    -0.383 OA
ATOM     12  H   LIG    1       27.682 -18.765   4.690  0.00  0.00    +0.210 HD
ENDBRANCH   4  11
BRANCH   1  13
ATOM     13  C   LIG    1       30.857 -21.010   9.437  0.00  0.00    +0.190 C 
BRANCH  13  14
ATOM     14  O   LIG    1       32.227 -21.337   9.204  0.00  0.00    -0.392 OA
ATOM     15  H   LIG    1       32.253 -21.870   8.392  0.00  0.00    +0.209 HD
ENDBRANCH  13  14
ENDBRANCH   1  13
BRANCH   5  16
ATOM     16  O   LIG    1       26.465 -20.816   7.628  0.00  0.00    -0.461 OA
BRANCH  16  17
ATOM     17  C   LIG    1       25.735 -21.925   7.289  0.00  0.00    +0.124 A 
ATOM     18  C   LIG    1       24.354 -21.737   7.202  0.00  0.00    +0.049 A 
ATOM     19  C   LIG    1       23.512 -22.801   6.866  0.00  0.00    +0.049 A 
ATOM     20  C   LIG    1       24.054 -24.059   6.632  0.00  0.00    +0.117 A 
ATOM     21  C   LIG    1       25.425 -24.269   6.738  0.00  0.00    +0.049 A 
ATOM     22  C   LIG    1       26.265 -23.201   7.074  0.00  0.00    +0.049 A 
BRANCH  20  23
ATOM     23  O   LIG    1       23.203 -25.074   6.308  0.00  0.00    -0.507 OA
ATOM     24  H   LIG    1       23.336 -25.802   6.932  0.00  0.00    +0.292 HD
ENDBRANCH  20  23
ENDBRANCH  16  17
ENDBRANCH   5  16
TORSDOF 8
ENDMDL
MODEL 2
REMARK VINA RESULT:      -8.0      0.862      1.420
REMARK  Name = *****
REMARK                            x       y       z     vdW  Elec       q    Type
REMARK                         _______ _______ _______ _____ _____    ______ ____
ROOT
ATOM      1  C   LIG    1       29.799 -21.180   7.916  0.00  0.00    +0.179 C 
ATOM      2  C   LIG    1       29.887 -19.917   7.052  0.00  0.00    +0.177 C 
ATOM      3  C   LIG    1       28.804 -19.949   5.972  0.00  0.00    +0.180 C 
ATOM      4  C   LIG    1       27.417 -20.260   6.542  0.00  0.00    +0.214 C 
ATOM      5  C   LIG    1       27.489 -21.537   7.411  0.00  0.00    +0.339 C 
ATOM      6  O   LIG    1       28.473 -21.357   8.437  0.00  0.00    -0.331 OA
ENDROOT
BRANCH   2   7
ATOM      7  O   LIG    1       31.169 -19.834   6.416  0.00  0.00    -0.387 OA
ATOM      8  H   LIG    1       31.633 -19.077   6.825  0.00  0.00    +0.210 HD
ENDBRANCH   2   7
BRANCH   3   9
ATOM      9  O   LIG    1       28.782 -18.696   5.261  0.00  0.00    -0.386 OA
ATOM     10  H   LIG    1       28.834 -18.888   4.307  0.00  0.00    +0.210 HD
ENDBRANCH   3   9
BRANCH   4  11
ATOM     11  O   LIG    1       26.507 -20.410   5.440  0.00  0.00    -0.383 OA
ATOM     12  H   LIG    1       26.257 -21.354   5.417  0.00  0.00    +0.210 HD
ENDBRANCH   4  11
BRANCH   1  13
ATOM     13  C   LIG    1       30.778 -21.134   9.097  0.00  0.00    +0.190 C 
BRANCH  13  14
ATOM     14  O   LIG    1       32.035 -21.714   8.748  0.00  0.00    -0.392 OA
ATOM     15  H   LIG    1       32.723 -21.135   9.115  0.00  0.00    +0.209 HD
ENDBRANCH  13  14
ENDBRANCH   1  13
BRANCH   5  16
ATOM     16  O   LIG    1       26.197 -21.767   7.998  0.00  0.00    -0.461 OA
BRANCH  16  17
ATOM     17  C   LIG    1       25.444 -22.762   7.430  0.00  0.00    +0.124 A 
ATOM     18  C   LIG    1       26.156 -23.872   6.971  0.00  0.00    +0.049 A 
ATOM     19  C   LIG    1       25.490 -24.945   6.372  0.00  0.00    +0.049 A 
ATOM     20  C   LIG    1       24.109 -24.898   6.219  0.00  0.00    +0.117 A 
ATOM     21  C   LIG    1       23.388 -23.789   6.649  0.00  0.00    +0.049 A 
ATOM     22  C   LIG    1       24.058 -22.717   7.249  0.00  0.00    +0.049 A 
BRANCH  20  23
ATOM     23  O   LIG    1       23.493 -25.962   5.630  0.00  0.00    -0.507 OA
ATOM     24  H   LIG    1       23.169 -26.555   6.323  0.00  0.00    +0.292 HD
ENDBRANCH  20  23
ENDBRANCH  16  17
ENDBRANCH   5  16
TORSDOF 8
ENDMDL
MODEL 3
REMARK VINA RESULT:      -7.3      2.221      3.581
REMARK  Name = *****
REMARK                            x       y       z     vdW  Elec       q    Type
REMARK                         _______ _______ _______ _____ _____    ______ ____
ROOT
ATOM      1  C   LIG    1       30.437 -17.785   9.002  0.00  0.00    +0.179 C 
ATOM      2  C   LIG    1       31.661 -18.676   9.246  0.00  0.00    +0.177 C 
ATOM      3  C   LIG    1       31.247 -20.148   9.218  0.00  0.00    +0.180 C 
ATOM      4  C   LIG    1       30.415 -20.499   7.980  0.00  0.00    +0.214 C 
ATOM      5  C   LIG    1       29.240 -19.503   7.848  0.00  0.00    +0.339 C 
ATOM      6  O   LIG    1       29.754 -18.167   7.799  0.00  0.00    -0.331 OA
ENDROOT
BRANCH   2   7
ATOM      7  O   LIG    1       32.244 -18.386  10.523  0.00  0.00    -0.387 OA
ATOM      8  H   LIG    1       33.175 -18.682  10.476  0.00  0.00    +0.210 HD
ENDBRANCH   2   7
BRANCH   3   9
ATOM      9  O   LIG    1       32.416 -20.988   9.287  0.00  0.00    -0.386 OA
ATOM     10  H   LIG    1       32.123 -21.917   9.232  0.00  0.00    +0.210 HD
ENDBRANCH   3   9
BRANCH   4  11
ATOM     11  O   LIG    1       29.958 -21.854   8.122  0.00  0.00    -0.383 OA
ATOM     12  H   LIG    1       29.660 -22.138   7.236  0.00  0.00    +0.210 HD
ENDBRANCH   4  11
BRANCH   1  13
ATOM     13  C   LIG    1       30.822 -16.304   8.889  0.00  0.00    +0.190 C 
BRANCH  13  14
ATOM     14  O   LIG    1       32.237 -16.143   8.797  0.00  0.00    -0.392 OA
ATOM     15  H   LIG    1       32.540 -16.727   8.082  0.00  0.00    +0.209 HD
ENDBRANCH  13  14
ENDBRANCH   1  13
BRANCH   5  16
ATOM     16  O   LIG    1       28.518 -19.802   6.641  0.00  0.00    -0.461 OA
BRANCH  16  17
ATOM     17  C   LIG    1       27.209 -20.180   6.797  0.00  0.00    +0.124 A 
ATOM     18  C   LIG    1       26.799 -20.410   8.112  0.00  0.00    +0.049 A 
ATOM     19  C   LIG    1       25.486 -20.802   8.388  0.00  0.00    +0.049 A 
ATOM     20  C   LIG    1       24.588 -20.979   7.343  0.00  0.00    +0.117 A 
ATOM     21  C   LIG    1       24.987 -20.777   6.026  0.00  0.00    +0.049 A 
ATOM     22  C   LIG    1       26.301 -20.383   5.753  0.00  0.00    +0.049 A 
BRANCH  20  23
ATOM     23  O   LIG    1       23.316 -21.362   7.649  0.00  0.00    -0.507 OA
ATOM     24  H   LIG    1       22.702 -20.684   7.332  0.00  0.00    +0.292 HD
ENDBRANCH  20  23
ENDBRANCH  16  17
ENDBRANCH   5  16
TORSDOF 8
ENDMDL
MODEL 4
REMARK VINA RESULT:      -7.2      1.477      3.287
REMARK  Name = *****
REMARK                            x       y       z     vdW  Elec       q    Type
REMARK                         _______ _______ _______ _____ _____    ______ ____
ROOT
ATOM      1  C   LIG    1       29.769 -18.933   6.927  0.00  0.00    +0.179 C 
ATOM      2  C   LIG    1       31.163 -19.162   7.521  0.00  0.00    +0.177 C 
ATOM      3  C   LIG    1       31.066 -20.099   8.727  0.00  0.00    +0.180 C 
ATOM      4  C   LIG    1       30.266 -21.369   8.419  0.00  0.00    +0.214 C 
ATOM      5  C   LIG    1       28.903 -20.983   7.799  0.00  0.00    +0.339 C 
ATOM      6  O   LIG    1       29.122 -20.180   6.634  0.00  0.00    -0.331 OA
ENDROOT
BRANCH   2   7
ATOM      7  O   LIG    1       31.735 -17.919   7.950  0.00  0.00    -0.387 OA
ATOM      8  H   LIG    1       31.187 -17.605   8.697  0.00  0.00    +0.210 HD
ENDBRANCH   2   7
BRANCH   3   9
ATOM      9  O   LIG    1       32.387 -20.442   9.189  0.00  0.00    -0.386 OA
ATOM     10  H   LIG    1       32.921 -19.627   9.212  0.00  0.00    +0.210 HD
ENDBRANCH   3   9
BRANCH   4  11
ATOM     11  O   LIG    1       30.112 -22.104   9.644  0.00  0.00    -0.383 OA
ATOM     12  H   LIG    1       29.566 -22.885   9.428  0.00  0.00    +0.210 HD
ENDBRANCH   4  11
BRANCH   1  13
ATOM     13  C   LIG    1       29.828 -18.105   5.635  0.00  0.00    +0.190 C 
BRANCH  13  14
ATOM     14  O   LIG    1       28.713 -18.388   4.789  0.00  0.00    -0.392 OA
ATOM     15  H   LIG    1       28.989 -19.104   4.192  0.00  0.00    +0.209 HD
ENDBRANCH  13  14
ENDBRANCH   1  13
BRANCH   5  16
ATOM     16  O   LIG    1       28.201 -22.188   7.448  0.00  0.00    -0.461 OA
BRANCH  16  17
ATOM     17  C   LIG    1       26.833 -22.107   7.430  0.00  0.00    +0.124 A 
ATOM     18  C   LIG    1       26.163 -23.271   7.046  0.00  0.00    +0.049 A 
ATOM     19  C   LIG    1       24.767 -23.302   6.990  0.00  0.00    +0.049 A 
ATOM     20  C   LIG    1       24.042 -22.159   7.305  0.00  0.00    +0.117 A 
ATOM     21  C   LIG    1       24.693 -20.985   7.666  0.00  0.00    +0.049 A 
ATOM     22  C   LIG    1       26.091 -20.958   7.722  0.00  0.00    +0.049 A 
BRANCH  20  23
ATOM     23  O   LIG    1       22.681 -22.225   7.239  0.00  0.00    -0.507 OA
ATOM     24  H   LIG    1       22.434 -22.883   6.573  0.00  0.00    +0.292 HD
ENDBRANCH  20  23
ENDBRANCH  16  17
ENDBRANCH   5  16
TORSDOF 8
ENDMDL
MODEL 5
REMARK VINA RESULT:      -6.9      2.116      6.629
REMARK  Name = *****
REMARK                            x       y       z     vdW  Elec       q    Type
REMARK                         _______ _______ _______ _____ _____    ______ ____
ROOT
ATOM      1  C   LIG    1       25.084 -21.106   4.948  0.00  0.00    +0.179 C 
ATOM      2  C   LIG    1       23.880 -21.273   5.882  0.00  0.00    +0.177 C 
ATOM      3  C   LIG    1       24.362 -21.587   7.299  0.00  0.00    +0.180 C 
ATOM      4  C   LIG    1       25.437 -20.609   7.783  0.00  0.00    +0.214 C 
ATOM      5  C   LIG    1       26.566 -20.521   6.729  0.00  0.00    +0.339 C 
ATOM      6  O   LIG    1       26.009 -20.139   5.467  0.00  0.00    -0.331 OA
ENDROOT
BRANCH   2   7
ATOM      7  O   LIG    1       23.043 -22.347   5.433  0.00  0.00    -0.387 OA
ATOM      8  H   LIG    1       22.788 -22.133   4.513  0.00  0.00    +0.210 HD
ENDBRANCH   2   7
BRANCH   3   9
ATOM      9  O   LIG    1       23.244 -21.587   8.209  0.00  0.00    -0.386 OA
ATOM     10  H   LIG    1       23.055 -20.663   8.455  0.00  0.00    +0.210 HD
ENDBRANCH   3   9
BRANCH   4  11
ATOM     11  O   LIG    1       25.922 -21.074   9.053  0.00  0.00    -0.383 OA
ATOM     12  H   LIG    1       25.270 -20.781   9.719  0.00  0.00    +0.210 HD
ENDBRANCH   4  11
BRANCH   1  13
ATOM     13  C   LIG    1       24.658 -20.660   3.542  0.00  0.00    +0.190 C 
BRANCH  13  14
ATOM     14  O   LIG    1       23.860 -21.656   2.903  0.00  0.00    -0.392 OA
ATOM     15  H   LIG    1       23.571 -21.282   2.054  0.00  0.00    +0.209 HD
ENDBRANCH  13  14
ENDBRANCH   1  13
BRANCH   5  16
ATOM     16  O   LIG    1       27.526 -19.543   7.165  0.00  0.00    -0.461 OA
BRANCH  16  17
ATOM     17  C   LIG    1       28.688 -20.033   7.702  0.00  0.00    +0.124 A 
ATOM     18  C   LIG    1       29.576 -19.076   8.199  0.00  0.00    +0.049 A 
ATOM     19  C   LIG    1       30.793 -19.462   8.766  0.00  0.00    +0.049 A 
ATOM     20  C   LIG    1       31.127 -20.810   8.822  0.00  0.00    +0.117 A 
ATOM     21  C   LIG    1       30.265 -21.774   8.310  0.00  0.00    +0.049 A 
ATOM     22  C   LIG    1       29.047 -21.383   7.744  0.00  0.00    +0.049 A 
BRANCH  20  23
ATOM     23  O   LIG    1       32.323 -21.151   9.382  0.00  0.00    -0.507 OA
ATOM     24  H   LIG    1       32.159 -21.528  10.259  0.00  0.00    +0.292 HD
ENDBRANCH  20  23
ENDBRANCH  16  17
ENDBRANCH   5  16
TORSDOF 8
ENDMDL
MODEL 6
REMARK VINA RESULT:      -6.9      2.051      2.516
REMARK  Name = *****
REMARK                            x       y       z     vdW  Elec       q    Type
REMARK                         _______ _______ _______ _____ _____    ______ ____
ROOT
ATOM      1  C   LIG    1       30.530 -21.032   8.074  0.00  0.00    +0.179 C 
ATOM      2  C   LIG    1       30.893 -19.665   8.666  0.00  0.00    +0.177 C 
ATOM      3  C   LIG    1       30.907 -18.607   7.560  0.00  0.00    +0.180 C 
ATOM      4  C   LIG    1       29.636 -18.636   6.705  0.00  0.00    +0.214 C 
ATOM      5  C   LIG    1       29.382 -20.078   6.206  0.00  0.00    +0.339 C 
ATOM      6  O   LIG    1       29.304 -20.962   7.330  0.00  0.00    -0.331 OA
ENDROOT
BRANCH   2   7
ATOM      7  O   LIG    1       32.191 -19.711   9.274  0.00  0.00    -0.387 OA
ATOM      8  H   LIG    1       32.524 -20.621   9.145  0.00  0.00    +0.210 HD
ENDBRANCH   2   7
BRANCH   3   9
ATOM      9  O   LIG    1       31.091 -17.298   8.135  0.00  0.00    -0.386 OA
ATOM     10  H   LIG    1       31.719 -16.808   7.573  0.00  0.00    +0.210 HD
ENDBRANCH   3   9
BRANCH   4  11
ATOM     11  O   LIG    1       29.812 -17.714   5.618  0.00  0.00    -0.383 OA
ATOM     12  H   LIG    1       29.149 -17.007   5.747  0.00  0.00    +0.210 HD
ENDBRANCH   4  11
BRANCH   1  13
ATOM     13  C   LIG    1       30.372 -22.102   9.164  0.00  0.00    +0.190 C 
BRANCH  13  14
ATOM     14  O   LIG    1       31.578 -22.258   9.912  0.00  0.00    -0.392 OA
ATOM     15  H   LIG    1       31.960 -21.370  10.016  0.00  0.00    +0.209 HD
ENDBRANCH  13  14
ENDBRANCH   1  13
BRANCH   5  16
ATOM     16  O   LIG    1       28.146 -20.098   5.471  0.00  0.00    -0.461 OA
BRANCH  16  17
ATOM     17  C   LIG    1       27.019 -20.394   6.192  0.00  0.00    +0.124 A 
ATOM     18  C   LIG    1       25.865 -20.632   5.441  0.00  0.00    +0.049 A 
ATOM     19  C   LIG    1       24.657 -20.939   6.072  0.00  0.00    +0.049 A 
ATOM     20  C   LIG    1       24.602 -20.994   7.460  0.00  0.00    +0.117 A 
ATOM     21  C   LIG    1       25.735 -20.736   8.224  0.00  0.00    +0.049 A 
ATOM     22  C   LIG    1       26.943 -20.430   7.588  0.00  0.00    +0.049 A 
BRANCH  20  23
ATOM     23  O   LIG    1       23.407 -21.297   8.042  0.00  0.00    -0.507 OA
ATOM     24  H   LIG    1       23.413 -20.968   8.953  0.00  0.00    +0.292 HD
ENDBRANCH  20  23
ENDBRANCH  16  17
ENDBRANCH   5  16
TORSDOF 8
ENDMDL
MODEL 7
REMARK VINA RESULT:      -6.8      4.747      8.288
REMARK  Name = *****
REMARK                            x       y       z     vdW  Elec       q    Type
REMARK                         _______ _______ _______ _____ _____    ______ ____
ROOT
ATOM      1  C   LIG    1       25.518 -28.884   8.463  0.00  0.00    +0.179 C 
ATOM      2  C   LIG    1       25.324 -30.185   7.674  0.00  0.00    +0.177 C 
ATOM      3  C   LIG    1       24.327 -29.958   6.536  0.00  0.00    +0.180 C 
ATOM      4  C   LIG    1       24.669 -28.724   5.695  0.00  0.00    +0.214 C 
ATOM      5  C   LIG    1       24.864 -27.504   6.624  0.00  0.00    +0.339 C 
ATOM      6  O   LIG    1       25.877 -27.802   7.592  0.00  0.00    -0.331 OA
ENDROOT
BRANCH   2   7
ATOM      7  O   LIG    1       24.818 -31.219   8.529  0.00  0.00    -0.387 OA
ATOM      8  H   LIG    1       24.272 -30.774   9.208  0.00  0.00    +0.210 HD
ENDBRANCH   2   7
BRANCH   3   9
ATOM      9  O   LIG    1       24.264 -31.130   5.699  0.00  0.00    -0.386 OA
ATOM     10  H   LIG    1       24.747 -30.937   4.874  0.00  0.00    +0.210 HD
ENDBRANCH   3   9
BRANCH   4  11
ATOM     11  O   LIG    1       23.602 -28.519   4.754  0.00  0.00    -0.383 OA
ATOM     12  H   LIG    1       23.119 -29.366   4.698  0.00  0.00    +0.210 HD
ENDBRANCH   4  11
BRANCH   1  13
ATOM     13  C   LIG    1       26.608 -29.023   9.535  0.00  0.00    +0.190 C 
BRANCH  13  14
ATOM     14  O   LIG    1       27.410 -30.182   9.308  0.00  0.00    -0.392 OA
ATOM     15  H   LIG    1       27.137 -30.845   9.965  0.00  0.00    +0.209 HD
ENDBRANCH  13  14
ENDBRANCH   1  13
BRANCH   5  16
ATOM     16  O   LIG    1       25.258 -26.376   5.824  0.00  0.00    -0.461 OA
BRANCH  16  17
ATOM     17  C   LIG    1       24.965 -25.139   6.337  0.00  0.00    +0.124 A 
ATOM     18  C   LIG    1       23.616 -24.776   6.308  0.00  0.00    +0.049 A 
ATOM     19  C   LIG    1       23.203 -23.536   6.802  0.00  0.00    +0.049 A 
ATOM     20  C   LIG    1       24.145 -22.652   7.312  0.00  0.00    +0.117 A 
ATOM     21  C   LIG    1       25.495 -22.987   7.326  0.00  0.00    +0.049 A 
ATOM     22  C   LIG    1       25.905 -24.230   6.832  0.00  0.00    +0.049 A 
BRANCH  20  23
ATOM     23  O   LIG    1       23.707 -21.450   7.786  0.00  0.00    -0.507 OA
ATOM     24  H   LIG    1       23.965 -21.370   8.715  0.00  0.00    +0.292 HD
ENDBRANCH  20  23
ENDBRANCH  16  17
ENDBRANCH   5  16
TORSDOF 8
ENDMDL
MODEL 8
REMARK VINA RESULT:      -6.8      2.476      4.010
REMARK  Name = *****
REMARK                            x       y       z     vdW  Elec       q    Type
REMARK                         _______ _______ _______ _____ _____    ______ ____
ROOT
ATOM      1  C   LIG    1       28.856 -19.183   6.418  0.00  0.00    +0.179 C 
ATOM      2  C   LIG    1       29.811 -20.026   7.271  0.00  0.00    +0.177 C 
ATOM      3  C   LIG    1       29.014 -20.837   8.294  0.00  0.00    +0.180 C 
ATOM      4  C   LIG    1       27.852 -21.605   7.656  0.00  0.00    +0.214 C 
ATOM      5  C   LIG    1       26.998 -20.636   6.805  0.00  0.00    +0.339 C 
ATOM      6  O   LIG    1       27.832 -20.000   5.830  0.00  0.00    -0.331 OA
ENDROOT
BRANCH   2   7
ATOM      7  O   LIG    1       30.734 -19.182   7.973  0.00  0.00    -0.387 OA
ATOM      8  H   LIG    1       30.495 -19.237   8.919  0.00  0.00    +0.210 HD
ENDBRANCH   2   7
BRANCH   3   9
ATOM      9  O   LIG    1       29.889 -21.747   8.989  0.00  0.00    -0.386 OA
ATOM     10  H   LIG    1       29.731 -21.647   9.946  0.00  0.00    +0.210 HD
ENDBRANCH   3   9
BRANCH   4  11
ATOM     11  O   LIG    1       27.087 -22.211   8.711  0.00  0.00    -0.383 OA
ATOM     12  H   LIG    1       26.867 -23.113   8.408  0.00  0.00    +0.210 HD
ENDBRANCH   4  11
BRANCH   1  13
ATOM     13  C   LIG    1       29.595 -18.451   5.289  0.00  0.00    +0.190 C 
BRANCH  13  14
ATOM     14  O   LIG    1       28.687 -17.715   4.469  0.00  0.00    -0.392 OA
ATOM     15  H   LIG    1       28.196 -17.119   5.060  0.00  0.00    +0.209 HD
ENDBRANCH  13  14
ENDBRANCH   1  13
BRANCH   5  16
ATOM     16  O   LIG    1       25.959 -21.388   6.155  0.00  0.00    -0.461 OA
BRANCH  16  17
ATOM     17  C   LIG    1       24.963 -20.657   5.562  0.00  0.00    +0.124 A 
ATOM     18  C   LIG    1       23.763 -20.581   6.273  0.00  0.00    +0.049 A 
ATOM     19  C   LIG    1       22.679 -19.864   5.762  0.00  0.00    +0.049 A 
ATOM     20  C   LIG    1       22.792 -19.234   4.528  0.00  0.00    +0.117 A 
ATOM     21  C   LIG    1       23.972 -19.319   3.796  0.00  0.00    +0.049 A 
ATOM     22  C   LIG    1       25.056 -20.038   4.312  0.00  0.00    +0.049 A 
BRANCH  20  23
ATOM     23  O   LIG    1       21.714 -18.543   4.060  0.00  0.00    -0.507 OA
ATOM     24  H   LIG    1       20.927 -18.829   4.545  0.00  0.00    +0.292 HD
ENDBRANCH  20  23
ENDBRANCH  16  17
ENDBRANCH   5  16
TORSDOF 8
ENDMDL
MODEL 9
REMARK VINA RESULT:      -6.7      1.166      3.111
REMARK  Name = *****
REMARK                            x       y       z     vdW  Elec       q    Type
REMARK                         _______ _______ _______ _____ _____    ______ ____
ROOT
ATOM      1  C   LIG    1       27.831 -19.469   5.894  0.00  0.00    +0.179 C 
ATOM      2  C   LIG    1       29.359 -19.456   5.760  0.00  0.00    +0.177 C 
ATOM      3  C   LIG    1       30.001 -19.816   7.101  0.00  0.00    +0.180 C 
ATOM      4  C   LIG    1       29.407 -21.089   7.712  0.00  0.00    +0.214 C 
ATOM      5  C   LIG    1       27.865 -20.970   7.755  0.00  0.00    +0.339 C 
ATOM      6  O   LIG    1       27.373 -20.718   6.434  0.00  0.00    -0.331 OA
ENDROOT
BRANCH   2   7
ATOM      7  O   LIG    1       29.815 -18.155   5.367  0.00  0.00    -0.387 OA
ATOM      8  H   LIG    1       30.790 -18.170   5.440  0.00  0.00    +0.210 HD
ENDBRANCH   2   7
BRANCH   3   9
ATOM      9  O   LIG    1       31.426 -19.959   6.940  0.00  0.00    -0.386 OA
ATOM     10  H   LIG    1       31.647 -20.904   7.035  0.00  0.00    +0.210 HD
ENDBRANCH   3   9
BRANCH   4  11
ATOM     11  O   LIG    1       29.970 -21.256   9.024  0.00  0.00    -0.383 OA
ATOM     12  H   LIG    1       29.280 -20.976   9.657  0.00  0.00    +0.210 HD
ENDBRANCH   4  11
BRANCH   1  13
ATOM     13  C   LIG    1       27.138 -19.244   4.544  0.00  0.00    +0.190 C 
BRANCH  13  14
ATOM     14  O   LIG    1       26.236 -20.309   4.242  0.00  0.00    -0.392 OA
ATOM     15  H   LIG    1       26.066 -20.270   3.286  0.00  0.00    +0.209 HD
ENDBRANCH  13  14
ENDBRANCH   1  13
BRANCH   5  16
ATOM     16  O   LIG    1       27.324 -22.203   8.260  0.00  0.00    -0.461 OA
BRANCH  16  17
ATOM     17  C   LIG    1       26.114 -22.588   7.744  0.00  0.00    +0.124 A 
ATOM     18  C   LIG    1       25.055 -21.702   7.960  0.00  0.00    +0.049 A 
ATOM     19  C   LIG    1       23.775 -21.995   7.481  0.00  0.00    +0.049 A 
ATOM     20  C   LIG    1       23.553 -23.184   6.797  0.00  0.00    +0.117 A 
ATOM     21  C   LIG    1       24.591 -24.087   6.594  0.00  0.00    +0.049 A 
ATOM     22  C   LIG    1       25.871 -23.791   7.075  0.00  0.00    +0.049 A 
BRANCH  20  23
ATOM     23  O   LIG    1       22.292 -23.436   6.343  0.00  0.00    -0.507 OA
ATOM     24  H   LIG    1       22.354 -23.907   5.500  0.00  0.00    +0.292 HD
ENDBRANCH  20  23
ENDBRANCH  16  17
ENDBRANCH   5  16
TORSDOF 8
ENDMDL
