MODEL 1
REMARK VINA RESULT:      -4.4      0.000      0.000
REMARK  Name = *****
REMARK                            x       y       z     vdW  Elec       q    Type
REMARK                         _______ _______ _______ _____ _____    ______ ____
ROOT
ATOM      1  C   LIG    1       27.019 -16.832   3.530  0.00  0.00    +0.267 C 
ENDROOT
BRANCH   1   2
ATOM      2  C   LIG    1       27.674 -17.882   4.389  0.00  0.00    -0.007 A 
ATOM      3  C   LIG    1       26.967 -19.052   4.692  0.00  0.00    +0.053 A 
ATOM      4  C   LIG    1       27.474 -19.980   5.605  0.00  0.00    +0.129 A 
ATOM      5  C   LIG    1       28.722 -19.747   6.192  0.00  0.00    +0.046 A 
ATOM      6  C   LIG    1       29.474 -18.628   5.827  0.00  0.00    +0.004 A 
ATOM      7  C   LIG    1       28.950 -17.695   4.932  0.00  0.00    +0.007 A 
BRANCH   4   8
ATOM      8  O   LIG    1       26.771 -21.082   6.051  0.00  0.00    -0.456 OA
BRANCH   8   9
ATOM      9  C   LIG    1       25.395 -21.098   5.963  0.00  0.00    +0.128 A 
ATOM     10  C   LIG    1       24.831 -21.271   4.695  0.00  0.00    +0.046 A 
ATOM     11  C   LIG    1       23.441 -21.250   4.538  0.00  0.00    +0.004 A 
ATOM     12  C   LIG    1       22.614 -21.081   5.650  0.00  0.00    +0.000 A 
ATOM     13  C   LIG    1       23.175 -20.901   6.912  0.00  0.00    +0.004 A 
ATOM     14  C   LIG    1       24.561 -20.873   7.062  0.00  0.00    +0.046 A 
ENDBRANCH   8   9
ENDBRANCH   4   8
ENDBRANCH   1   2
BRANCH   1  15
ATOM     15  O   LIG    1       27.661 -15.570   3.701  0.00  0.00    -0.460 OA
BRANCH  15  16
ATOM     16  C   LIG    1       27.159 -14.566   2.948  0.00  0.00    +0.312 C 
ATOM     17  O   LIG    1       26.690 -14.687   1.813  0.00  0.00    -0.251 OA
BRANCH  16  20
ATOM     18  C   LIG    1       27.927 -14.272   6.032  0.00  0.00    +0.012 C 
ATOM     19  C   LIG    1       27.633 -13.099   5.122  0.00  0.00    -0.014 C 
ATOM     20  C   LIG    1       27.255 -13.278   3.657  0.00  0.00    +0.111 C 
ATOM     21  C   LIG    1       26.213 -12.815   4.651  0.00  0.00    +0.035 C 
ATOM     22  C   LIG    1       28.485 -11.895   5.454  0.00  0.00    +0.012 C 
BRANCH  21  23
ATOM     23  C   LIG    1       25.080 -13.682   5.023  0.00  0.00    +0.010 C 
ATOM     24  C   LIG    1       23.994 -13.972   4.290  0.00  0.00    +0.103 C 
ATOM     25 CL   LIG    1       22.757 -14.995   4.932  0.00  0.00    -0.071 Cl
ATOM     26 CL   LIG    1       23.758 -13.348   2.698  0.00  0.00    -0.071 Cl
ENDBRANCH  21  23
ENDBRANCH  16  20
ENDBRANCH  15  16
ENDBRANCH   1  15
TORSDOF 7
ENDMDL
MODEL 2
REMARK VINA RESULT:      -4.3      2.627      4.693
REMARK  Name = *****
REMARK                            x       y       z     vdW  Elec       q    Type
REMARK                         _______ _______ _______ _____ _____    ______ ____
ROOT
ATOM      1  C   LIG    1       22.539 -16.120   4.878  0.00  0.00    +0.267 C 
ENDROOT
BRANCH   1   2
ATOM      2  C   LIG    1       22.189 -17.577   4.724  0.00  0.00    -0.007 A 
ATOM      3  C   LIG    1       22.990 -18.539   5.350  0.00  0.00    +0.053 A 
ATOM      4  C   LIG    1       22.792 -19.901   5.112  0.00  0.00    +0.129 A 
ATOM      5  C   LIG    1       21.756 -20.301   4.262  0.00  0.00    +0.046 A 
ATOM      6  C   LIG    1       20.896 -19.352   3.704  0.00  0.00    +0.004 A 
ATOM      7  C   LIG    1       21.114 -17.993   3.931  0.00  0.00    +0.007 A 
BRANCH   4   8
ATOM      8  O   LIG    1       23.628 -20.895   5.586  0.00  0.00    -0.456 OA
BRANCH   8   9
ATOM      9  C   LIG    1       24.969 -20.631   5.767  0.00  0.00    +0.128 A 
ATOM     10  C   LIG    1       25.667 -20.067   4.694  0.00  0.00    +0.046 A 
ATOM     11  C   LIG    1       27.039 -19.819   4.805  0.00  0.00    +0.004 A 
ATOM     12  C   LIG    1       27.710 -20.112   5.993  0.00  0.00    +0.000 A 
ATOM     13  C   LIG    1       27.017 -20.680   7.060  0.00  0.00    +0.004 A 
ATOM     14  C   LIG    1       25.659 -20.972   6.933  0.00  0.00    +0.046 A 
ENDBRANCH   8   9
ENDBRANCH   4   8
ENDBRANCH   1   2
BRANCH   1  15
ATOM     15  O   LIG    1       23.166 -15.625   3.697  0.00  0.00    -0.460 OA
BRANCH  15  16
ATOM     16  C   LIG    1       24.421 -15.153   3.870  0.00  0.00    +0.312 C 
ATOM     17  O   LIG    1       25.451 -15.680   3.440  0.00  0.00    -0.251 OA
BRANCH  16  20
ATOM     18  C   LIG    1       24.214 -12.225   2.618  0.00  0.00    +0.012 C 
ATOM     19  C   LIG    1       24.299 -12.500   4.103  0.00  0.00    -0.014 C 
ATOM     20  C   LIG    1       24.412 -13.912   4.665  0.00  0.00    +0.111 C 
ATOM     21  C   LIG    1       25.600 -12.979   4.733  0.00  0.00    +0.035 C 
ATOM     22  C   LIG    1       23.481 -11.519   4.910  0.00  0.00    +0.012 C 
BRANCH  21  23
ATOM     23  C   LIG    1       26.810 -13.230   3.930  0.00  0.00    +0.010 C 
ATOM     24  C   LIG    1       28.088 -13.017   4.282  0.00  0.00    +0.103 C 
ATOM     25 CL   LIG    1       29.366 -13.353   3.168  0.00  0.00    -0.071 Cl
ATOM     26 CL   LIG    1       28.529 -12.394   5.830  0.00  0.00    -0.071 Cl
ENDBRANCH  21  23
ENDBRANCH  16  20
ENDBRANCH  15  16
ENDBRANCH   1  15
TORSDOF 7
ENDMDL
MODEL 3
REMARK VINA RESULT:      -4.1      1.723      6.253
REMARK  Name = *****
REMARK                            x       y       z     vdW  Elec       q    Type
REMARK                         _______ _______ _______ _____ _____    ______ ____
ROOT
ATOM      1  C   LIG    1       26.686 -21.176   6.841  0.00  0.00    +0.267 C 
ENDROOT
BRANCH   1   2
ATOM      2  C   LIG    1       27.468 -19.987   6.349  0.00  0.00    -0.007 A 
ATOM      3  C   LIG    1       26.954 -19.221   5.296  0.00  0.00    +0.053 A 
ATOM      4  C   LIG    1       27.713 -18.205   4.711  0.00  0.00    +0.129 A 
ATOM      5  C   LIG    1       28.990 -17.933   5.213  0.00  0.00    +0.046 A 
ATOM      6  C   LIG    1       29.475 -18.631   6.321  0.00  0.00    +0.004 A 
ATOM      7  C   LIG    1       28.718 -19.658   6.885  0.00  0.00    +0.007 A 
BRANCH   4   8
ATOM      8  O   LIG    1       27.324 -17.505   3.585  0.00  0.00    -0.456 OA
BRANCH   8   9
ATOM      9  C   LIG    1       26.807 -16.233   3.716  0.00  0.00    +0.128 A 
ATOM     10  C   LIG    1       25.442 -16.061   3.463  0.00  0.00    +0.046 A 
ATOM     11  C   LIG    1       24.873 -14.785   3.538  0.00  0.00    +0.004 A 
ATOM     12  C   LIG    1       25.659 -13.686   3.887  0.00  0.00    +0.000 A 
ATOM     13  C   LIG    1       27.020 -13.856   4.131  0.00  0.00    +0.004 A 
ATOM     14  C   LIG    1       27.598 -15.119   4.010  0.00  0.00    +0.046 A 
ENDBRANCH   8   9
ENDBRANCH   4   8
ENDBRANCH   1   2
BRANCH   1  15
ATOM     15  O   LIG    1       25.688 -21.550   5.894  0.00  0.00    -0.460 OA
BRANCH  15  16
ATOM     16  C   LIG    1       24.483 -20.966   6.072  0.00  0.00    +0.312 C 
ATOM     17  O   LIG    1       24.143 -20.308   7.059  0.00  0.00    -0.251 OA
BRANCH  16  20
ATOM     18  C   LIG    1       24.883 -19.690   3.173  0.00  0.00    +0.012 C 
ATOM     19  C   LIG    1       23.766 -20.649   3.524  0.00  0.00    -0.014 C 
ATOM     20  C   LIG    1       23.597 -21.227   4.924  0.00  0.00    +0.111 C 
ATOM     21  C   LIG    1       22.607 -20.206   4.408  0.00  0.00    +0.035 C 
ATOM     22  C   LIG    1       23.422 -21.566   2.372  0.00  0.00    +0.012 C 
BRANCH  21  23
ATOM     23  C   LIG    1       22.542 -18.852   4.987  0.00  0.00    +0.010 C 
ATOM     24  C   LIG    1       21.870 -17.790   4.515  0.00  0.00    +0.103 C 
ATOM     25 CL   LIG    1       21.952 -16.272   5.339  0.00  0.00    -0.071 Cl
ATOM     26 CL   LIG    1       20.913 -17.862   3.081  0.00  0.00    -0.071 Cl
ENDBRANCH  21  23
ENDBRANCH  16  20
ENDBRANCH  15  16
ENDBRANCH   1  15
TORSDOF 7
ENDMDL
MODEL 4
REMARK VINA RESULT:      -3.3      1.880      2.715
REMARK  Name = *****
REMARK                            x       y       z     vdW  Elec       q    Type
REMARK                         _______ _______ _______ _____ _____    ______ ____
ROOT
ATOM      1  C   LIG    1       27.518 -17.416   3.566  0.00  0.00    +0.267 C 
ENDROOT
BRANCH   1   2
ATOM      2  C   LIG    1       27.942 -18.364   4.656  0.00  0.00    -0.007 A 
ATOM      3  C   LIG    1       27.088 -19.412   5.018  0.00  0.00    +0.053 A 
ATOM      4  C   LIG    1       27.372 -20.221   6.122  0.00  0.00    +0.129 A 
ATOM      5  C   LIG    1       28.546 -19.996   6.847  0.00  0.00    +0.046 A 
ATOM      6  C   LIG    1       29.449 -19.010   6.439  0.00  0.00    +0.004 A 
ATOM      7  C   LIG    1       29.146 -18.194   5.350  0.00  0.00    +0.007 A 
BRANCH   4   8
ATOM      8  O   LIG    1       26.509 -21.181   6.615  0.00  0.00    -0.456 OA
BRANCH   8   9
ATOM      9  C   LIG    1       25.187 -21.178   6.222  0.00  0.00    +0.128 A 
ATOM     10  C   LIG    1       24.907 -21.527   4.897  0.00  0.00    +0.046 A 
ATOM     11  C   LIG    1       23.588 -21.499   4.431  0.00  0.00    +0.004 A 
ATOM     12  C   LIG    1       22.548 -21.145   5.292  0.00  0.00    +0.000 A 
ATOM     13  C   LIG    1       22.828 -20.791   6.610  0.00  0.00    +0.004 A 
ATOM     14  C   LIG    1       24.147 -20.772   7.062  0.00  0.00    +0.046 A 
ENDBRANCH   8   9
ENDBRANCH   4   8
ENDBRANCH   1   2
BRANCH   1  15
ATOM     15  O   LIG    1       27.494 -16.074   4.046  0.00  0.00    -0.460 OA
BRANCH  15  16
ATOM     16  C   LIG    1       26.853 -15.191   3.249  0.00  0.00    +0.312 C 
ATOM     17  O   LIG    1       27.221 -14.843   2.124  0.00  0.00    -0.251 OA
BRANCH  16  20
ATOM     18  C   LIG    1       25.149 -12.717   2.170  0.00  0.00    +0.012 C 
ATOM     19  C   LIG    1       24.794 -13.506   3.412  0.00  0.00    -0.014 C 
ATOM     20  C   LIG    1       25.640 -14.673   3.906  0.00  0.00    +0.111 C 
ATOM     21  C   LIG    1       25.625 -13.374   4.682  0.00  0.00    +0.035 C 
ATOM     22  C   LIG    1       23.299 -13.634   3.595  0.00  0.00    +0.012 C 
BRANCH  21  23
ATOM     23  C   LIG    1       26.820 -12.514   4.747  0.00  0.00    +0.010 C 
ATOM     24  C   LIG    1       27.903 -12.672   5.524  0.00  0.00    +0.103 C 
ATOM     25 CL   LIG    1       29.191 -11.521   5.467  0.00  0.00    -0.071 Cl
ATOM     26 CL   LIG    1       28.073 -13.997   6.617  0.00  0.00    -0.071 Cl
ENDBRANCH  21  23
ENDBRANCH  16  20
ENDBRANCH  15  16
ENDBRANCH   1  15
TORSDOF 7
ENDMDL
MODEL 5
REMARK VINA RESULT:      -2.2      2.953      7.780
REMARK  Name = *****
REMARK                            x       y       z     vdW  Elec       q    Type
REMARK                         _______ _______ _______ _____ _____    ______ ____
ROOT
ATOM      1  C   LIG    1       24.448 -18.361   3.508  0.00  0.00    +0.267 C 
ENDROOT
BRANCH   1   2
ATOM      2  C   LIG    1       23.841 -17.038   3.893  0.00  0.00    -0.007 A 
ATOM      3  C   LIG    1       24.441 -15.856   3.443  0.00  0.00    +0.053 A 
ATOM      4  C   LIG    1       24.001 -14.611   3.898  0.00  0.00    +0.129 A 
ATOM      5  C   LIG    1       22.924 -14.551   4.788  0.00  0.00    +0.046 A 
ATOM      6  C   LIG    1       22.261 -15.720   5.172  0.00  0.00    +0.004 A 
ATOM      7  C   LIG    1       22.721 -16.961   4.729  0.00  0.00    +0.007 A 
BRANCH   4   8
ATOM      8  O   LIG    1       24.632 -13.417   3.604  0.00  0.00    -0.456 OA
BRANCH   8   9
ATOM      9  C   LIG    1       25.956 -13.241   3.948  0.00  0.00    +0.128 A 
ATOM     10  C   LIG    1       26.873 -13.044   2.911  0.00  0.00    +0.046 A 
ATOM     11  C   LIG    1       28.235 -12.904   3.198  0.00  0.00    +0.004 A 
ATOM     12  C   LIG    1       28.678 -12.936   4.521  0.00  0.00    +0.000 A 
ATOM     13  C   LIG    1       27.766 -13.139   5.554  0.00  0.00    +0.004 A 
ATOM     14  C   LIG    1       26.415 -13.328   5.265  0.00  0.00    +0.046 A 
ENDBRANCH   8   9
ENDBRANCH   4   8
ENDBRANCH   1   2
BRANCH   1  15
ATOM     15  O   LIG    1       23.465 -19.394   3.532  0.00  0.00    -0.460 OA
BRANCH  15  16
ATOM     16  C   LIG    1       23.949 -20.648   3.400  0.00  0.00    +0.312 C 
ATOM     17  O   LIG    1       24.305 -21.172   2.340  0.00  0.00    -0.251 OA
BRANCH  16  20
ATOM     18  C   LIG    1       23.353 -19.230   6.196  0.00  0.00    +0.012 C 
ATOM     19  C   LIG    1       23.695 -20.697   6.053  0.00  0.00    -0.014 C 
ATOM     20  C   LIG    1       23.989 -21.337   4.702  0.00  0.00    +0.111 C 
ATOM     21  C   LIG    1       25.110 -21.136   5.698  0.00  0.00    +0.035 C 
ATOM     22  C   LIG    1       22.957 -21.553   7.056  0.00  0.00    +0.012 C 
BRANCH  21  23
ATOM     23  C   LIG    1       26.187 -20.163   5.442  0.00  0.00    +0.010 C 
ATOM     24  C   LIG    1       27.425 -20.153   5.961  0.00  0.00    +0.103 C 
ATOM     25 CL   LIG    1       28.533 -18.893   5.549  0.00  0.00    -0.071 Cl
ATOM     26 CL   LIG    1       27.976 -21.364   7.062  0.00  0.00    -0.071 Cl
ENDBRANCH  21  23
ENDBRANCH  16  20
ENDBRANCH  15  16
ENDBRANCH   1  15
TORSDOF 7
ENDMDL
MODEL 6
REMARK VINA RESULT:      -2.0      1.381      1.871
REMARK  Name = *****
REMARK                            x       y       z     vdW  Elec       q    Type
REMARK                         _______ _______ _______ _____ _____    ______ ____
ROOT
ATOM      1  C   LIG    1       27.780 -16.589   3.896  0.00  0.00    +0.267 C 
ENDROOT
BRANCH   1   2
ATOM      2  C   LIG    1       28.123 -17.799   4.725  0.00  0.00    -0.007 A 
ATOM      3  C   LIG    1       27.272 -18.910   4.694  0.00  0.00    +0.053 A 
ATOM      4  C   LIG    1       27.470 -19.989   5.558  0.00  0.00    +0.129 A 
ATOM      5  C   LIG    1       28.556 -19.967   6.439  0.00  0.00    +0.046 A 
ATOM      6  C   LIG    1       29.462 -18.903   6.414  0.00  0.00    +0.004 A 
ATOM      7  C   LIG    1       29.244 -17.820   5.562  0.00  0.00    +0.007 A 
BRANCH   4   8
ATOM      8  O   LIG    1       26.594 -21.051   5.676  0.00  0.00    -0.456 OA
BRANCH   8   9
ATOM      9  C   LIG    1       25.237 -20.833   5.565  0.00  0.00    +0.128 A 
ATOM     10  C   LIG    1       24.467 -20.945   6.727  0.00  0.00    +0.046 A 
ATOM     11  C   LIG    1       23.080 -20.778   6.666  0.00  0.00    +0.004 A 
ATOM     12  C   LIG    1       22.463 -20.478   5.450  0.00  0.00    +0.000 A 
ATOM     13  C   LIG    1       23.229 -20.373   4.291  0.00  0.00    +0.004 A 
ATOM     14  C   LIG    1       24.605 -20.587   4.343  0.00  0.00    +0.046 A 
ENDBRANCH   8   9
ENDBRANCH   4   8
ENDBRANCH   1   2
BRANCH   1  15
ATOM     15  O   LIG    1       26.632 -16.840   3.088  0.00  0.00    -0.460 OA
BRANCH  15  16
ATOM     16  C   LIG    1       25.601 -15.988   3.278  0.00  0.00    +0.312 C 
ATOM     17  O   LIG    1       24.513 -16.281   3.782  0.00  0.00    -0.251 OA
BRANCH  16  20
ATOM     18  C   LIG    1       26.913 -13.701   5.078  0.00  0.00    +0.012 C 
ATOM     19  C   LIG    1       26.576 -13.530   3.613  0.00  0.00    -0.014 C 
ATOM     20  C   LIG    1       25.936 -14.639   2.788  0.00  0.00    +0.111 C 
ATOM     21  C   LIG    1       25.128 -13.414   3.155  0.00  0.00    +0.035 C 
ATOM     22  C   LIG    1       27.580 -12.654   2.898  0.00  0.00    +0.012 C 
BRANCH  21  23
ATOM     23  C   LIG    1       24.001 -13.503   4.101  0.00  0.00    +0.010 C 
ATOM     24  C   LIG    1       23.781 -12.747   5.188  0.00  0.00    +0.103 C 
ATOM     25 CL   LIG    1       22.401 -13.039   6.188  0.00  0.00    -0.071 Cl
ATOM     26 CL   LIG    1       24.842 -11.469   5.657  0.00  0.00    -0.071 Cl
ENDBRANCH  21  23
ENDBRANCH  16  20
ENDBRANCH  15  16
ENDBRANCH   1  15
TORSDOF 7
ENDMDL
