MODEL 1
REMARK VINA RESULT:      -2.8      0.000      0.000
REMARK  Name = *****
REMARK                            x       y       z     vdW  Elec       q    Type
REMARK                         _______ _______ _______ _____ _____    ______ ____
ROOT
ATOM      1  C   LIG    1       26.210 -13.340   3.954  0.00  0.00    +0.024 C 
ATOM      2  C   LIG    1       26.646 -13.322   5.432  0.00  0.00    +0.028 C 
ATOM      3  C   LIG    1       24.859 -12.551   3.613  0.00  0.00    -0.014 C 
ATOM      4  C   LIG    1       25.004 -11.447   2.530  0.00  0.00    +0.013 C 
ATOM      5  C   LIG    1       24.201 -11.859   4.821  0.00  0.00    +0.013 C 
ATOM      6  C   LIG    1       23.958 -13.685   2.999  0.00  0.00    -0.003 C 
ATOM      7  C   LIG    1       24.976 -14.549   2.243  0.00  0.00    +0.009 C 
ATOM      8  C   LIG    1       23.478 -14.687   4.062  0.00  0.00    +0.004 C 
ATOM      9  C   LIG    1       24.754 -15.456   4.409  0.00  0.00    +0.005 C 
ATOM     10  C   LIG    1       25.815 -14.802   3.500  0.00  0.00    +0.010 C 
ENDROOT
BRANCH   1  12
ATOM     11  C   LIG    1       28.666 -12.950   3.687  0.00  0.00    +0.101 C 
ATOM     12  N   LIG    1       27.343 -12.947   3.075  0.00  0.00    -0.313 NA
ATOM     13  H   LIG    1       27.373 -13.557   2.258  0.00  0.00    +0.122 HD
ENDBRANCH   1  12
TORSDOF 1
ENDMDL
MODEL 2
REMARK VINA RESULT:      -2.6      1.439      3.009
REMARK  Name = *****
REMARK                            x       y       z     vdW  Elec       q    Type
REMARK                         _______ _______ _______ _____ _____    ______ ____
ROOT
ATOM      1  C   LIG    1       25.240 -14.642   3.745  0.00  0.00    +0.024 C 
ATOM      2  C   LIG    1       23.794 -15.030   4.110  0.00  0.00    +0.028 C 
ATOM      3  C   LIG    1       25.808 -13.317   4.444  0.00  0.00    -0.014 C 
ATOM      4  C   LIG    1       27.116 -13.518   5.257  0.00  0.00    +0.013 C 
ATOM      5  C   LIG    1       24.824 -12.634   5.411  0.00  0.00    +0.013 C 
ATOM      6  C   LIG    1       26.167 -12.416   3.206  0.00  0.00    -0.003 C 
ATOM      7  C   LIG    1       26.658 -13.442   2.176  0.00  0.00    +0.009 C 
ATOM      8  C   LIG    1       24.914 -11.883   2.491  0.00  0.00    +0.004 C 
ATOM      9  C   LIG    1       24.348 -13.132   1.813  0.00  0.00    +0.005 C 
ATOM     10  C   LIG    1       25.348 -14.235   2.220  0.00  0.00    +0.010 C 
ENDROOT
BRANCH   1  12
ATOM     11  C   LIG    1       25.719 -17.050   3.269  0.00  0.00    +0.101 C 
ATOM     12  N   LIG    1       26.146 -15.810   3.906  0.00  0.00    -0.313 NA
ATOM     13  H   LIG    1       27.074 -15.578   3.552  0.00  0.00    +0.122 HD
ENDBRANCH   1  12
TORSDOF 1
ENDMDL
MODEL 3
REMARK VINA RESULT:      -2.2      1.291      2.508
REMARK  Name = *****
REMARK                            x       y       z     vdW  Elec       q    Type
REMARK                         _______ _______ _______ _____ _____    ______ ____
ROOT
ATOM      1  C   LIG    1       26.138 -13.784   3.292  0.00  0.00    +0.024 C 
ATOM      2  C   LIG    1       27.550 -13.194   3.108  0.00  0.00    +0.028 C 
ATOM      3  C   LIG    1       24.921 -12.831   2.874  0.00  0.00    -0.014 C 
ATOM      4  C   LIG    1       23.958 -13.428   1.812  0.00  0.00    +0.013 C 
ATOM      5  C   LIG    1       25.346 -11.459   2.320  0.00  0.00    +0.013 C 
ATOM      6  C   LIG    1       24.112 -12.718   4.219  0.00  0.00    -0.003 C 
ATOM      7  C   LIG    1       24.287 -14.112   4.833  0.00  0.00    +0.009 C 
ATOM      8  C   LIG    1       24.841 -11.859   5.267  0.00  0.00    +0.004 C 
ATOM      9  C   LIG    1       26.014 -12.748   5.683  0.00  0.00    +0.005 C 
ATOM     10  C   LIG    1       25.816 -14.014   4.823  0.00  0.00    +0.010 C 
ENDROOT
BRANCH   1  12
ATOM     11  C   LIG    1       26.815 -16.192   3.312  0.00  0.00    +0.101 C 
ATOM     12  N   LIG    1       26.055 -15.130   2.665  0.00  0.00    -0.313 NA
ATOM     13  H   LIG    1       25.080 -15.427   2.614  0.00  0.00    +0.122 HD
ENDBRANCH   1  12
TORSDOF 1
ENDMDL
MODEL 4
REMARK VINA RESULT:      -2.1      1.207      2.226
REMARK  Name = *****
REMARK                            x       y       z     vdW  Elec       q    Type
REMARK                         _______ _______ _______ _____ _____    ______ ____
ROOT
ATOM      1  C   LIG    1       26.310 -13.496   4.368  0.00  0.00    +0.024 C 
ATOM      2  C   LIG    1       26.702 -14.963   4.628  0.00  0.00    +0.028 C 
ATOM      3  C   LIG    1       24.739 -13.182   4.353  0.00  0.00    -0.014 C 
ATOM      4  C   LIG    1       24.281 -12.093   5.360  0.00  0.00    +0.013 C 
ATOM      5  C   LIG    1       23.842 -14.403   4.631  0.00  0.00    +0.013 C 
ATOM      6  C   LIG    1       24.532 -12.594   2.909  0.00  0.00    -0.003 C 
ATOM      7  C   LIG    1       25.834 -11.818   2.673  0.00  0.00    +0.009 C 
ATOM      8  C   LIG    1       24.649 -13.671   1.818  0.00  0.00    +0.004 C 
ATOM      9  C   LIG    1       26.145 -13.992   1.812  0.00  0.00    +0.005 C 
ATOM     10  C   LIG    1       26.708 -13.056   2.902  0.00  0.00    +0.010 C 
ENDROOT
BRANCH   1  12
ATOM     11  C   LIG    1       28.487 -12.429   4.982  0.00  0.00    +0.101 C 
ATOM     12  N   LIG    1       27.068 -12.590   5.271  0.00  0.00    -0.313 NA
ATOM     13  H   LIG    1       26.640 -11.664   5.269  0.00  0.00    +0.122 HD
ENDBRANCH   1  12
TORSDOF 1
ENDMDL
MODEL 5
REMARK VINA RESULT:      -2.1      6.100      7.530
REMARK  Name = *****
REMARK                            x       y       z     vdW  Elec       q    Type
REMARK                         _______ _______ _______ _____ _____    ______ ____
ROOT
ATOM      1  C   LIG    1       22.818 -20.551   5.119  0.00  0.00    +0.024 C 
ATOM      2  C   LIG    1       21.694 -21.558   4.812  0.00  0.00    +0.028 C 
ATOM      3  C   LIG    1       22.640 -19.088   4.490  0.00  0.00    -0.014 C 
ATOM      4  C   LIG    1       22.666 -17.927   5.521  0.00  0.00    +0.013 C 
ATOM      5  C   LIG    1       21.342 -18.894   3.684  0.00  0.00    +0.013 C 
ATOM      6  C   LIG    1       23.931 -18.948   3.603  0.00  0.00    -0.003 C 
ATOM      7  C   LIG    1       24.987 -19.695   4.428  0.00  0.00    +0.009 C 
ATOM      8  C   LIG    1       23.877 -19.839   2.350  0.00  0.00    +0.004 C 
ATOM      9  C   LIG    1       24.044 -21.247   2.924  0.00  0.00    +0.005 C 
ATOM     10  C   LIG    1       24.176 -20.995   4.440  0.00  0.00    +0.010 C 
ENDROOT
BRANCH   1  12
ATOM     11  C   LIG    1       24.112 -21.448   7.062  0.00  0.00    +0.101 C 
ATOM     12  N   LIG    1       23.100 -20.518   6.579  0.00  0.00    -0.313 NA
ATOM     13  H   LIG    1       23.380 -19.576   6.854  0.00  0.00    +0.122 HD
ENDBRANCH   1  12
TORSDOF 1
ENDMDL
MODEL 6
REMARK VINA RESULT:      -2.0      1.597      3.365
REMARK  Name = *****
REMARK                            x       y       z     vdW  Elec       q    Type
REMARK                         _______ _______ _______ _____ _____    ______ ____
ROOT
ATOM      1  C   LIG    1       26.195 -14.555   3.293  0.00  0.00    +0.024 C 
ATOM      2  C   LIG    1       26.581 -14.370   1.812  0.00  0.00    +0.028 C 
ATOM      3  C   LIG    1       25.358 -13.359   3.953  0.00  0.00    -0.014 C 
ATOM      4  C   LIG    1       23.996 -13.778   4.569  0.00  0.00    +0.013 C 
ATOM      5  C   LIG    1       25.037 -12.199   2.993  0.00  0.00    +0.013 C 
ATOM      6  C   LIG    1       26.289 -12.922   5.143  0.00  0.00    -0.003 C 
ATOM      7  C   LIG    1       26.897 -14.254   5.601  0.00  0.00    +0.009 C 
ATOM      8  C   LIG    1       27.553 -12.193   4.657  0.00  0.00    +0.004 C 
ATOM      9  C   LIG    1       28.372 -13.316   4.018  0.00  0.00    +0.005 C 
ATOM     10  C   LIG    1       27.478 -14.557   4.216  0.00  0.00    +0.010 C 
ENDROOT
BRANCH   1  12
ATOM     11  C   LIG    1       26.417 -17.046   3.314  0.00  0.00    +0.101 C 
ATOM     12  N   LIG    1       25.558 -15.884   3.499  0.00  0.00    -0.313 NA
ATOM     13  H   LIG    1       25.160 -15.933   4.437  0.00  0.00    +0.122 HD
ENDBRANCH   1  12
TORSDOF 1
ENDMDL
MODEL 7
REMARK VINA RESULT:      -2.0      1.667      3.491
REMARK  Name = *****
REMARK                            x       y       z     vdW  Elec       q    Type
REMARK                         _______ _______ _______ _____ _____    ______ ____
ROOT
ATOM      1  C   LIG    1       24.979 -14.512   4.158  0.00  0.00    +0.024 C 
ATOM      2  C   LIG    1       24.911 -15.795   3.309  0.00  0.00    +0.028 C 
ATOM      3  C   LIG    1       25.050 -13.135   3.343  0.00  0.00    -0.014 C 
ATOM      4  C   LIG    1       23.927 -12.117   3.680  0.00  0.00    +0.013 C 
ATOM      5  C   LIG    1       25.013 -13.298   1.812  0.00  0.00    +0.013 C 
ATOM      6  C   LIG    1       26.403 -12.516   3.854  0.00  0.00    -0.003 C 
ATOM      7  C   LIG    1       26.437 -12.954   5.324  0.00  0.00    +0.009 C 
ATOM      8  C   LIG    1       27.630 -13.269   3.312  0.00  0.00    +0.004 C 
ATOM      9  C   LIG    1       27.585 -14.593   4.076  0.00  0.00    +0.005 C 
ATOM     10  C   LIG    1       26.336 -14.441   4.968  0.00  0.00    +0.010 C 
ENDROOT
BRANCH   1  12
ATOM     11  C   LIG    1       22.761 -15.378   4.925  0.00  0.00    +0.101 C 
ATOM     12  N   LIG    1       23.905 -14.515   5.188  0.00  0.00    -0.313 NA
ATOM     13  H   LIG    1       24.297 -14.777   6.093  0.00  0.00    +0.122 HD
ENDBRANCH   1  12
TORSDOF 1
ENDMDL
MODEL 8
REMARK VINA RESULT:      -1.9      1.002      2.673
REMARK  Name = *****
REMARK                            x       y       z     vdW  Elec       q    Type
REMARK                         _______ _______ _______ _____ _____    ______ ____
ROOT
ATOM      1  C   LIG    1       26.484 -13.197   2.981  0.00  0.00    +0.024 C 
ATOM      2  C   LIG    1       26.944 -14.101   1.821  0.00  0.00    +0.028 C 
ATOM      3  C   LIG    1       25.778 -13.941   4.211  0.00  0.00    -0.014 C 
ATOM      4  C   LIG    1       26.445 -13.697   5.592  0.00  0.00    +0.013 C 
ATOM      5  C   LIG    1       25.685 -15.471   4.063  0.00  0.00    +0.013 C 
ATOM      6  C   LIG    1       24.366 -13.249   4.251  0.00  0.00    -0.003 C 
ATOM      7  C   LIG    1       24.689 -11.805   3.848  0.00  0.00    +0.009 C 
ATOM      8  C   LIG    1       23.475 -13.674   3.071  0.00  0.00    +0.004 C 
ATOM      9  C   LIG    1       24.131 -12.976   1.878  0.00  0.00    +0.005 C 
ATOM     10  C   LIG    1       25.321 -12.232   2.518  0.00  0.00    +0.010 C 
ENDROOT
BRANCH   1  12
ATOM     11  C   LIG    1       28.871 -12.945   3.686  0.00  0.00    +0.101 C 
ATOM     12  N   LIG    1       27.592 -12.302   3.410  0.00  0.00    -0.313 NA
ATOM     13  H   LIG    1       27.747 -11.583   2.703  0.00  0.00    +0.122 HD
ENDBRANCH   1  12
TORSDOF 1
ENDMDL
MODEL 9
REMARK VINA RESULT:      -1.9      1.444      3.518
REMARK  Name = *****
REMARK                            x       y       z     vdW  Elec       q    Type
REMARK                         _______ _______ _______ _____ _____    ______ ____
ROOT
ATOM      1  C   LIG    1       25.216 -13.672   3.782  0.00  0.00    +0.024 C 
ATOM      2  C   LIG    1       24.046 -14.487   4.366  0.00  0.00    +0.028 C 
ATOM      3  C   LIG    1       26.487 -14.518   3.300  0.00  0.00    -0.014 C 
ATOM      4  C   LIG    1       26.892 -14.300   1.816  0.00  0.00    +0.013 C 
ATOM      5  C   LIG    1       26.341 -16.042   3.467  0.00  0.00    +0.013 C 
ATOM      6  C   LIG    1       27.640 -13.919   4.186  0.00  0.00    -0.003 C 
ATOM      7  C   LIG    1       27.249 -12.439   4.289  0.00  0.00    +0.009 C 
ATOM      8  C   LIG    1       27.521 -14.340   5.661  0.00  0.00    +0.004 C 
ATOM      9  C   LIG    1       26.309 -13.545   6.148  0.00  0.00    +0.005 C 
ATOM     10  C   LIG    1       25.877 -12.760   4.892  0.00  0.00    +0.010 C 
ENDROOT
BRANCH   1  12
ATOM     11  C   LIG    1       23.828 -11.675   3.197  0.00  0.00    +0.101 C 
ATOM     12  N   LIG    1       24.723 -12.731   2.741  0.00  0.00    -0.313 NA
ATOM     13  H   LIG    1       25.515 -12.292   2.271  0.00  0.00    +0.122 HD
ENDBRANCH   1  12
TORSDOF 1
ENDMDL
