MODEL 1
REMARK VINA RESULT:      -3.0      0.000      0.000
REMARK  Name = *****
REMARK                            x       y       z     vdW  Elec       q    Type
REMARK                         _______ _______ _______ _____ _____    ______ ____
ROOT
ATOM      1  C   LIG    1       21.740 -18.258   3.931  0.00  0.00    +0.158 C 
ENDROOT
BRANCH   1   2
ATOM      2  C   LIG    1       21.987 -17.119   4.887  0.00  0.00    +0.164 C 
ATOM      3  O   LIG    1       21.650 -17.181   6.057  0.00  0.00    -0.292 OA
BRANCH   2   5
ATOM      4  C   LIG    1       24.015 -15.900   4.231  0.00  0.00    +0.011 C 
ATOM      5  C   LIG    1       22.674 -15.934   4.318  0.00  0.00    +0.047 C 
BRANCH   4  10
ATOM      6  C   LIG    1       26.890 -13.650   3.140  0.00  0.00    +0.162 A 
ATOM      7  C   LIG    1       26.168 -12.581   2.600  0.00  0.00    +0.159 A 
ATOM      8  C   LIG    1       24.774 -12.604   2.588  0.00  0.00    +0.050 A 
ATOM      9  C   LIG    1       24.083 -13.698   3.116  0.00  0.00    +0.012 A 
ATOM     10  C   LIG    1       24.778 -14.789   3.649  0.00  0.00    -0.021 A 
ATOM     11  C   LIG    1       26.182 -14.745   3.662  0.00  0.00    +0.057 A 
BRANCH   6  13
ATOM     12  C   LIG    1       28.931 -12.793   4.017  0.00  0.00    +0.277 C 
ATOM     13  O   LIG    1       28.253 -13.773   3.241  0.00  0.00    -0.491 OA
ENDBRANCH   6  13
BRANCH   7  14
ATOM     14  O   LIG    1       26.793 -11.481   2.082  0.00  0.00    -0.503 OA
ATOM     15  H   LIG    1       26.550 -11.374   1.150  0.00  0.00    +0.292 HD
ENDBRANCH   7  14
ENDBRANCH   4  10
ENDBRANCH   2   5
ENDBRANCH   1   2
BRANCH   1  16
ATOM     16  C   LIG    1       21.999 -19.601   4.584  0.00  0.00    +0.164 C 
ATOM     17  O   LIG    1       21.168 -20.506   4.537  0.00  0.00    -0.292 OA
BRANCH  16  18
ATOM     18  C   LIG    1       23.315 -19.858   5.236  0.00  0.00    +0.047 C 
ATOM     19  C   LIG    1       24.458 -19.993   4.563  0.00  0.00    +0.011 C 
BRANCH  19  20
ATOM     20  C   LIG    1       25.766 -20.262   5.173  0.00  0.00    -0.021 A 
ATOM     21  C   LIG    1       26.884 -19.463   4.915  0.00  0.00    +0.057 A 
ATOM     22  C   LIG    1       28.111 -19.704   5.544  0.00  0.00    +0.162 A 
ATOM     23  C   LIG    1       28.212 -20.768   6.445  0.00  0.00    +0.159 A 
ATOM     24  C   LIG    1       27.102 -21.571   6.716  0.00  0.00    +0.050 A 
ATOM     25  C   LIG    1       25.882 -21.312   6.091  0.00  0.00    +0.012 A 
BRANCH  22  26
ATOM     26  O   LIG    1       29.105 -18.862   5.128  0.00  0.00    -0.491 OA
ATOM     27  C   LIG    1       28.726 -17.530   4.817  0.00  0.00    +0.277 C 
ENDBRANCH  22  26
BRANCH  23  28
ATOM     28  O   LIG    1       29.394 -21.066   7.062  0.00  0.00    -0.503 OA
ATOM     29  H   LIG    1       30.130 -20.778   6.498  0.00  0.00    +0.292 HD
ENDBRANCH  23  28
ENDBRANCH  19  20
ENDBRANCH  16  18
ENDBRANCH   1  16
TORSDOF 10
ENDMDL
MODEL 2
REMARK VINA RESULT:      -1.8      1.567      6.385
REMARK  Name = *****
REMARK                            x       y       z     vdW  Elec       q    Type
REMARK                         _______ _______ _______ _____ _____    ______ ____
ROOT
ATOM      1  C   LIG    1       24.565 -14.024   3.032  0.00  0.00    +0.158 C 
ENDROOT
BRANCH   1   2
ATOM      2  C   LIG    1       26.064 -13.997   3.186  0.00  0.00    +0.164 C 
ATOM      3  O   LIG    1       26.747 -13.134   2.661  0.00  0.00    -0.292 OA
BRANCH   2   5
ATOM      4  C   LIG    1       26.883 -16.290   3.507  0.00  0.00    +0.011 C 
ATOM      5  C   LIG    1       26.648 -15.073   4.025  0.00  0.00    +0.047 C 
BRANCH   4  10
ATOM      6  C   LIG    1       27.399 -19.634   5.257  0.00  0.00    +0.162 A 
ATOM      7  C   LIG    1       28.691 -19.447   5.759  0.00  0.00    +0.159 A 
ATOM      8  C   LIG    1       29.377 -18.257   5.518  0.00  0.00    +0.050 A 
ATOM      9  C   LIG    1       28.778 -17.238   4.774  0.00  0.00    +0.012 A 
ATOM     10  C   LIG    1       27.492 -17.401   4.248  0.00  0.00    -0.021 A 
ATOM     11  C   LIG    1       26.812 -18.602   4.508  0.00  0.00    +0.057 A 
BRANCH   6  13
ATOM     12  C   LIG    1       26.807 -21.527   6.576  0.00  0.00    +0.277 C 
ATOM     13  O   LIG    1       26.591 -20.731   5.418  0.00  0.00    -0.491 OA
ENDBRANCH   6  13
BRANCH   7  14
ATOM     14  O   LIG    1       29.319 -20.407   6.503  0.00  0.00    -0.503 OA
ATOM     15  H   LIG    1       29.073 -21.287   6.179  0.00  0.00    +0.292 HD
ENDBRANCH   7  14
ENDBRANCH   4  10
ENDBRANCH   2   5
ENDBRANCH   1   2
BRANCH   1  16
ATOM     16  C   LIG    1       23.872 -14.250   4.360  0.00  0.00    +0.164 C 
ATOM     17  O   LIG    1       23.732 -13.338   5.173  0.00  0.00    -0.292 OA
BRANCH  16  18
ATOM     18  C   LIG    1       23.280 -15.586   4.661  0.00  0.00    +0.047 C 
ATOM     19  C   LIG    1       23.237 -16.587   3.783  0.00  0.00    +0.011 C 
BRANCH  19  20
ATOM     20  C   LIG    1       22.648 -17.907   4.042  0.00  0.00    -0.021 A 
ATOM     21  C   LIG    1       23.355 -18.919   4.698  0.00  0.00    +0.057 A 
ATOM     22  C   LIG    1       22.761 -20.155   4.982  0.00  0.00    +0.162 A 
ATOM     23  C   LIG    1       21.435 -20.373   4.596  0.00  0.00    +0.159 A 
ATOM     24  C   LIG    1       20.716 -19.369   3.944  0.00  0.00    +0.050 A 
ATOM     25  C   LIG    1       21.316 -18.138   3.679  0.00  0.00    +0.012 A 
BRANCH  22  26
ATOM     26  O   LIG    1       23.618 -21.042   5.573  0.00  0.00    -0.491 OA
ATOM     27  C   LIG    1       23.360 -21.373   6.929  0.00  0.00    +0.277 C 
ENDBRANCH  22  26
BRANCH  23  28
ATOM     28  O   LIG    1       20.819 -21.571   4.820  0.00  0.00    -0.503 OA
ATOM     29  H   LIG    1       21.182 -22.236   4.212  0.00  0.00    +0.292 HD
ENDBRANCH  23  28
ENDBRANCH  19  20
ENDBRANCH  16  18
ENDBRANCH   1  16
TORSDOF 10
ENDMDL
MODEL 3
REMARK VINA RESULT:      -1.5      1.619      5.946
REMARK  Name = *****
REMARK                            x       y       z     vdW  Elec       q    Type
REMARK                         _______ _______ _______ _____ _____    ______ ____
ROOT
ATOM      1  C   LIG    1       25.125 -13.911   2.860  0.00  0.00    +0.158 C 
ENDROOT
BRANCH   1   2
ATOM      2  C   LIG    1       24.462 -14.519   4.070  0.00  0.00    +0.164 C 
ATOM      3  O   LIG    1       24.318 -13.891   5.104  0.00  0.00    -0.292 OA
BRANCH   2   5
ATOM      4  C   LIG    1       22.955 -16.371   4.644  0.00  0.00    +0.011 C 
ATOM      5  C   LIG    1       23.987 -15.917   3.913  0.00  0.00    +0.047 C 
BRANCH   4  10
ATOM      6  C   LIG    1       22.596 -20.164   4.635  0.00  0.00    +0.162 A 
ATOM      7  C   LIG    1       21.274 -20.281   4.195  0.00  0.00    +0.159 A 
ATOM      8  C   LIG    1       20.519 -19.141   3.918  0.00  0.00    +0.050 A 
ATOM      9  C   LIG    1       21.077 -17.871   4.077  0.00  0.00    +0.012 A 
ATOM     10  C   LIG    1       22.393 -17.723   4.530  0.00  0.00    -0.021 A 
ATOM     11  C   LIG    1       23.142 -18.881   4.795  0.00  0.00    +0.057 A 
BRANCH   6  13
ATOM     12  C   LIG    1       24.377 -21.570   3.909  0.00  0.00    +0.277 C 
ATOM     13  O   LIG    1       23.471 -21.179   4.933  0.00  0.00    -0.491 OA
ENDBRANCH   6  13
BRANCH   7  14
ATOM     14  O   LIG    1       20.682 -21.499   4.011  0.00  0.00    -0.503 OA
ATOM     15  H   LIG    1       21.343 -22.202   4.102  0.00  0.00    +0.292 HD
ENDBRANCH   7  14
ENDBRANCH   4  10
ENDBRANCH   2   5
ENDBRANCH   1   2
BRANCH   1  16
ATOM     16  C   LIG    1       26.566 -14.360   2.729  0.00  0.00    +0.164 C 
ATOM     17  O   LIG    1       27.312 -13.877   1.880  0.00  0.00    -0.292 OA
BRANCH  16  18
ATOM     18  C   LIG    1       27.115 -15.355   3.695  0.00  0.00    +0.047 C 
ATOM     19  C   LIG    1       27.117 -16.670   3.478  0.00  0.00    +0.011 C 
BRANCH  19  20
ATOM     20  C   LIG    1       27.634 -17.676   4.415  0.00  0.00    -0.021 A 
ATOM     21  C   LIG    1       26.885 -18.796   4.789  0.00  0.00    +0.057 A 
ATOM     22  C   LIG    1       27.413 -19.771   5.644  0.00  0.00    +0.162 A 
ATOM     23  C   LIG    1       28.714 -19.612   6.130  0.00  0.00    +0.159 A 
ATOM     24  C   LIG    1       29.474 -18.500   5.761  0.00  0.00    +0.050 A 
ATOM     25  C   LIG    1       28.940 -17.543   4.897  0.00  0.00    +0.012 A 
BRANCH  22  26
ATOM     26  O   LIG    1       26.521 -20.762   5.948  0.00  0.00    -0.491 OA
ATOM     27  C   LIG    1       25.669 -20.535   7.060  0.00  0.00    +0.277 C 
ENDBRANCH  22  26
BRANCH  23  28
ATOM     28  O   LIG    1       29.265 -20.517   6.992  0.00  0.00    -0.503 OA
ATOM     29  H   LIG    1       28.600 -20.777   7.649  0.00  0.00    +0.292 HD
ENDBRANCH  23  28
ENDBRANCH  19  20
ENDBRANCH  16  18
ENDBRANCH   1  16
TORSDOF 10
ENDMDL
MODEL 4
REMARK VINA RESULT:      -0.7      1.309      6.534
REMARK  Name = *****
REMARK                            x       y       z     vdW  Elec       q    Type
REMARK                         _______ _______ _______ _____ _____    ______ ____
ROOT
ATOM      1  C   LIG    1       21.151 -18.947   4.880  0.00  0.00    +0.158 C 
ENDROOT
BRANCH   1   2
ATOM      2  C   LIG    1       21.869 -20.160   4.345  0.00  0.00    +0.164 C 
ATOM      3  O   LIG    1       21.269 -21.071   3.801  0.00  0.00    -0.292 OA
BRANCH   2   5
ATOM      4  C   LIG    1       23.894 -20.408   5.711  0.00  0.00    +0.011 C 
ATOM      5  C   LIG    1       23.344 -20.164   4.511  0.00  0.00    +0.047 C 
BRANCH   4  10
ATOM      6  C   LIG    1       27.640 -19.735   5.539  0.00  0.00    +0.162 A 
ATOM      7  C   LIG    1       28.103 -20.717   6.421  0.00  0.00    +0.159 A 
ATOM      8  C   LIG    1       27.205 -21.571   7.061  0.00  0.00    +0.050 A 
ATOM      9  C   LIG    1       25.833 -21.453   6.828  0.00  0.00    +0.012 A 
ATOM     10  C   LIG    1       25.340 -20.471   5.962  0.00  0.00    -0.021 A 
ATOM     11  C   LIG    1       26.258 -19.626   5.318  0.00  0.00    +0.057 A 
BRANCH   6  13
ATOM     12  C   LIG    1       29.462 -18.200   5.508  0.00  0.00    +0.277 C 
ATOM     13  O   LIG    1       28.389 -18.835   4.823  0.00  0.00    -0.491 OA
ENDBRANCH   6  13
BRANCH   7  14
ATOM     14  O   LIG    1       29.436 -20.883   6.677  0.00  0.00    -0.503 OA
ATOM     15  H   LIG    1       29.780 -21.626   6.157  0.00  0.00    +0.292 HD
ENDBRANCH   7  14
ENDBRANCH   4  10
ENDBRANCH   2   5
ENDBRANCH   1   2
BRANCH   1  16
ATOM     16  C   LIG    1       20.861 -17.942   3.784  0.00  0.00    +0.164 C 
ATOM     17  O   LIG    1       19.789 -17.941   3.183  0.00  0.00    -0.292 OA
BRANCH  16  18
ATOM     18  C   LIG    1       21.867 -16.884   3.474  0.00  0.00    +0.047 C 
ATOM     19  C   LIG    1       23.062 -16.809   4.059  0.00  0.00    +0.011 C 
BRANCH  19  20
ATOM     20  C   LIG    1       24.067 -15.773   3.789  0.00  0.00    -0.021 A 
ATOM     21  C   LIG    1       23.762 -14.410   3.849  0.00  0.00    +0.057 A 
ATOM     22  C   LIG    1       24.744 -13.435   3.638  0.00  0.00    +0.162 A 
ATOM     23  C   LIG    1       26.052 -13.841   3.360  0.00  0.00    +0.159 A 
ATOM     24  C   LIG    1       26.371 -15.199   3.301  0.00  0.00    +0.050 A 
ATOM     25  C   LIG    1       25.385 -16.161   3.526  0.00  0.00    +0.012 A 
BRANCH  22  26
ATOM     26  O   LIG    1       24.254 -12.159   3.676  0.00  0.00    -0.491 OA
ATOM     27  C   LIG    1       23.820 -11.603   2.444  0.00  0.00    +0.277 C 
ENDBRANCH  22  26
BRANCH  23  28
ATOM     28  O   LIG    1       27.041 -12.931   3.114  0.00  0.00    -0.503 OA
ATOM     29  H   LIG    1       27.661 -13.302   2.466  0.00  0.00    +0.292 HD
ENDBRANCH  23  28
ENDBRANCH  19  20
ENDBRANCH  16  18
ENDBRANCH   1  16
TORSDOF 10
ENDMDL
