MODEL 1
REMARK VINA RESULT:      -2.8      0.000      0.000
REMARK  Name = *****
REMARK                            x       y       z     vdW  Elec       q    Type
REMARK                         _______ _______ _______ _____ _____    ______ ____
ROOT
ATOM      1  N   LIG    1       26.828 -15.356   3.119  0.00  0.00    -0.155 NA
ATOM      2  C   LIG    1       25.797 -16.044   3.439  0.00  0.00    +0.184 C 
ATOM      3  N   LIG    1       24.491 -15.843   3.856  0.00  0.00    -0.244 N 
ATOM      4  C   LIG    1       23.860 -14.563   4.118  0.00  0.00    +0.175 C 
ATOM      5  N   LIG    1       23.711 -16.953   4.114  0.00  0.00    -0.141 NA
ATOM      6  C   LIG    1       24.412 -18.025   3.865  0.00  0.00    +0.254 C 
ATOM      7  S   LIG    1       26.053 -17.798   3.305  0.00  0.00    -0.011 S 
ENDROOT
BRANCH   1   9
ATOM      8  C   LIG    1       27.383 -13.493   4.509  0.00  0.00    +0.111 C 
ATOM      9  C   LIG    1       26.847 -13.996   3.195  0.00  0.00    +0.235 C 
ATOM     10  O   LIG    1       26.399 -13.224   2.354  0.00  0.00    -0.274 OA
ENDBRANCH   1   9
BRANCH   6  11
ATOM     11  S   LIG    1       23.680 -19.631   4.097  0.00  0.00    +0.081 S 
ATOM     12  O   LIG    1       24.052 -20.425   2.947  0.00  0.00    -0.151 OA
ATOM     13  O   LIG    1       22.305 -19.402   4.484  0.00  0.00    -0.151 OA
BRANCH  11  14
ATOM     14  N   LIG    1       24.448 -20.335   5.436  0.00  0.00    -0.202 NA
ATOM     15  H   LIG    1       24.715 -21.301   5.243  0.00  0.00    +0.144 HD
ATOM     16  H   LIG    1       25.218 -19.757   5.773  0.00  0.00    +0.144 HD
ENDBRANCH  11  14
ENDBRANCH   6  11
TORSDOF 3
ENDMDL
MODEL 2
REMARK VINA RESULT:      -2.7      4.534      6.230
REMARK  Name = *****
REMARK                            x       y       z     vdW  Elec       q    Type
REMARK                         _______ _______ _______ _____ _____    ______ ____
ROOT
ATOM      1  N   LIG    1       23.390 -20.701   6.065  0.00  0.00    -0.155 NA
ATOM      2  C   LIG    1       24.581 -20.424   5.685  0.00  0.00    +0.184 C 
ATOM      3  N   LIG    1       25.235 -19.914   4.575  0.00  0.00    -0.244 N 
ATOM      4  C   LIG    1       24.622 -19.531   3.317  0.00  0.00    +0.175 C 
ATOM      5  N   LIG    1       26.611 -19.809   4.620  0.00  0.00    -0.141 NA
ATOM      6  C   LIG    1       27.024 -20.213   5.790  0.00  0.00    +0.254 C 
ATOM      7  S   LIG    1       25.810 -20.750   6.927  0.00  0.00    -0.011 S 
ENDROOT
BRANCH   1   9
ATOM      8  C   LIG    1       22.013 -19.121   4.915  0.00  0.00    +0.111 C 
ATOM      9  C   LIG    1       22.313 -20.560   5.242  0.00  0.00    +0.235 C 
ATOM     10  O   LIG    1       21.580 -21.465   4.860  0.00  0.00    -0.274 OA
ENDBRANCH   1   9
BRANCH   6  11
ATOM     11  S   LIG    1       28.764 -20.193   6.166  0.00  0.00    +0.081 S 
ATOM     12  O   LIG    1       29.456 -20.031   4.908  0.00  0.00    -0.151 OA
ATOM     13  O   LIG    1       29.003 -21.306   7.059  0.00  0.00    -0.151 OA
BRANCH  11  14
ATOM     14  N   LIG    1       29.059 -18.782   7.062  0.00  0.00    -0.202 NA
ATOM     15  H   LIG    1       29.435 -18.040   6.470  0.00  0.00    +0.144 HD
ATOM     16  H   LIG    1       28.238 -18.500   7.599  0.00  0.00    +0.144 HD
ENDBRANCH  11  14
ENDBRANCH   6  11
TORSDOF 3
ENDMDL
MODEL 3
REMARK VINA RESULT:      -2.6      2.410      5.769
REMARK  Name = *****
REMARK                            x       y       z     vdW  Elec       q    Type
REMARK                         _______ _______ _______ _____ _____    ______ ____
ROOT
ATOM      1  N   LIG    1       22.358 -17.265   4.463  0.00  0.00    -0.155 NA
ATOM      2  C   LIG    1       23.528 -16.924   4.071  0.00  0.00    +0.184 C 
ATOM      3  N   LIG    1       24.689 -17.517   3.601  0.00  0.00    -0.244 N 
ATOM      4  C   LIG    1       24.924 -18.939   3.441  0.00  0.00    +0.175 C 
ATOM      5  N   LIG    1       25.765 -16.701   3.308  0.00  0.00    -0.141 NA
ATOM      6  C   LIG    1       25.421 -15.461   3.525  0.00  0.00    +0.254 C 
ATOM      7  S   LIG    1       23.795 -15.167   4.095  0.00  0.00    -0.011 S 
ENDROOT
BRANCH   1   9
ATOM      8  C   LIG    1       20.869 -18.921   3.595  0.00  0.00    +0.111 C 
ATOM      9  C   LIG    1       21.973 -18.569   4.556  0.00  0.00    +0.235 C 
ATOM     10  O   LIG    1       22.382 -19.379   5.380  0.00  0.00    -0.274 OA
ENDBRANCH   1   9
BRANCH   6  11
ATOM     11  S   LIG    1       26.597 -14.157   3.233  0.00  0.00    +0.081 S 
ATOM     12  O   LIG    1       26.100 -12.989   3.925  0.00  0.00    -0.151 OA
ATOM     13  O   LIG    1       26.880 -14.171   1.814  0.00  0.00    -0.151 OA
BRANCH  11  14
ATOM     14  N   LIG    1       28.034 -14.603   4.017  0.00  0.00    -0.202 NA
ATOM     15  H   LIG    1       28.460 -13.806   4.491  0.00  0.00    +0.144 HD
ATOM     16  H   LIG    1       27.896 -15.414   4.621  0.00  0.00    +0.144 HD
ENDBRANCH  11  14
ENDBRANCH   6  11
TORSDOF 3
ENDMDL
MODEL 4
REMARK VINA RESULT:      -2.6      2.073      5.478
REMARK  Name = *****
REMARK                            x       y       z     vdW  Elec       q    Type
REMARK                         _______ _______ _______ _____ _____    ______ ____
ROOT
ATOM      1  N   LIG    1       25.271 -19.676   3.624  0.00  0.00    -0.155 NA
ATOM      2  C   LIG    1       24.883 -18.459   3.717  0.00  0.00    +0.184 C 
ATOM      3  N   LIG    1       23.742 -17.747   4.048  0.00  0.00    -0.244 N 
ATOM      4  C   LIG    1       22.451 -18.306   4.403  0.00  0.00    +0.175 C 
ATOM      5  N   LIG    1       23.792 -16.368   3.982  0.00  0.00    -0.141 NA
ATOM      6  C   LIG    1       24.996 -16.010   3.625  0.00  0.00    +0.254 C 
ATOM      7  S   LIG    1       26.160 -17.282   3.339  0.00  0.00    -0.011 S 
ENDROOT
BRANCH   1   9
ATOM      8  C   LIG    1       24.509 -21.268   5.235  0.00  0.00    +0.111 C 
ATOM      9  C   LIG    1       24.429 -20.726   3.833  0.00  0.00    +0.235 C 
ATOM     10  O   LIG    1       23.734 -21.268   2.981  0.00  0.00    -0.274 OA
ENDBRANCH   1   9
BRANCH   6  11
ATOM     11  S   LIG    1       25.386 -14.282   3.456  0.00  0.00    +0.081 S 
ATOM     12  O   LIG    1       26.160 -13.916   4.621  0.00  0.00    -0.151 OA
ATOM     13  O   LIG    1       24.155 -13.617   3.087  0.00  0.00    -0.151 OA
BRANCH  11  14
ATOM     14  N   LIG    1       26.428 -14.140   2.124  0.00  0.00    -0.202 NA
ATOM     15  H   LIG    1       26.031 -14.582   1.294  0.00  0.00    +0.144 HD
ATOM     16  H   LIG    1       26.716 -13.172   1.973  0.00  0.00    +0.144 HD
ENDBRANCH  11  14
ENDBRANCH   6  11
TORSDOF 3
ENDMDL
MODEL 5
REMARK VINA RESULT:      -2.5      2.271      5.708
REMARK  Name = *****
REMARK                            x       y       z     vdW  Elec       q    Type
REMARK                         _______ _______ _______ _____ _____    ______ ____
ROOT
ATOM      1  N   LIG    1       22.593 -18.052   4.471  0.00  0.00    -0.155 NA
ATOM      2  C   LIG    1       23.718 -17.582   4.079  0.00  0.00    +0.184 C 
ATOM      3  N   LIG    1       24.937 -18.041   3.608  0.00  0.00    -0.244 N 
ATOM      4  C   LIG    1       25.329 -19.428   3.446  0.00  0.00    +0.175 C 
ATOM      5  N   LIG    1       25.915 -17.111   3.316  0.00  0.00    -0.141 NA
ATOM      6  C   LIG    1       25.435 -15.916   3.534  0.00  0.00    +0.254 C 
ATOM      7  S   LIG    1       23.787 -15.806   4.105  0.00  0.00    -0.011 S 
ENDROOT
BRANCH   1   9
ATOM      8  C   LIG    1       22.805 -19.974   5.877  0.00  0.00    +0.111 C 
ATOM      9  C   LIG    1       22.356 -19.390   4.563  0.00  0.00    +0.235 C 
ATOM     10  O   LIG    1       21.916 -20.103   3.668  0.00  0.00    -0.274 OA
ENDBRANCH   1   9
BRANCH   6  11
ATOM     11  S   LIG    1       26.458 -14.489   3.242  0.00  0.00    +0.081 S 
ATOM     12  O   LIG    1       25.885 -13.406   4.010  0.00  0.00    -0.151 OA
ATOM     13  O   LIG    1       26.664 -14.418   1.812  0.00  0.00    -0.151 OA
BRANCH  11  14
ATOM     14  N   LIG    1       27.973 -14.818   3.933  0.00  0.00    -0.202 NA
ATOM     15  H   LIG    1       27.902 -15.534   4.657  0.00  0.00    +0.144 HD
ATOM     16  H   LIG    1       28.673 -15.025   3.220  0.00  0.00    +0.144 HD
ENDBRANCH  11  14
ENDBRANCH   6  11
TORSDOF 3
ENDMDL
MODEL 6
REMARK VINA RESULT:      -2.5      2.337      5.755
REMARK  Name = *****
REMARK                            x       y       z     vdW  Elec       q    Type
REMARK                         _______ _______ _______ _____ _____    ______ ____
ROOT
ATOM      1  N   LIG    1       22.458 -18.107   4.709  0.00  0.00    -0.155 NA
ATOM      2  C   LIG    1       23.495 -17.532   4.224  0.00  0.00    +0.184 C 
ATOM      3  N   LIG    1       24.711 -17.873   3.655  0.00  0.00    -0.244 N 
ATOM      4  C   LIG    1       25.226 -19.216   3.464  0.00  0.00    +0.175 C 
ATOM      5  N   LIG    1       25.563 -16.853   3.280  0.00  0.00    -0.141 NA
ATOM      6  C   LIG    1       24.987 -15.710   3.535  0.00  0.00    +0.254 C 
ATOM      7  S   LIG    1       23.387 -15.758   4.239  0.00  0.00    -0.011 S 
ENDROOT
BRANCH   1   9
ATOM      8  C   LIG    1       23.002 -19.986   6.082  0.00  0.00    +0.111 C 
ATOM      9  C   LIG    1       22.365 -19.462   4.823  0.00  0.00    +0.235 C 
ATOM     10  O   LIG    1       21.907 -20.222   3.978  0.00  0.00    -0.274 OA
ENDBRANCH   1   9
BRANCH   6  11
ATOM     11  S   LIG    1       25.834 -14.191   3.156  0.00  0.00    +0.081 S 
ATOM     12  O   LIG    1       26.640 -14.449   1.984  0.00  0.00    -0.151 OA
ATOM     13  O   LIG    1       26.388 -13.709   4.402  0.00  0.00    -0.151 OA
BRANCH  11  14
ATOM     14  N   LIG    1       24.650 -13.069   2.687  0.00  0.00    -0.202 NA
ATOM     15  H   LIG    1       24.316 -13.257   1.741  0.00  0.00    +0.144 HD
ATOM     16  H   LIG    1       23.903 -13.001   3.379  0.00  0.00    +0.144 HD
ENDBRANCH  11  14
ENDBRANCH   6  11
TORSDOF 3
ENDMDL
MODEL 7
REMARK VINA RESULT:      -2.4      1.745      2.290
REMARK  Name = *****
REMARK                            x       y       z     vdW  Elec       q    Type
REMARK                         _______ _______ _______ _____ _____    ______ ____
ROOT
ATOM      1  N   LIG    1       23.654 -14.346   3.910  0.00  0.00    -0.155 NA
ATOM      2  C   LIG    1       24.334 -15.422   3.761  0.00  0.00    +0.184 C 
ATOM      3  N   LIG    1       25.608 -15.811   3.382  0.00  0.00    -0.244 N 
ATOM      4  C   LIG    1       26.679 -14.938   2.941  0.00  0.00    +0.175 C 
ATOM      5  N   LIG    1       25.894 -17.162   3.352  0.00  0.00    -0.141 NA
ATOM      6  C   LIG    1       24.838 -17.823   3.742  0.00  0.00    +0.254 C 
ATOM      7  S   LIG    1       23.423 -16.892   4.174  0.00  0.00    -0.011 S 
ENDROOT
BRANCH   1   9
ATOM      8  C   LIG    1       24.481 -12.300   4.829  0.00  0.00    +0.111 C 
ATOM      9  C   LIG    1       24.161 -13.119   3.606  0.00  0.00    +0.235 C 
ATOM     10  O   LIG    1       24.273 -12.649   2.479  0.00  0.00    -0.274 OA
ENDBRANCH   1   9
BRANCH   6  11
ATOM     11  S   LIG    1       24.890 -19.601   3.819  0.00  0.00    +0.081 S 
ATOM     12  O   LIG    1       24.766 -20.077   2.460  0.00  0.00    -0.151 OA
ATOM     13  O   LIG    1       23.984 -19.992   4.877  0.00  0.00    -0.151 OA
BRANCH  11  14
ATOM     14  N   LIG    1       26.449 -20.027   4.337  0.00  0.00    -0.202 NA
ATOM     15  H   LIG    1       27.036 -20.308   3.550  0.00  0.00    +0.144 HD
ATOM     16  H   LIG    1       26.865 -19.297   4.917  0.00  0.00    +0.144 HD
ENDBRANCH  11  14
ENDBRANCH   6  11
TORSDOF 3
ENDMDL
MODEL 8
REMARK VINA RESULT:      -2.2      2.052      5.528
REMARK  Name = *****
REMARK                            x       y       z     vdW  Elec       q    Type
REMARK                         _______ _______ _______ _____ _____    ______ ____
ROOT
ATOM      1  N   LIG    1       23.850 -18.583   4.054  0.00  0.00    -0.155 NA
ATOM      2  C   LIG    1       24.082 -17.324   4.003  0.00  0.00    +0.184 C 
ATOM      3  N   LIG    1       23.468 -16.131   4.347  0.00  0.00    -0.244 N 
ATOM      4  C   LIG    1       22.146 -15.980   4.924  0.00  0.00    +0.175 C 
ATOM      5  N   LIG    1       24.131 -14.953   4.066  0.00  0.00    -0.141 NA
ATOM      6  C   LIG    1       25.284 -15.239   3.527  0.00  0.00    +0.254 C 
ATOM      7  S   LIG    1       25.671 -16.930   3.310  0.00  0.00    -0.011 S 
ENDROOT
BRANCH   1   9
ATOM      8  C   LIG    1       22.848 -20.013   5.687  0.00  0.00    +0.111 C 
ATOM      9  C   LIG    1       22.670 -19.086   4.513  0.00  0.00    +0.235 C 
ATOM     10  O   LIG    1       21.569 -18.911   4.003  0.00  0.00    -0.274 OA
ENDBRANCH   1   9
BRANCH   6  11
ATOM     11  S   LIG    1       26.386 -13.924   3.053  0.00  0.00    +0.081 S 
ATOM     12  O   LIG    1       27.010 -14.333   1.815  0.00  0.00    -0.151 OA
ATOM     13  O   LIG    1       27.140 -13.574   4.237  0.00  0.00    -0.151 OA
BRANCH  11  14
ATOM     14  N   LIG    1       25.419 -12.579   2.682  0.00  0.00    -0.202 NA
ATOM     15  H   LIG    1       24.495 -12.659   3.109  0.00  0.00    +0.144 HD
ATOM     16  H   LIG    1       25.895 -11.703   2.898  0.00  0.00    +0.144 HD
ENDBRANCH  11  14
ENDBRANCH   6  11
TORSDOF 3
ENDMDL
MODEL 9
REMARK VINA RESULT:      -1.9      1.855      2.300
REMARK  Name = *****
REMARK                            x       y       z     vdW  Elec       q    Type
REMARK                         _______ _______ _______ _____ _____    ______ ____
ROOT
ATOM      1  N   LIG    1       23.309 -15.263   4.139  0.00  0.00    -0.155 NA
ATOM      2  C   LIG    1       23.841 -16.420   3.999  0.00  0.00    +0.184 C 
ATOM      3  N   LIG    1       25.052 -16.977   3.621  0.00  0.00    -0.244 N 
ATOM      4  C   LIG    1       26.228 -16.255   3.172  0.00  0.00    +0.175 C 
ATOM      5  N   LIG    1       25.158 -18.354   3.602  0.00  0.00    -0.141 NA
ATOM      6  C   LIG    1       24.026 -18.867   3.999  0.00  0.00    +0.254 C 
ATOM      7  S   LIG    1       22.746 -17.754   4.424  0.00  0.00    -0.011 S 
ENDROOT
BRANCH   1   9
ATOM      8  C   LIG    1       24.840 -13.615   4.949  0.00  0.00    +0.111 C 
ATOM      9  C   LIG    1       23.972 -14.115   3.825  0.00  0.00    +0.235 C 
ATOM     10  O   LIG    1       23.837 -13.471   2.791  0.00  0.00    -0.274 OA
ENDBRANCH   1   9
BRANCH   6  11
ATOM     11  S   LIG    1       23.844 -20.635   4.090  0.00  0.00    +0.081 S 
ATOM     12  O   LIG    1       23.942 -21.131   2.736  0.00  0.00    -0.151 OA
ATOM     13  O   LIG    1       22.700 -20.886   4.941  0.00  0.00    -0.151 OA
BRANCH  11  14
ATOM     14  N   LIG    1       25.201 -21.229   4.919  0.00  0.00    -0.202 NA
ATOM     15  H   LIG    1       26.058 -21.061   4.391  0.00  0.00    +0.144 HD
ATOM     16  H   LIG    1       25.236 -20.883   5.878  0.00  0.00    +0.144 HD
ENDBRANCH  11  14
ENDBRANCH   6  11
TORSDOF 3
ENDMDL
