MODEL 1
REMARK VINA RESULT:      -6.1      0.000      0.000
REMARK  Name = *****
REMARK                            x       y       z     vdW  Elec       q    Type
REMARK                         _______ _______ _______ _____ _____    ______ ____
ROOT
ATOM      1  C   LIG    1       26.413 -13.695   3.444  0.00  0.00    +0.121 A 
ATOM      2  C   LIG    1       26.688 -15.049   3.223  0.00  0.00    +0.054 A 
ATOM      3  C   LIG    1       25.716 -16.038   3.459  0.00  0.00    -0.014 A 
ATOM      4  C   LIG    1       24.439 -15.655   3.919  0.00  0.00    -0.017 A 
ATOM      5  C   LIG    1       23.460 -16.638   4.152  0.00  0.00    +0.012 A 
ATOM      6  C   LIG    1       23.729 -17.996   3.936  0.00  0.00    -0.046 A 
ATOM      7  C   LIG    1       25.000 -18.369   3.488  0.00  0.00    +0.004 A 
ATOM      8  C   LIG    1       24.172 -14.295   4.134  0.00  0.00    +0.012 A 
ATOM      9  C   LIG    1       25.981 -17.401   3.247  0.00  0.00    +0.009 A 
ATOM     10  C   LIG    1       25.151 -13.324   3.901  0.00  0.00    +0.046 A 
ENDROOT
BRANCH   1  12
ATOM     11  C   LIG    1       28.665 -13.080   3.875  0.00  0.00    +0.277 C 
ATOM     12  O   LIG    1       27.448 -12.839   3.178  0.00  0.00    -0.495 OA
ENDBRANCH   1  12
BRANCH   6  13
ATOM     13  C   LIG    1       22.657 -19.037   4.155  0.00  0.00    +0.042 C 
BRANCH  13  14
ATOM     14  C   LIG    1       22.606 -19.569   5.587  0.00  0.00    +0.079 C 
BRANCH  14  15
ATOM     15  C   LIG    1       23.331 -20.901   5.697  0.00  0.00    +0.131 C 
ATOM     16  O   LIG    1       23.867 -21.445   4.737  0.00  0.00    -0.298 OA
ATOM     17  C   LIG    1       23.355 -21.548   7.060  0.00  0.00    +0.086 C 
ENDBRANCH  14  15
ENDBRANCH  13  14
ENDBRANCH   6  13
TORSDOF 4
ENDMDL
MODEL 2
REMARK VINA RESULT:      -5.8      1.512      2.580
REMARK  Name = *****
REMARK                            x       y       z     vdW  Elec       q    Type
REMARK                         _______ _______ _______ _____ _____    ______ ____
ROOT
ATOM      1  C   LIG    1       25.053 -14.431   3.691  0.00  0.00    +0.121 A 
ATOM      2  C   LIG    1       23.860 -15.057   4.068  0.00  0.00    +0.054 A 
ATOM      3  C   LIG    1       23.738 -16.458   4.064  0.00  0.00    -0.014 A 
ATOM      4  C   LIG    1       24.844 -17.245   3.680  0.00  0.00    -0.017 A 
ATOM      5  C   LIG    1       24.733 -18.647   3.679  0.00  0.00    +0.012 A 
ATOM      6  C   LIG    1       23.540 -19.281   4.053  0.00  0.00    -0.046 A 
ATOM      7  C   LIG    1       22.445 -18.494   4.424  0.00  0.00    +0.004 A 
ATOM      8  C   LIG    1       26.037 -16.608   3.307  0.00  0.00    +0.012 A 
ATOM      9  C   LIG    1       22.545 -17.098   4.435  0.00  0.00    +0.009 A 
ATOM     10  C   LIG    1       26.140 -15.214   3.309  0.00  0.00    +0.046 A 
ENDROOT
BRANCH   1  12
ATOM     11  C   LIG    1       23.862 -12.428   3.236  0.00  0.00    +0.277 C 
ATOM     12  O   LIG    1       25.033 -13.062   3.736  0.00  0.00    -0.495 OA
ENDBRANCH   1  12
BRANCH   6  13
ATOM     13  C   LIG    1       23.447 -20.788   4.083  0.00  0.00    +0.042 C 
BRANCH  13  14
ATOM     14  C   LIG    1       24.594 -21.457   4.840  0.00  0.00    +0.079 C 
BRANCH  14  15
ATOM     15  C   LIG    1       24.566 -21.079   6.313  0.00  0.00    +0.131 C 
ATOM     16  O   LIG    1       25.541 -20.616   6.897  0.00  0.00    -0.298 OA
ATOM     17  C   LIG    1       23.269 -21.312   7.047  0.00  0.00    +0.086 C 
ENDBRANCH  14  15
ENDBRANCH  13  14
ENDBRANCH   6  13
TORSDOF 4
ENDMDL
MODEL 3
REMARK VINA RESULT:      -5.8      1.122      6.681
REMARK  Name = *****
REMARK                            x       y       z     vdW  Elec       q    Type
REMARK                         _______ _______ _______ _____ _____    ______ ____
ROOT
ATOM      1  C   LIG    1       23.082 -19.679   4.403  0.00  0.00    +0.121 A 
ATOM      2  C   LIG    1       22.574 -18.393   4.618  0.00  0.00    +0.054 A 
ATOM      3  C   LIG    1       23.317 -17.248   4.276  0.00  0.00    -0.014 A 
ATOM      4  C   LIG    1       24.595 -17.403   3.699  0.00  0.00    -0.017 A 
ATOM      5  C   LIG    1       25.342 -16.263   3.349  0.00  0.00    +0.012 A 
ATOM      6  C   LIG    1       24.841 -14.972   3.564  0.00  0.00    -0.046 A 
ATOM      7  C   LIG    1       23.577 -14.827   4.145  0.00  0.00    +0.004 A 
ATOM      8  C   LIG    1       25.094 -18.696   3.484  0.00  0.00    +0.012 A 
ATOM      9  C   LIG    1       22.821 -15.952   4.492  0.00  0.00    +0.009 A 
ATOM     10  C   LIG    1       24.346 -19.824   3.835  0.00  0.00    +0.046 A 
ENDROOT
BRANCH   1  12
ATOM     11  C   LIG    1       22.720 -21.528   5.847  0.00  0.00    +0.277 C 
ATOM     12  O   LIG    1       22.257 -20.703   4.785  0.00  0.00    -0.495 OA
ENDBRANCH   1  12
BRANCH   6  13
ATOM     13  C   LIG    1       25.638 -13.759   3.150  0.00  0.00    +0.042 C 
BRANCH  13  14
ATOM     14  C   LIG    1       27.114 -14.058   2.888  0.00  0.00    +0.079 C 
BRANCH  14  15
ATOM     15  C   LIG    1       27.992 -13.454   3.973  0.00  0.00    +0.131 C 
ATOM     16  O   LIG    1       29.118 -13.020   3.749  0.00  0.00    -0.298 OA
ATOM     17  C   LIG    1       27.417 -13.419   5.367  0.00  0.00    +0.086 C 
ENDBRANCH  14  15
ENDBRANCH  13  14
ENDBRANCH   6  13
TORSDOF 4
ENDMDL
MODEL 4
REMARK VINA RESULT:      -5.2      1.266      1.608
REMARK  Name = *****
REMARK                            x       y       z     vdW  Elec       q    Type
REMARK                         _______ _______ _______ _____ _____    ______ ____
ROOT
ATOM      1  C   LIG    1       25.162 -14.419   3.731  0.00  0.00    +0.121 A 
ATOM      2  C   LIG    1       25.774 -15.638   3.416  0.00  0.00    +0.054 A 
ATOM      3  C   LIG    1       25.098 -16.859   3.588  0.00  0.00    -0.014 A 
ATOM      4  C   LIG    1       23.776 -16.852   4.081  0.00  0.00    -0.017 A 
ATOM      5  C   LIG    1       23.091 -18.070   4.251  0.00  0.00    +0.012 A 
ATOM      6  C   LIG    1       23.699 -19.294   3.940  0.00  0.00    -0.046 A 
ATOM      7  C   LIG    1       25.013 -19.293   3.461  0.00  0.00    +0.004 A 
ATOM      8  C   LIG    1       23.171 -15.626   4.390  0.00  0.00    +0.012 A 
ATOM      9  C   LIG    1       25.703 -18.089   3.282  0.00  0.00    +0.009 A 
ATOM     10  C   LIG    1       23.858 -14.420   4.220  0.00  0.00    +0.046 A 
ENDROOT
BRANCH   1  12
ATOM     11  C   LIG    1       27.183 -13.516   2.872  0.00  0.00    +0.277 C 
ATOM     12  O   LIG    1       25.933 -13.308   3.519  0.00  0.00    -0.495 OA
ENDBRANCH   1  12
BRANCH   6  13
ATOM     13  C   LIG    1       22.939 -20.590   4.093  0.00  0.00    +0.042 C 
BRANCH  13  14
ATOM     14  C   LIG    1       23.594 -21.571   5.065  0.00  0.00    +0.079 C 
BRANCH  14  15
ATOM     15  C   LIG    1       23.941 -20.885   6.377  0.00  0.00    +0.131 C 
ATOM     16  O   LIG    1       23.106 -20.302   7.062  0.00  0.00    -0.298 OA
ATOM     17  C   LIG    1       25.386 -20.938   6.807  0.00  0.00    +0.086 C 
ENDBRANCH  14  15
ENDBRANCH  13  14
ENDBRANCH   6  13
TORSDOF 4
ENDMDL
MODEL 5
REMARK VINA RESULT:      -5.2      0.874      1.924
REMARK  Name = *****
REMARK                            x       y       z     vdW  Elec       q    Type
REMARK                         _______ _______ _______ _____ _____    ______ ____
ROOT
ATOM      1  C   LIG    1       26.114 -14.397   3.584  0.00  0.00    +0.121 A 
ATOM      2  C   LIG    1       24.793 -14.517   4.028  0.00  0.00    +0.054 A 
ATOM      3  C   LIG    1       24.159 -15.770   4.106  0.00  0.00    -0.014 A 
ATOM      4  C   LIG    1       24.875 -16.928   3.735  0.00  0.00    -0.017 A 
ATOM      5  C   LIG    1       24.251 -18.187   3.815  0.00  0.00    +0.012 A 
ATOM      6  C   LIG    1       22.927 -18.314   4.257  0.00  0.00    -0.046 A 
ATOM      7  C   LIG    1       22.221 -17.160   4.614  0.00  0.00    +0.004 A 
ATOM      8  C   LIG    1       26.200 -16.798   3.294  0.00  0.00    +0.012 A 
ATOM      9  C   LIG    1       22.832 -15.904   4.545  0.00  0.00    +0.009 A 
ATOM     10  C   LIG    1       26.813 -15.544   3.216  0.00  0.00    +0.046 A 
ENDROOT
BRANCH   1  12
ATOM     11  C   LIG    1       28.020 -12.981   3.614  0.00  0.00    +0.277 C 
ATOM     12  O   LIG    1       26.605 -13.120   3.554  0.00  0.00    -0.495 OA
ENDBRANCH   1  12
BRANCH   6  13
ATOM     13  C   LIG    1       22.282 -19.675   4.372  0.00  0.00    +0.042 C 
BRANCH  13  14
ATOM     14  C   LIG    1       22.531 -20.356   5.718  0.00  0.00    +0.079 C 
BRANCH  14  15
ATOM     15  C   LIG    1       23.916 -20.983   5.761  0.00  0.00    +0.131 C 
ATOM     16  O   LIG    1       24.407 -21.571   4.803  0.00  0.00    -0.298 OA
ATOM     17  C   LIG    1       24.673 -20.862   7.060  0.00  0.00    +0.086 C 
ENDBRANCH  14  15
ENDBRANCH  13  14
ENDBRANCH   6  13
TORSDOF 4
ENDMDL
MODEL 6
REMARK VINA RESULT:      -4.9      1.644      6.599
REMARK  Name = *****
REMARK                            x       y       z     vdW  Elec       q    Type
REMARK                         _______ _______ _______ _____ _____    ______ ____
ROOT
ATOM      1  C   LIG    1       23.139 -19.721   4.333  0.00  0.00    +0.121 A 
ATOM      2  C   LIG    1       24.407 -19.307   3.910  0.00  0.00    +0.054 A 
ATOM      3  C   LIG    1       24.721 -17.943   3.771  0.00  0.00    -0.014 A 
ATOM      4  C   LIG    1       23.738 -16.976   4.072  0.00  0.00    -0.017 A 
ATOM      5  C   LIG    1       24.046 -15.609   3.942  0.00  0.00    +0.012 A 
ATOM      6  C   LIG    1       25.313 -15.187   3.516  0.00  0.00    -0.046 A 
ATOM      7  C   LIG    1       26.278 -16.152   3.211  0.00  0.00    +0.004 A 
ATOM      8  C   LIG    1       22.472 -17.400   4.499  0.00  0.00    +0.012 A 
ATOM      9  C   LIG    1       25.987 -17.514   3.343  0.00  0.00    +0.009 A 
ATOM     10  C   LIG    1       22.174 -18.760   4.626  0.00  0.00    +0.046 A 
ENDROOT
BRANCH   1  12
ATOM     11  C   LIG    1       22.440 -21.572   5.646  0.00  0.00    +0.277 C 
ATOM     12  O   LIG    1       22.968 -21.076   4.421  0.00  0.00    -0.495 OA
ENDBRANCH   1  12
BRANCH   6  13
ATOM     13  C   LIG    1       25.640 -13.716   3.415  0.00  0.00    +0.042 C 
BRANCH  13  14
ATOM     14  C   LIG    1       25.279 -12.922   4.671  0.00  0.00    +0.079 C 
BRANCH  14  15
ATOM     15  C   LIG    1       24.138 -11.956   4.393  0.00  0.00    +0.131 C 
ATOM     16  O   LIG    1       23.465 -11.451   5.286  0.00  0.00    -0.298 OA
ATOM     17  C   LIG    1       23.852 -11.645   2.945  0.00  0.00    +0.086 C 
ENDBRANCH  14  15
ENDBRANCH  13  14
ENDBRANCH   6  13
TORSDOF 4
ENDMDL
MODEL 7
REMARK VINA RESULT:      -3.7      1.481      2.079
REMARK  Name = *****
REMARK                            x       y       z     vdW  Elec       q    Type
REMARK                         _______ _______ _______ _____ _____    ______ ____
ROOT
ATOM      1  C   LIG    1       27.218 -13.518   3.383  0.00  0.00    +0.121 A 
ATOM      2  C   LIG    1       27.896 -14.640   3.873  0.00  0.00    +0.054 A 
ATOM      3  C   LIG    1       27.297 -15.913   3.872  0.00  0.00    -0.014 A 
ATOM      4  C   LIG    1       25.990 -16.059   3.360  0.00  0.00    -0.017 A 
ATOM      5  C   LIG    1       25.386 -17.330   3.350  0.00  0.00    +0.012 A 
ATOM      6  C   LIG    1       26.058 -18.457   3.841  0.00  0.00    -0.046 A 
ATOM      7  C   LIG    1       27.350 -18.302   4.355  0.00  0.00    +0.004 A 
ATOM      8  C   LIG    1       25.320 -14.929   2.869  0.00  0.00    +0.012 A 
ATOM      9  C   LIG    1       27.964 -17.045   4.365  0.00  0.00    +0.009 A 
ATOM     10  C   LIG    1       25.927 -13.670   2.883  0.00  0.00    +0.046 A 
ENDROOT
BRANCH   1  12
ATOM     11  C   LIG    1       29.024 -12.309   4.338  0.00  0.00    +0.277 C 
ATOM     12  O   LIG    1       27.915 -12.342   3.448  0.00  0.00    -0.495 OA
ENDBRANCH   1  12
BRANCH   6  13
ATOM     13  C   LIG    1       25.411 -19.821   3.790  0.00  0.00    +0.042 C 
BRANCH  13  14
ATOM     14  C   LIG    1       23.941 -19.784   3.372  0.00  0.00    +0.079 C 
BRANCH  14  15
ATOM     15  C   LIG    1       23.034 -19.687   4.589  0.00  0.00    +0.131 C 
ATOM     16  O   LIG    1       22.992 -20.555   5.455  0.00  0.00    -0.298 OA
ATOM     17  C   LIG    1       22.159 -18.462   4.684  0.00  0.00    +0.086 C 
ENDBRANCH  14  15
ENDBRANCH  13  14
ENDBRANCH   6  13
TORSDOF 4
ENDMDL
