MODEL 1
REMARK VINA RESULT:      -9.4      0.000      0.000
REMARK  Name = *****
REMARK                            x       y       z     vdW  Elec       q    Type
REMARK                         _______ _______ _______ _____ _____    ______ ____
ROOT
ATOM      1  C   LIG    1       24.570 -21.233   5.274  0.00  0.00    +0.008 C 
ATOM      2  C   LIG    1       25.562 -22.053   6.134  0.00  0.00    -0.007 C 
ENDROOT
BRANCH   2   3
ATOM      3  C   LIG    1       26.492 -21.124   7.008  0.00  0.00    -0.007 C 
ATOM      4  C   LIG    1       25.847 -20.632   8.311  0.00  0.00    +0.008 C 
BRANCH   3   5
ATOM      5  C   LIG    1       27.894 -21.734   7.379  0.00  0.00    +0.039 C 
BRANCH   5   6
ATOM      6  C   LIG    1       29.064 -20.770   7.438  0.00  0.00    -0.043 A 
ATOM      7  C   LIG    1       30.124 -21.033   8.326  0.00  0.00    +0.052 A 
ATOM      8  C   LIG    1       31.162 -20.117   8.449  0.00  0.00    +0.159 A 
ATOM      9  C   LIG    1       31.149 -18.920   7.764  0.00  0.00    +0.158 A 
ATOM     10  C   LIG    1       30.131 -18.655   6.843  0.00  0.00    +0.049 A 
ATOM     11  C   LIG    1       29.129 -19.616   6.651  0.00  0.00    +0.007 A 
BRANCH   8  12
ATOM     12  O   LIG    1       32.220 -20.413   9.273  0.00  0.00    -0.503 OA
ATOM     13  H   LIG    1       32.923 -20.705   8.663  0.00  0.00    +0.292 HD
ENDBRANCH   8  12
BRANCH   9  14
ATOM     14  O   LIG    1       32.151 -18.018   7.994  0.00  0.00    -0.503 OA
ATOM     15  H   LIG    1       33.006 -18.484   7.951  0.00  0.00    +0.292 HD
ENDBRANCH   9  14
ENDBRANCH   5   6
ENDBRANCH   3   5
ENDBRANCH   2   3
BRANCH   2  16
ATOM     16  C   LIG    1       24.693 -23.091   6.911  0.00  0.00    +0.039 C 
BRANCH  16  17
ATOM     17  C   LIG    1       24.904 -24.547   6.594  0.00  0.00    -0.043 A 
ATOM     18  C   LIG    1       26.226 -25.010   6.500  0.00  0.00    +0.052 A 
ATOM     19  C   LIG    1       26.477 -26.275   5.997  0.00  0.00    +0.159 A 
ATOM     20  C   LIG    1       25.431 -27.118   5.639  0.00  0.00    +0.158 A 
ATOM     21  C   LIG    1       24.111 -26.706   5.791  0.00  0.00    +0.049 A 
ATOM     22  C   LIG    1       23.845 -25.416   6.273  0.00  0.00    +0.007 A 
BRANCH  19  23
ATOM     23  O   LIG    1       27.774 -26.657   5.807  0.00  0.00    -0.503 OA
ATOM     24  H   LIG    1       28.254 -25.818   5.667  0.00  0.00    +0.292 HD
ENDBRANCH  19  23
BRANCH  20  25
ATOM     25  O   LIG    1       25.761 -28.341   5.122  0.00  0.00    -0.503 OA
ATOM     26  H   LIG    1       24.984 -28.691   4.656  0.00  0.00    +0.292 HD
ENDBRANCH  20  25
ENDBRANCH  16  17
ENDBRANCH   2  16
TORSDOF 9
ENDMDL
MODEL 2
REMARK VINA RESULT:      -9.4      1.270      7.717
REMARK  Name = *****
REMARK                            x       y       z     vdW  Elec       q    Type
REMARK                         _______ _______ _______ _____ _____    ______ ____
ROOT
ATOM      1  C   LIG    1       26.392 -20.080   5.053  0.00  0.00    +0.008 C 
ATOM      2  C   LIG    1       27.100 -20.075   6.429  0.00  0.00    -0.007 C 
ENDROOT
BRANCH   2   3
ATOM      3  C   LIG    1       26.364 -21.002   7.473  0.00  0.00    -0.007 C 
ATOM      4  C   LIG    1       26.318 -20.435   8.899  0.00  0.00    +0.008 C 
BRANCH   3   5
ATOM      5  C   LIG    1       24.897 -21.418   7.086  0.00  0.00    +0.039 C 
BRANCH   5   6
ATOM      6  C   LIG    1       24.652 -22.890   6.818  0.00  0.00    -0.043 A 
ATOM      7  C   LIG    1       25.744 -23.722   6.509  0.00  0.00    +0.052 A 
ATOM      8  C   LIG    1       25.525 -25.054   6.180  0.00  0.00    +0.159 A 
ATOM      9  C   LIG    1       24.249 -25.571   6.089  0.00  0.00    +0.158 A 
ATOM     10  C   LIG    1       23.151 -24.779   6.434  0.00  0.00    +0.049 A 
ATOM     11  C   LIG    1       23.375 -23.460   6.851  0.00  0.00    +0.007 A 
BRANCH   8  12
ATOM     12  O   LIG    1       26.604 -25.869   5.940  0.00  0.00    -0.503 OA
ATOM     13  H   LIG    1       26.845 -25.679   5.014  0.00  0.00    +0.292 HD
ENDBRANCH   8  12
BRANCH   9  14
ATOM     14  O   LIG    1       24.091 -26.864   5.673  0.00  0.00    -0.503 OA
ATOM     15  H   LIG    1       24.970 -27.276   5.592  0.00  0.00    +0.292 HD
ENDBRANCH   9  14
ENDBRANCH   5   6
ENDBRANCH   3   5
ENDBRANCH   2   3
BRANCH   2  16
ATOM     16  C   LIG    1       28.597 -20.411   6.139  0.00  0.00    +0.039 C 
BRANCH  16  17
ATOM     17  C   LIG    1       29.632 -19.805   7.049  0.00  0.00    -0.043 A 
ATOM     18  C   LIG    1       30.504 -20.677   7.719  0.00  0.00    +0.052 A 
ATOM     19  C   LIG    1       31.320 -20.194   8.727  0.00  0.00    +0.159 A 
ATOM     20  C   LIG    1       31.331 -18.841   9.045  0.00  0.00    +0.158 A 
ATOM     21  C   LIG    1       30.525 -17.947   8.346  0.00  0.00    +0.049 A 
ATOM     22  C   LIG    1       29.675 -18.429   7.341  0.00  0.00    +0.007 A 
BRANCH  19  23
ATOM     23  O   LIG    1       32.073 -21.081   9.440  0.00  0.00    -0.503 OA
ATOM     24  H   LIG    1       32.423 -20.555  10.185  0.00  0.00    +0.292 HD
ENDBRANCH  19  23
BRANCH  20  25
ATOM     25  O   LIG    1       32.142 -18.445  10.074  0.00  0.00    -0.503 OA
ATOM     26  H   LIG    1       31.576 -18.150  10.807  0.00  0.00    +0.292 HD
ENDBRANCH  20  25
ENDBRANCH  16  17
ENDBRANCH   2  16
TORSDOF 9
ENDMDL
MODEL 3
REMARK VINA RESULT:      -9.2      1.234      7.542
REMARK  Name = *****
REMARK                            x       y       z     vdW  Elec       q    Type
REMARK                         _______ _______ _______ _____ _____    ______ ____
ROOT
ATOM      1  C   LIG    1       25.868 -20.542   8.828  0.00  0.00    +0.008 C 
ATOM      2  C   LIG    1       26.368 -21.756   8.009  0.00  0.00    -0.007 C 
ENDROOT
BRANCH   2   3
ATOM      3  C   LIG    1       25.174 -22.643   7.481  0.00  0.00    -0.007 C 
ATOM      4  C   LIG    1       23.800 -21.960   7.555  0.00  0.00    +0.008 C 
BRANCH   3   5
ATOM      5  C   LIG    1       25.343 -23.199   6.019  0.00  0.00    +0.039 C 
BRANCH   5   6
ATOM      6  C   LIG    1       25.413 -24.706   5.865  0.00  0.00    -0.043 A 
ATOM      7  C   LIG    1       25.819 -25.489   6.961  0.00  0.00    +0.052 A 
ATOM      8  C   LIG    1       25.966 -26.863   6.809  0.00  0.00    +0.159 A 
ATOM      9  C   LIG    1       25.781 -27.475   5.587  0.00  0.00    +0.158 A 
ATOM     10  C   LIG    1       25.335 -26.726   4.494  0.00  0.00    +0.049 A 
ATOM     11  C   LIG    1       25.101 -25.355   4.666  0.00  0.00    +0.007 A 
BRANCH   8  12
ATOM     12  O   LIG    1       26.304 -27.623   7.902  0.00  0.00    -0.503 OA
ATOM     13  H   LIG    1       26.456 -26.969   8.610  0.00  0.00    +0.292 HD
ENDBRANCH   8  12
BRANCH   9  14
ATOM     14  O   LIG    1       26.028 -28.815   5.477  0.00  0.00    -0.503 OA
ATOM     15  H   LIG    1       26.593 -29.090   6.222  0.00  0.00    +0.292 HD
ENDBRANCH   9  14
ENDBRANCH   5   6
ENDBRANCH   3   5
ENDBRANCH   2   3
BRANCH   2  16
ATOM     16  C   LIG    1       27.328 -21.172   6.925  0.00  0.00    +0.039 C 
BRANCH  16  17
ATOM     17  C   LIG    1       28.689 -20.714   7.379  0.00  0.00    -0.043 A 
ATOM     18  C   LIG    1       29.460 -21.610   8.137  0.00  0.00    +0.052 A 
ATOM     19  C   LIG    1       30.612 -21.167   8.762  0.00  0.00    +0.159 A 
ATOM     20  C   LIG    1       31.050 -19.857   8.600  0.00  0.00    +0.158 A 
ATOM     21  C   LIG    1       30.339 -18.972   7.796  0.00  0.00    +0.049 A 
ATOM     22  C   LIG    1       29.155 -19.402   7.180  0.00  0.00    +0.007 A 
BRANCH  19  23
ATOM     23  O   LIG    1       31.280 -22.025   9.587  0.00  0.00    -0.503 OA
ATOM     24  H   LIG    1       32.224 -21.841   9.412  0.00  0.00    +0.292 HD
ENDBRANCH  19  23
BRANCH  20  25
ATOM     25  O   LIG    1       32.181 -19.486   9.274  0.00  0.00    -0.503 OA
ATOM     26  H   LIG    1       31.929 -18.832   9.947  0.00  0.00    +0.292 HD
ENDBRANCH  20  25
ENDBRANCH  16  17
ENDBRANCH   2  16
TORSDOF 9
ENDMDL
MODEL 4
REMARK VINA RESULT:      -9.2      1.640      7.675
REMARK  Name = *****
REMARK                            x       y       z     vdW  Elec       q    Type
REMARK                         _______ _______ _______ _____ _____    ______ ____
ROOT
ATOM      1  C   LIG    1       23.286 -20.562   6.555  0.00  0.00    +0.008 C 
ATOM      2  C   LIG    1       24.523 -21.449   6.836  0.00  0.00    -0.007 C 
ENDROOT
BRANCH   2   3
ATOM      3  C   LIG    1       24.154 -22.984   6.854  0.00  0.00    -0.007 C 
ATOM      4  C   LIG    1       22.646 -23.271   6.871  0.00  0.00    +0.008 C 
BRANCH   3   5
ATOM      5  C   LIG    1       24.782 -23.840   5.692  0.00  0.00    +0.039 C 
BRANCH   5   6
ATOM      6  C   LIG    1       25.045 -25.304   5.988  0.00  0.00    -0.043 A 
ATOM      7  C   LIG    1       24.242 -26.283   5.375  0.00  0.00    +0.052 A 
ATOM      8  C   LIG    1       24.418 -27.622   5.700  0.00  0.00    +0.159 A 
ATOM      9  C   LIG    1       25.327 -28.014   6.661  0.00  0.00    +0.158 A 
ATOM     10  C   LIG    1       26.167 -27.067   7.252  0.00  0.00    +0.049 A 
ATOM     11  C   LIG    1       26.052 -25.726   6.861  0.00  0.00    +0.007 A 
BRANCH   8  12
ATOM     12  O   LIG    1       23.669 -28.572   5.049  0.00  0.00    -0.503 OA
ATOM     13  H   LIG    1       24.062 -29.420   5.332  0.00  0.00    +0.292 HD
ENDBRANCH   8  12
BRANCH   9  14
ATOM     14  O   LIG    1       25.393 -29.336   7.004  0.00  0.00    -0.503 OA
ATOM     15  H   LIG    1       25.839 -29.823   6.287  0.00  0.00    +0.292 HD
ENDBRANCH   9  14
ENDBRANCH   5   6
ENDBRANCH   3   5
ENDBRANCH   2   3
BRANCH   2  16
ATOM     16  C   LIG    1       25.605 -21.009   5.801  0.00  0.00    +0.039 C 
BRANCH  16  17
ATOM     17  C   LIG    1       26.972 -20.665   6.332  0.00  0.00    -0.043 A 
ATOM     18  C   LIG    1       27.651 -19.589   5.739  0.00  0.00    +0.052 A 
ATOM     19  C   LIG    1       28.986 -19.372   6.033  0.00  0.00    +0.159 A 
ATOM     20  C   LIG    1       29.649 -20.172   6.957  0.00  0.00    +0.158 A 
ATOM     21  C   LIG    1       28.975 -21.200   7.609  0.00  0.00    +0.049 A 
ATOM     22  C   LIG    1       27.630 -21.446   7.299  0.00  0.00    +0.007 A 
BRANCH  19  23
ATOM     23  O   LIG    1       29.654 -18.393   5.357  0.00  0.00    -0.503 OA
ATOM     24  H   LIG    1       29.409 -17.569   5.822  0.00  0.00    +0.292 HD
ENDBRANCH  19  23
BRANCH  20  25
ATOM     25  O   LIG    1       30.975 -19.914   7.172  0.00  0.00    -0.503 OA
ATOM     26  H   LIG    1       31.221 -20.296   8.031  0.00  0.00    +0.292 HD
ENDBRANCH  20  25
ENDBRANCH  16  17
ENDBRANCH   2  16
TORSDOF 9
ENDMDL
MODEL 5
REMARK VINA RESULT:      -9.1      3.139      4.706
REMARK  Name = *****
REMARK                            x       y       z     vdW  Elec       q    Type
REMARK                         _______ _______ _______ _____ _____    ______ ____
ROOT
ATOM      1  C   LIG    1       25.899 -24.082   6.888  0.00  0.00    +0.008 C 
ATOM      2  C   LIG    1       25.295 -22.665   6.735  0.00  0.00    -0.007 C 
ENDROOT
BRANCH   2   3
ATOM      3  C   LIG    1       26.308 -21.541   7.185  0.00  0.00    -0.007 C 
ATOM      4  C   LIG    1       25.814 -20.677   8.354  0.00  0.00    +0.008 C 
BRANCH   3   5
ATOM      5  C   LIG    1       27.752 -22.046   7.553  0.00  0.00    +0.039 C 
BRANCH   5   6
ATOM      6  C   LIG    1       28.870 -21.022   7.490  0.00  0.00    -0.043 A 
ATOM      7  C   LIG    1       29.978 -21.164   8.346  0.00  0.00    +0.052 A 
ATOM      8  C   LIG    1       30.969 -20.189   8.357  0.00  0.00    +0.159 A 
ATOM      9  C   LIG    1       30.863 -19.048   7.589  0.00  0.00    +0.158 A 
ATOM     10  C   LIG    1       29.795 -18.905   6.699  0.00  0.00    +0.049 A 
ATOM     11  C   LIG    1       28.840 -19.927   6.621  0.00  0.00    +0.007 A 
BRANCH   8  12
ATOM     12  O   LIG    1       32.074 -20.370   9.152  0.00  0.00    -0.503 OA
ATOM     13  H   LIG    1       31.908 -19.798   9.925  0.00  0.00    +0.292 HD
ENDBRANCH   8  12
BRANCH   9  14
ATOM     14  O   LIG    1       31.824 -18.082   7.709  0.00  0.00    -0.503 OA
ATOM     15  H   LIG    1       31.539 -17.443   8.387  0.00  0.00    +0.292 HD
ENDBRANCH   9  14
ENDBRANCH   5   6
ENDBRANCH   3   5
ENDBRANCH   2   3
BRANCH   2  16
ATOM     16  C   LIG    1       24.775 -22.581   5.266  0.00  0.00    +0.039 C 
BRANCH  16  17
ATOM     17  C   LIG    1       24.061 -21.321   4.855  0.00  0.00    -0.043 A 
ATOM     18  C   LIG    1       24.787 -20.369   4.121  0.00  0.00    +0.052 A 
ATOM     19  C   LIG    1       24.253 -19.110   3.911  0.00  0.00    +0.159 A 
ATOM     20  C   LIG    1       22.978 -18.793   4.368  0.00  0.00    +0.158 A 
ATOM     21  C   LIG    1       22.214 -19.744   5.036  0.00  0.00    +0.049 A 
ATOM     22  C   LIG    1       22.755 -21.014   5.279  0.00  0.00    +0.007 A 
BRANCH  19  23
ATOM     23  O   LIG    1       25.025 -18.166   3.296  0.00  0.00    -0.503 OA
ATOM     24  H   LIG    1       24.408 -17.429   3.121  0.00  0.00    +0.292 HD
ENDBRANCH  19  23
BRANCH  20  25
ATOM     25  O   LIG    1       22.533 -17.518   4.148  0.00  0.00    -0.503 OA
ATOM     26  H   LIG    1       22.607 -17.333   3.197  0.00  0.00    +0.292 HD
ENDBRANCH  20  25
ENDBRANCH  16  17
ENDBRANCH   2  16
TORSDOF 9
ENDMDL
MODEL 6
REMARK VINA RESULT:      -9.0      1.060      1.571
REMARK  Name = *****
REMARK                            x       y       z     vdW  Elec       q    Type
REMARK                         _______ _______ _______ _____ _____    ______ ____
ROOT
ATOM      1  C   LIG    1       23.024 -21.626   5.942  0.00  0.00    +0.008 C 
ATOM      2  C   LIG    1       24.421 -22.238   5.677  0.00  0.00    -0.007 C 
ENDROOT
BRANCH   2   3
ATOM      3  C   LIG    1       25.506 -21.126   5.393  0.00  0.00    -0.007 C 
ATOM      4  C   LIG    1       25.042 -20.024   4.430  0.00  0.00    +0.008 C 
BRANCH   3   5
ATOM      5  C   LIG    1       26.094 -20.418   6.669  0.00  0.00    +0.039 C 
BRANCH   5   6
ATOM      6  C   LIG    1       27.605 -20.354   6.780  0.00  0.00    -0.043 A 
ATOM      7  C   LIG    1       28.249 -21.082   7.798  0.00  0.00    +0.052 A 
ATOM      8  C   LIG    1       29.624 -20.968   7.962  0.00  0.00    +0.159 A 
ATOM      9  C   LIG    1       30.372 -20.107   7.186  0.00  0.00    +0.158 A 
ATOM     10  C   LIG    1       29.763 -19.407   6.140  0.00  0.00    +0.049 A 
ATOM     11  C   LIG    1       28.392 -19.587   5.916  0.00  0.00    +0.007 A 
BRANCH   8  12
ATOM     12  O   LIG    1       30.249 -21.729   8.920  0.00  0.00    -0.503 OA
ATOM     13  H   LIG    1       30.663 -22.454   8.415  0.00  0.00    +0.292 HD
ENDBRANCH   8  12
BRANCH   9  14
ATOM     14  O   LIG    1       31.705 -19.968   7.453  0.00  0.00    -0.503 OA
ATOM     15  H   LIG    1       32.172 -19.777   6.619  0.00  0.00    +0.292 HD
ENDBRANCH   9  14
ENDBRANCH   5   6
ENDBRANCH   3   5
ENDBRANCH   2   3
BRANCH   2  16
ATOM     16  C   LIG    1       24.704 -23.189   6.882  0.00  0.00    +0.039 C 
BRANCH  16  17
ATOM     17  C   LIG    1       24.929 -24.646   6.577  0.00  0.00    -0.043 A 
ATOM     18  C   LIG    1       26.254 -25.091   6.454  0.00  0.00    +0.052 A 
ATOM     19  C   LIG    1       26.512 -26.357   5.960  0.00  0.00    +0.159 A 
ATOM     20  C   LIG    1       25.470 -27.220   5.638  0.00  0.00    +0.158 A 
ATOM     21  C   LIG    1       24.148 -26.825   5.819  0.00  0.00    +0.049 A 
ATOM     22  C   LIG    1       23.875 -25.534   6.293  0.00  0.00    +0.007 A 
BRANCH  19  23
ATOM     23  O   LIG    1       27.809 -26.723   5.740  0.00  0.00    -0.503 OA
ATOM     24  H   LIG    1       27.948 -26.556   4.788  0.00  0.00    +0.292 HD
ENDBRANCH  19  23
BRANCH  20  25
ATOM     25  O   LIG    1       25.805 -28.444   5.127  0.00  0.00    -0.503 OA
ATOM     26  H   LIG    1       25.666 -29.109   5.822  0.00  0.00    +0.292 HD
ENDBRANCH  20  25
ENDBRANCH  16  17
ENDBRANCH   2  16
TORSDOF 9
ENDMDL
MODEL 7
REMARK VINA RESULT:      -9.0      2.971      7.133
REMARK  Name = *****
REMARK                            x       y       z     vdW  Elec       q    Type
REMARK                         _______ _______ _______ _____ _____    ______ ____
ROOT
ATOM      1  C   LIG    1       25.910 -21.495   8.672  0.00  0.00    +0.008 C 
ATOM      2  C   LIG    1       26.705 -22.205   7.549  0.00  0.00    -0.007 C 
ENDROOT
BRANCH   2   3
ATOM      3  C   LIG    1       25.785 -23.156   6.688  0.00  0.00    -0.007 C 
ATOM      4  C   LIG    1       25.841 -24.633   7.102  0.00  0.00    +0.008 C 
BRANCH   3   5
ATOM      5  C   LIG    1       24.267 -22.745   6.622  0.00  0.00    +0.039 C 
BRANCH   5   6
ATOM      6  C   LIG    1       23.921 -21.543   5.764  0.00  0.00    -0.043 A 
ATOM      7  C   LIG    1       24.810 -21.148   4.747  0.00  0.00    +0.052 A 
ATOM      8  C   LIG    1       24.546 -20.001   4.008  0.00  0.00    +0.159 A 
ATOM      9  C   LIG    1       23.458 -19.201   4.288  0.00  0.00    +0.158 A 
ATOM     10  C   LIG    1       22.536 -19.594   5.262  0.00  0.00    +0.049 A 
ATOM     11  C   LIG    1       22.754 -20.797   5.949  0.00  0.00    +0.007 A 
BRANCH   8  12
ATOM     12  O   LIG    1       25.390 -19.661   2.979  0.00  0.00    -0.503 OA
ATOM     13  H   LIG    1       25.049 -20.164   2.215  0.00  0.00    +0.292 HD
ENDBRANCH   8  12
BRANCH   9  14
ATOM     14  O   LIG    1       23.299 -18.037   3.588  0.00  0.00    -0.503 OA
ATOM     15  H   LIG    1       22.564 -18.150   2.958  0.00  0.00    +0.292 HD
ENDBRANCH   9  14
ENDBRANCH   5   6
ENDBRANCH   3   5
ENDBRANCH   2   3
BRANCH   2  16
ATOM     16  C   LIG    1       27.448 -21.072   6.773  0.00  0.00    +0.039 C 
BRANCH  16  17
ATOM     17  C   LIG    1       28.787 -20.634   7.302  0.00  0.00    -0.043 A 
ATOM     18  C   LIG    1       29.522 -21.556   8.065  0.00  0.00    +0.052 A 
ATOM     19  C   LIG    1       30.646 -21.137   8.755  0.00  0.00    +0.159 A 
ATOM     20  C   LIG    1       31.092 -19.824   8.656  0.00  0.00    +0.158 A 
ATOM     21  C   LIG    1       30.420 -18.911   7.850  0.00  0.00    +0.049 A 
ATOM     22  C   LIG    1       29.264 -19.317   7.167  0.00  0.00    +0.007 A 
BRANCH  19  23
ATOM     23  O   LIG    1       31.275 -22.023   9.581  0.00  0.00    -0.503 OA
ATOM     24  H   LIG    1       32.015 -22.368   9.045  0.00  0.00    +0.292 HD
ENDBRANCH  19  23
BRANCH  20  25
ATOM     25  O   LIG    1       32.193 -19.479   9.392  0.00  0.00    -0.503 OA
ATOM     26  H   LIG    1       32.758 -18.912   8.841  0.00  0.00    +0.292 HD
ENDBRANCH  20  25
ENDBRANCH  16  17
ENDBRANCH   2  16
TORSDOF 9
ENDMDL
MODEL 8
REMARK VINA RESULT:      -8.9      1.367      7.734
REMARK  Name = *****
REMARK                            x       y       z     vdW  Elec       q    Type
REMARK                         _______ _______ _______ _____ _____    ______ ____
ROOT
ATOM      1  C   LIG    1       25.504 -20.734   8.638  0.00  0.00    +0.008 C 
ATOM      2  C   LIG    1       25.828 -21.850   7.616  0.00  0.00    -0.007 C 
ENDROOT
BRANCH   2   3
ATOM      3  C   LIG    1       24.553 -22.709   7.257  0.00  0.00    -0.007 C 
ATOM      4  C   LIG    1       23.256 -21.895   7.144  0.00  0.00    +0.008 C 
BRANCH   3   5
ATOM      5  C   LIG    1       24.674 -23.581   5.953  0.00  0.00    +0.039 C 
BRANCH   5   6
ATOM      6  C   LIG    1       24.986 -25.053   6.142  0.00  0.00    -0.043 A 
ATOM      7  C   LIG    1       24.179 -26.013   5.502  0.00  0.00    +0.052 A 
ATOM      8  C   LIG    1       24.402 -27.365   5.733  0.00  0.00    +0.159 A 
ATOM      9  C   LIG    1       25.362 -27.792   6.626  0.00  0.00    +0.158 A 
ATOM     10  C   LIG    1       26.206 -26.862   7.240  0.00  0.00    +0.049 A 
ATOM     11  C   LIG    1       26.041 -25.503   6.942  0.00  0.00    +0.007 A 
BRANCH   8  12
ATOM     12  O   LIG    1       23.647 -28.291   5.056  0.00  0.00    -0.503 OA
ATOM     13  H   LIG    1       23.247 -27.784   4.324  0.00  0.00    +0.292 HD
ENDBRANCH   8  12
BRANCH   9  14
ATOM     14  O   LIG    1       25.476 -29.131   6.880  0.00  0.00    -0.503 OA
ATOM     15  H   LIG    1       24.839 -29.371   7.578  0.00  0.00    +0.292 HD
ENDBRANCH   9  14
ENDBRANCH   5   6
ENDBRANCH   3   5
ENDBRANCH   2   3
BRANCH   2  16
ATOM     16  C   LIG    1       26.543 -21.141   6.423  0.00  0.00    +0.039 C 
BRANCH  16  17
ATOM     17  C   LIG    1       27.971 -20.710   6.628  0.00  0.00    -0.043 A 
ATOM     18  C   LIG    1       28.719 -21.374   7.614  0.00  0.00    +0.052 A 
ATOM     19  C   LIG    1       29.952 -20.876   7.994  0.00  0.00    +0.159 A 
ATOM     20  C   LIG    1       30.489 -19.756   7.368  0.00  0.00    +0.158 A 
ATOM     21  C   LIG    1       29.797 -19.123   6.341  0.00  0.00    +0.049 A 
ATOM     22  C   LIG    1       28.534 -19.604   5.966  0.00  0.00    +0.007 A 
BRANCH  19  23
ATOM     23  O   LIG    1       30.606 -21.471   9.033  0.00  0.00    -0.503 OA
ATOM     24  H   LIG    1       31.411 -21.847   8.627  0.00  0.00    +0.292 HD
ENDBRANCH  19  23
BRANCH  20  25
ATOM     25  O   LIG    1       31.700 -19.306   7.821  0.00  0.00    -0.503 OA
ATOM     26  H   LIG    1       32.201 -20.070   8.149  0.00  0.00    +0.292 HD
ENDBRANCH  20  25
ENDBRANCH  16  17
ENDBRANCH   2  16
TORSDOF 9
ENDMDL
MODEL 9
REMARK VINA RESULT:      -8.8      1.396      2.882
REMARK  Name = *****
REMARK                            x       y       z     vdW  Elec       q    Type
REMARK                         _______ _______ _______ _____ _____    ______ ____
ROOT
ATOM      1  C   LIG    1       23.233 -20.569   7.016  0.00  0.00    +0.008 C 
ATOM      2  C   LIG    1       23.502 -21.797   6.113  0.00  0.00    -0.007 C 
ENDROOT
BRANCH   2   3
ATOM      3  C   LIG    1       24.690 -21.538   5.106  0.00  0.00    -0.007 C 
ATOM      4  C   LIG    1       24.270 -21.507   3.629  0.00  0.00    +0.008 C 
BRANCH   3   5
ATOM      5  C   LIG    1       25.535 -20.240   5.381  0.00  0.00    +0.039 C 
BRANCH   5   6
ATOM      6  C   LIG    1       26.811 -20.412   6.181  0.00  0.00    -0.043 A 
ATOM      7  C   LIG    1       27.980 -19.752   5.759  0.00  0.00    +0.052 A 
ATOM      8  C   LIG    1       29.175 -19.966   6.435  0.00  0.00    +0.159 A 
ATOM      9  C   LIG    1       29.259 -20.863   7.479  0.00  0.00    +0.158 A 
ATOM     10  C   LIG    1       28.105 -21.499   7.946  0.00  0.00    +0.049 A 
ATOM     11  C   LIG    1       26.881 -21.217   7.323  0.00  0.00    +0.007 A 
BRANCH   8  12
ATOM     12  O   LIG    1       30.294 -19.269   6.051  0.00  0.00    -0.503 OA
ATOM     13  H   LIG    1       31.011 -19.651   6.592  0.00  0.00    +0.292 HD
ENDBRANCH   8  12
BRANCH   9  14
ATOM     14  O   LIG    1       30.480 -21.101   8.047  0.00  0.00    -0.503 OA
ATOM     15  H   LIG    1       30.390 -21.830   8.687  0.00  0.00    +0.292 HD
ENDBRANCH   9  14
ENDBRANCH   5   6
ENDBRANCH   3   5
ENDBRANCH   2   3
BRANCH   2  16
ATOM     16  C   LIG    1       23.667 -23.009   7.082  0.00  0.00    +0.039 C 
BRANCH  16  17
ATOM     17  C   LIG    1       24.454 -24.192   6.583  0.00  0.00    -0.043 A 
ATOM     18  C   LIG    1       23.736 -25.293   6.088  0.00  0.00    +0.052 A 
ATOM     19  C   LIG    1       24.394 -26.482   5.827  0.00  0.00    +0.159 A 
ATOM     20  C   LIG    1       25.771 -26.583   5.993  0.00  0.00    +0.158 A 
ATOM     21  C   LIG    1       26.512 -25.485   6.415  0.00  0.00    +0.049 A 
ATOM     22  C   LIG    1       25.852 -24.282   6.709  0.00  0.00    +0.007 A 
BRANCH  19  23
ATOM     23  O   LIG    1       23.657 -27.570   5.458  0.00  0.00    -0.503 OA
ATOM     24  H   LIG    1       24.179 -27.982   4.742  0.00  0.00    +0.292 HD
ENDBRANCH  19  23
BRANCH  20  25
ATOM     25  O   LIG    1       26.344 -27.801   5.743  0.00  0.00    -0.503 OA
ATOM     26  H   LIG    1       25.726 -28.318   5.199  0.00  0.00    +0.292 HD
ENDBRANCH  20  25
ENDBRANCH  16  17
ENDBRANCH   2  16
TORSDOF 9
ENDMDL
