MODEL 1
REMARK VINA RESULT:      -8.5      0.000      0.000
REMARK  Name = *****
REMARK                            x       y       z     vdW  Elec       q    Type
REMARK                         _______ _______ _______ _____ _____    ______ ____
ROOT
ATOM      1  C   LIG    1       25.381 -22.272   7.468  0.00  0.00    +0.167 C 
ATOM      2  O   LIG    1       24.784 -21.892   8.484  0.00  0.00    -0.292 OA
ENDROOT
BRANCH   1   6
ATOM      3  C   LIG    1       24.679 -26.341   6.174  0.00  0.00    -0.048 A 
ATOM      4  C   LIG    1       23.615 -25.435   6.246  0.00  0.00    +0.004 A 
ATOM      5  C   LIG    1       23.825 -24.103   6.619  0.00  0.00    +0.012 A 
ATOM      6  C   LIG    1       25.108 -23.655   6.950  0.00  0.00    +0.018 A 
ATOM      7  C   LIG    1       26.187 -24.543   6.806  0.00  0.00    +0.012 A 
ATOM      8  C   LIG    1       25.974 -25.874   6.424  0.00  0.00    +0.004 A 
BRANCH   3  10
ATOM      9  C   LIG    1       24.927 -28.718   6.981  0.00  0.00    +0.009 C 
ATOM     10  C   LIG    1       24.413 -27.797   5.884  0.00  0.00    +0.032 C 
ENDBRANCH   3  10
ENDBRANCH   1   6
BRANCH   1  11
ATOM     11  C   LIG    1       26.313 -21.339   6.686  0.00  0.00    +0.071 C 
ATOM     12  C   LIG    1       27.348 -20.674   7.598  0.00  0.00    +0.017 C 
BRANCH  11  13
ATOM     13  C   LIG    1       25.475 -20.298   5.905  0.00  0.00    +0.095 C 
BRANCH  13  14
ATOM     14  N   LIG    1       24.617 -20.867   4.838  0.00  0.00    -0.302 NA
ATOM     15  C   LIG    1       23.190 -20.923   5.185  0.00  0.00    +0.084 C 
ATOM     16  C   LIG    1       22.545 -19.544   5.323  0.00  0.00    +0.015 C 
ATOM     17  C   LIG    1       22.755 -18.694   4.072  0.00  0.00    +0.002 C 
ATOM     18  C   LIG    1       24.201 -18.722   3.585  0.00  0.00    +0.015 C 
ATOM     19  C   LIG    1       24.767 -20.147   3.558  0.00  0.00    +0.084 C 
ENDBRANCH  13  14
ENDBRANCH  11  13
ENDBRANCH   1  11
TORSDOF 5
ENDMDL
MODEL 2
REMARK VINA RESULT:      -8.4      2.135      4.152
REMARK  Name = *****
REMARK                            x       y       z     vdW  Elec       q    Type
REMARK                         _______ _______ _______ _____ _____    ______ ____
ROOT
ATOM      1  C   LIG    1       25.577 -21.655   8.185  0.00  0.00    +0.167 C 
ATOM      2  O   LIG    1       25.454 -21.641   9.417  0.00  0.00    -0.292 OA
ENDROOT
BRANCH   1   6
ATOM      3  C   LIG    1       24.552 -25.368   6.214  0.00  0.00    -0.048 A 
ATOM      4  C   LIG    1       23.553 -24.437   6.517  0.00  0.00    +0.004 A 
ATOM      5  C   LIG    1       23.865 -23.212   7.114  0.00  0.00    +0.012 A 
ATOM      6  C   LIG    1       25.190 -22.901   7.441  0.00  0.00    +0.018 A 
ATOM      7  C   LIG    1       26.201 -23.801   7.068  0.00  0.00    +0.012 A 
ATOM      8  C   LIG    1       25.886 -25.025   6.463  0.00  0.00    +0.004 A 
BRANCH   3  10
ATOM      9  C   LIG    1       25.395 -27.569   5.314  0.00  0.00    +0.009 C 
ATOM     10  C   LIG    1       24.180 -26.729   5.678  0.00  0.00    +0.032 C 
ENDBRANCH   3  10
ENDBRANCH   1   6
BRANCH   1  11
ATOM     11  C   LIG    1       26.023 -20.413   7.406  0.00  0.00    +0.071 C 
ATOM     12  C   LIG    1       25.809 -20.581   5.899  0.00  0.00    +0.017 C 
BRANCH  11  13
ATOM     13  C   LIG    1       27.496 -20.083   7.748  0.00  0.00    +0.095 C 
BRANCH  13  14
ATOM     14  N   LIG    1       28.500 -20.837   6.960  0.00  0.00    -0.302 NA
ATOM     15  C   LIG    1       29.099 -20.067   5.861  0.00  0.00    +0.084 C 
ATOM     16  C   LIG    1       29.971 -18.906   6.340  0.00  0.00    +0.015 C 
ATOM     17  C   LIG    1       31.052 -19.373   7.313  0.00  0.00    +0.002 C 
ATOM     18  C   LIG    1       30.500 -20.300   8.394  0.00  0.00    +0.015 C 
ATOM     19  C   LIG    1       29.582 -21.378   7.807  0.00  0.00    +0.084 C 
ENDBRANCH  13  14
ENDBRANCH  11  13
ENDBRANCH   1  11
TORSDOF 5
ENDMDL
MODEL 3
REMARK VINA RESULT:      -8.4      4.322      7.354
REMARK  Name = *****
REMARK                            x       y       z     vdW  Elec       q    Type
REMARK                         _______ _______ _______ _____ _____    ______ ____
ROOT
ATOM      1  C   LIG    1       28.938 -20.361   7.910  0.00  0.00    +0.167 C 
ATOM      2  O   LIG    1       29.454 -21.353   8.441  0.00  0.00    -0.292 OA
ENDROOT
BRANCH   1   6
ATOM      3  C   LIG    1       24.800 -20.728   6.698  0.00  0.00    -0.048 A 
ATOM      4  C   LIG    1       25.138 -20.755   8.056  0.00  0.00    +0.004 A 
ATOM      5  C   LIG    1       26.463 -20.595   8.473  0.00  0.00    +0.012 A 
ATOM      6  C   LIG    1       27.486 -20.424   7.534  0.00  0.00    +0.018 A 
ATOM      7  C   LIG    1       27.138 -20.320   6.176  0.00  0.00    +0.012 A 
ATOM      8  C   LIG    1       25.809 -20.474   5.762  0.00  0.00    +0.004 A 
BRANCH   3  10
ATOM      9  C   LIG    1       22.793 -19.912   5.407  0.00  0.00    +0.009 C 
ATOM     10  C   LIG    1       23.385 -21.020   6.265  0.00  0.00    +0.032 C 
ENDBRANCH   3  10
ENDBRANCH   1   6
BRANCH   1  11
ATOM     11  C   LIG    1       29.717 -19.056   7.714  0.00  0.00    +0.071 C 
ATOM     12  C   LIG    1       30.642 -19.123   6.496  0.00  0.00    +0.017 C 
BRANCH  11  13
ATOM     13  C   LIG    1       30.489 -18.709   9.010  0.00  0.00    +0.095 C 
BRANCH  13  14
ATOM     14  N   LIG    1       30.298 -17.320   9.492  0.00  0.00    -0.302 NA
ATOM     15  C   LIG    1       30.127 -17.211  10.948  0.00  0.00    +0.084 C 
ATOM     16  C   LIG    1       31.382 -17.585  11.736  0.00  0.00    +0.015 C 
ATOM     17  C   LIG    1       32.597 -16.777  11.282  0.00  0.00    +0.002 C 
ATOM     18  C   LIG    1       32.734 -16.739   9.762  0.00  0.00    +0.015 C 
ATOM     19  C   LIG    1       31.400 -16.429   9.075  0.00  0.00    +0.084 C 
ENDBRANCH  13  14
ENDBRANCH  11  13
ENDBRANCH   1  11
TORSDOF 5
ENDMDL
MODEL 4
REMARK VINA RESULT:      -8.3      4.251      7.271
REMARK  Name = *****
REMARK                            x       y       z     vdW  Elec       q    Type
REMARK                         _______ _______ _______ _____ _____    ______ ____
ROOT
ATOM      1  C   LIG    1       28.806 -20.233   7.718  0.00  0.00    +0.167 C 
ATOM      2  O   LIG    1       29.362 -21.041   8.475  0.00  0.00    -0.292 OA
ENDROOT
BRANCH   1   6
ATOM      3  C   LIG    1       24.603 -20.719   6.810  0.00  0.00    -0.048 A 
ATOM      4  C   LIG    1       25.525 -20.518   5.776  0.00  0.00    +0.004 A 
ATOM      5  C   LIG    1       26.893 -20.402   6.042  0.00  0.00    +0.012 A 
ATOM      6  C   LIG    1       27.367 -20.464   7.357  0.00  0.00    +0.018 A 
ATOM      7  C   LIG    1       26.452 -20.742   8.387  0.00  0.00    +0.012 A 
ATOM      8  C   LIG    1       25.083 -20.865   8.116  0.00  0.00    +0.004 A 
BRANCH   3  10
ATOM      9  C   LIG    1       22.764 -19.869   5.307  0.00  0.00    +0.009 C 
ATOM     10  C   LIG    1       23.124 -20.724   6.514  0.00  0.00    +0.032 C 
ENDBRANCH   3  10
ENDBRANCH   1   6
BRANCH   1  11
ATOM     11  C   LIG    1       29.520 -18.970   7.223  0.00  0.00    +0.071 C 
ATOM     12  C   LIG    1       30.738 -19.308   6.359  0.00  0.00    +0.017 C 
BRANCH  11  13
ATOM     13  C   LIG    1       29.895 -18.076   8.429  0.00  0.00    +0.095 C 
BRANCH  13  14
ATOM     14  N   LIG    1       31.137 -18.474   9.134  0.00  0.00    -0.302 NA
ATOM     15  C   LIG    1       32.283 -17.593   8.871  0.00  0.00    +0.084 C 
ATOM     16  C   LIG    1       32.108 -16.185   9.438  0.00  0.00    +0.015 C 
ATOM     17  C   LIG    1       31.792 -16.212  10.933  0.00  0.00    +0.002 C 
ATOM     18  C   LIG    1       30.702 -17.225  11.277  0.00  0.00    +0.015 C 
ATOM     19  C   LIG    1       30.941 -18.576  10.594  0.00  0.00    +0.084 C 
ENDBRANCH  13  14
ENDBRANCH  11  13
ENDBRANCH   1  11
TORSDOF 5
ENDMDL
MODEL 5
REMARK VINA RESULT:      -8.3      1.946      6.250
REMARK  Name = *****
REMARK                            x       y       z     vdW  Elec       q    Type
REMARK                         _______ _______ _______ _____ _____    ______ ____
ROOT
ATOM      1  C   LIG    1       25.103 -20.749   6.838  0.00  0.00    +0.167 C 
ATOM      2  O   LIG    1       24.483 -20.545   7.890  0.00  0.00    -0.292 OA
ENDROOT
BRANCH   1   6
ATOM      3  C   LIG    1       29.342 -19.879   6.787  0.00  0.00    -0.048 A 
ATOM      4  C   LIG    1       28.780 -20.565   7.869  0.00  0.00    +0.004 A 
ATOM      5  C   LIG    1       27.422 -20.896   7.888  0.00  0.00    +0.012 A 
ATOM      6  C   LIG    1       26.588 -20.526   6.827  0.00  0.00    +0.018 A 
ATOM      7  C   LIG    1       27.166 -19.904   5.707  0.00  0.00    +0.012 A 
ATOM      8  C   LIG    1       28.529 -19.581   5.688  0.00  0.00    +0.004 A 
BRANCH   3  10
ATOM      9  C   LIG    1       31.063 -18.502   8.013  0.00  0.00    +0.009 C 
ATOM     10  C   LIG    1       30.781 -19.430   6.841  0.00  0.00    +0.032 C 
ENDBRANCH   3  10
ENDBRANCH   1   6
BRANCH   1  11
ATOM     11  C   LIG    1       24.410 -21.305   5.589  0.00  0.00    +0.071 C 
ATOM     12  C   LIG    1       22.905 -21.020   5.600  0.00  0.00    +0.017 C 
BRANCH  11  13
ATOM     13  C   LIG    1       24.713 -22.817   5.454  0.00  0.00    +0.095 C 
BRANCH  13  14
ATOM     14  N   LIG    1       24.528 -23.600   6.699  0.00  0.00    -0.302 NA
ATOM     15  C   LIG    1       23.513 -24.658   6.595  0.00  0.00    +0.084 C 
ATOM     16  C   LIG    1       23.907 -25.785   5.641  0.00  0.00    +0.015 C 
ATOM     17  C   LIG    1       25.264 -26.385   6.004  0.00  0.00    +0.002 C 
ATOM     18  C   LIG    1       26.321 -25.315   6.267  0.00  0.00    +0.015 C 
ATOM     19  C   LIG    1       25.791 -24.199   7.174  0.00  0.00    +0.084 C 
ENDBRANCH  13  14
ENDBRANCH  11  13
ENDBRANCH   1  11
TORSDOF 5
ENDMDL
MODEL 6
REMARK VINA RESULT:      -8.1      4.053      6.744
REMARK  Name = *****
REMARK                            x       y       z     vdW  Elec       q    Type
REMARK                         _______ _______ _______ _____ _____    ______ ____
ROOT
ATOM      1  C   LIG    1       26.995 -20.440   7.990  0.00  0.00    +0.167 C 
ATOM      2  O   LIG    1       26.801 -20.382   9.212  0.00  0.00    -0.292 OA
ENDROOT
BRANCH   1   6
ATOM      3  C   LIG    1       23.473 -20.414   5.475  0.00  0.00    -0.048 A 
ATOM      4  C   LIG    1       24.744 -20.280   4.903  0.00  0.00    +0.004 A 
ATOM      5  C   LIG    1       25.898 -20.329   5.691  0.00  0.00    +0.012 A 
ATOM      6  C   LIG    1       25.803 -20.493   7.077  0.00  0.00    +0.018 A 
ATOM      7  C   LIG    1       24.534 -20.703   7.642  0.00  0.00    +0.012 A 
ATOM      8  C   LIG    1       23.380 -20.661   6.849  0.00  0.00    +0.004 A 
BRANCH   3  10
ATOM      9  C   LIG    1       21.977 -18.786   4.260  0.00  0.00    +0.009 C 
ATOM     10  C   LIG    1       22.240 -20.240   4.624  0.00  0.00    +0.032 C 
ENDBRANCH   3  10
ENDBRANCH   1   6
BRANCH   1  11
ATOM     11  C   LIG    1       28.404 -20.367   7.394  0.00  0.00    +0.071 C 
ATOM     12  C   LIG    1       29.207 -21.641   7.676  0.00  0.00    +0.017 C 
BRANCH  11  13
ATOM     13  C   LIG    1       29.127 -19.100   7.913  0.00  0.00    +0.095 C 
BRANCH  13  14
ATOM     14  N   LIG    1       29.990 -19.321   9.098  0.00  0.00    -0.302 NA
ATOM     15  C   LIG    1       31.417 -19.474   8.779  0.00  0.00    +0.084 C 
ATOM     16  C   LIG    1       32.055 -18.197   8.232  0.00  0.00    +0.015 C 
ATOM     17  C   LIG    1       31.845 -17.012   9.172  0.00  0.00    +0.002 C 
ATOM     18  C   LIG    1       30.400 -16.898   9.651  0.00  0.00    +0.015 C 
ATOM     19  C   LIG    1       29.840 -18.251  10.105  0.00  0.00    +0.084 C 
ENDBRANCH  13  14
ENDBRANCH  11  13
ENDBRANCH   1  11
TORSDOF 5
ENDMDL
MODEL 7
REMARK VINA RESULT:      -8.0      2.103      6.258
REMARK  Name = *****
REMARK                            x       y       z     vdW  Elec       q    Type
REMARK                         _______ _______ _______ _____ _____    ______ ____
ROOT
ATOM      1  C   LIG    1       24.319 -21.597   7.192  0.00  0.00    +0.167 C 
ATOM      2  O   LIG    1       23.520 -21.067   7.976  0.00  0.00    -0.292 OA
ENDROOT
BRANCH   1   6
ATOM      3  C   LIG    1       28.258 -19.894   6.638  0.00  0.00    -0.048 A 
ATOM      4  C   LIG    1       27.375 -19.983   5.556  0.00  0.00    +0.004 A 
ATOM      5  C   LIG    1       26.081 -20.489   5.721  0.00  0.00    +0.012 A 
ATOM      6  C   LIG    1       25.651 -20.939   6.974  0.00  0.00    +0.018 A 
ATOM      7  C   LIG    1       26.509 -20.780   8.074  0.00  0.00    +0.012 A 
ATOM      8  C   LIG    1       27.802 -20.265   7.908  0.00  0.00    +0.004 A 
BRANCH   3  10
ATOM      9  C   LIG    1       30.600 -19.826   7.572  0.00  0.00    +0.009 C 
ATOM     10  C   LIG    1       29.684 -19.456   6.415  0.00  0.00    +0.032 C 
ENDBRANCH   3  10
ENDBRANCH   1   6
BRANCH   1  11
ATOM     11  C   LIG    1       24.016 -22.940   6.519  0.00  0.00    +0.071 C 
ATOM     12  C   LIG    1       22.558 -23.363   6.723  0.00  0.00    +0.017 C 
BRANCH  11  13
ATOM     13  C   LIG    1       25.007 -24.015   7.029  0.00  0.00    +0.095 C 
BRANCH  13  14
ATOM     14  N   LIG    1       25.788 -24.692   5.966  0.00  0.00    -0.302 NA
ATOM     15  C   LIG    1       26.643 -25.783   6.455  0.00  0.00    +0.084 C 
ATOM     16  C   LIG    1       25.854 -26.976   6.992  0.00  0.00    +0.015 C 
ATOM     17  C   LIG    1       24.855 -27.504   5.964  0.00  0.00    +0.002 C 
ATOM     18  C   LIG    1       24.041 -26.387   5.318  0.00  0.00    +0.015 C 
ATOM     19  C   LIG    1       24.925 -25.212   4.886  0.00  0.00    +0.084 C 
ENDBRANCH  13  14
ENDBRANCH  11  13
ENDBRANCH   1  11
TORSDOF 5
ENDMDL
MODEL 8
REMARK VINA RESULT:      -8.0      2.226      5.144
REMARK  Name = *****
REMARK                            x       y       z     vdW  Elec       q    Type
REMARK                         _______ _______ _______ _____ _____    ______ ____
ROOT
ATOM      1  C   LIG    1       25.729 -21.703   8.282  0.00  0.00    +0.167 C 
ATOM      2  O   LIG    1       25.563 -21.771   9.507  0.00  0.00    -0.292 OA
ENDROOT
BRANCH   1   6
ATOM      3  C   LIG    1       29.438 -20.000   6.844  0.00  0.00    -0.048 A 
ATOM      4  C   LIG    1       29.456 -20.964   7.858  0.00  0.00    +0.004 A 
ATOM      5  C   LIG    1       28.274 -21.561   8.308  0.00  0.00    +0.012 A 
ATOM      6  C   LIG    1       27.040 -21.186   7.765  0.00  0.00    +0.018 A 
ATOM      7  C   LIG    1       27.028 -20.275   6.696  0.00  0.00    +0.012 A 
ATOM      8  C   LIG    1       28.215 -19.685   6.241  0.00  0.00    +0.004 A 
BRANCH   3  10
ATOM      9  C   LIG    1       31.577 -18.938   7.657  0.00  0.00    +0.009 C 
ATOM     10  C   LIG    1       30.709 -19.286   6.457  0.00  0.00    +0.032 C 
ENDBRANCH   3  10
ENDBRANCH   1   6
BRANCH   1  11
ATOM     11  C   LIG    1       24.673 -22.215   7.296  0.00  0.00    +0.071 C 
ATOM     12  C   LIG    1       25.246 -23.272   6.347  0.00  0.00    +0.017 C 
BRANCH  11  13
ATOM     13  C   LIG    1       24.053 -21.023   6.529  0.00  0.00    +0.095 C 
BRANCH  13  14
ATOM     14  N   LIG    1       23.491 -21.365   5.201  0.00  0.00    -0.302 NA
ATOM     15  C   LIG    1       22.200 -20.723   4.913  0.00  0.00    +0.084 C 
ATOM     16  C   LIG    1       22.299 -19.205   4.765  0.00  0.00    +0.015 C 
ATOM     17  C   LIG    1       23.337 -18.804   3.718  0.00  0.00    +0.002 C 
ATOM     18  C   LIG    1       24.653 -19.558   3.887  0.00  0.00    +0.015 C 
ATOM     19  C   LIG    1       24.429 -21.059   4.102  0.00  0.00    +0.084 C 
ENDBRANCH  13  14
ENDBRANCH  11  13
ENDBRANCH   1  11
TORSDOF 5
ENDMDL
MODEL 9
REMARK VINA RESULT:      -7.9      3.126      6.186
REMARK  Name = *****
REMARK                            x       y       z     vdW  Elec       q    Type
REMARK                         _______ _______ _______ _____ _____    ______ ____
ROOT
ATOM      1  C   LIG    1       25.880 -22.082   6.858  0.00  0.00    +0.167 C 
ATOM      2  O   LIG    1       26.033 -23.276   6.569  0.00  0.00    -0.292 OA
ENDROOT
BRANCH   1   6
ATOM      3  C   LIG    1       23.026 -19.616   4.737  0.00  0.00    -0.048 A 
ATOM      4  C   LIG    1       24.342 -19.721   4.274  0.00  0.00    +0.004 A 
ATOM      5  C   LIG    1       25.270 -20.546   4.917  0.00  0.00    +0.012 A 
ATOM      6  C   LIG    1       24.904 -21.270   6.057  0.00  0.00    +0.018 A 
ATOM      7  C   LIG    1       23.564 -21.224   6.478  0.00  0.00    +0.012 A 
ATOM      8  C   LIG    1       22.635 -20.402   5.826  0.00  0.00    +0.004 A 
BRANCH   3  10
ATOM      9  C   LIG    1       22.258 -17.216   4.626  0.00  0.00    +0.009 C 
ATOM     10  C   LIG    1       22.077 -18.632   4.100  0.00  0.00    +0.032 C 
ENDBRANCH   3  10
ENDBRANCH   1   6
BRANCH   1  11
ATOM     11  C   LIG    1       26.589 -21.447   8.059  0.00  0.00    +0.071 C 
ATOM     12  C   LIG    1       25.592 -20.945   9.108  0.00  0.00    +0.017 C 
BRANCH  11  13
ATOM     13  C   LIG    1       27.534 -20.322   7.574  0.00  0.00    +0.095 C 
BRANCH  13  14
ATOM     14  N   LIG    1       28.788 -20.795   6.941  0.00  0.00    -0.302 NA
ATOM     15  C   LIG    1       29.250 -19.956   5.826  0.00  0.00    +0.084 C 
ATOM     16  C   LIG    1       29.694 -18.560   6.261  0.00  0.00    +0.015 C 
ATOM     17  C   LIG    1       30.758 -18.621   7.356  0.00  0.00    +0.002 C 
ATOM     18  C   LIG    1       30.389 -19.596   8.471  0.00  0.00    +0.015 C 
ATOM     19  C   LIG    1       29.887 -20.934   7.918  0.00  0.00    +0.084 C 
ENDBRANCH  13  14
ENDBRANCH  11  13
ENDBRANCH   1  11
TORSDOF 5
ENDMDL
