MODEL 1
REMARK VINA RESULT:      -3.9      0.000      0.000
REMARK  Name = *****
REMARK                            x       y       z     vdW  Elec       q    Type
REMARK                         _______ _______ _______ _____ _____    ______ ____
ROOT
ATOM      1  C6    A A  1       23.719 -20.133   4.486  0.00  0.00    +0.147 A 
ATOM      2  C5    A A  1       24.593 -19.129   4.032  0.00  0.00    +0.147 A 
ATOM      3  N7    A A  1       25.930 -19.144   3.699  0.00  0.00    -0.231 NA
ATOM      4  C8    A A  1       26.200 -17.906   3.339  0.00  0.00    +0.203 A 
ATOM      5  N9    A A  1       25.101 -17.087   3.441  0.00  0.00    -0.285 N 
ATOM      6  C4    A A  1       24.050 -17.863   3.851  0.00  0.00    +0.167 A 
ATOM      7  N3    A A  1       22.771 -17.501   4.043  0.00  0.00    -0.216 NA
ATOM      8  C2    A A  1       22.032 -18.545   4.481  0.00  0.00    +0.225 A 
ATOM      9  N1    A A  1       22.424 -19.817   4.699  0.00  0.00    -0.219 NA
ENDROOT
BRANCH   5  10
ATOM     10  C1*   A A  1       25.115 -15.667   3.137  0.00  0.00    +0.253 C 
ATOM     11  C2*   A A  1       24.840 -14.774   4.344  0.00  0.00    +0.195 C 
ATOM     12  C3*   A A  1       25.545 -13.492   3.930  0.00  0.00    +0.178 C 
ATOM     13  C4*   A A  1       26.755 -13.983   3.138  0.00  0.00    +0.177 C 
ATOM     14  O4*   A A  1       26.384 -15.265   2.576  0.00  0.00    -0.346 OA
BRANCH  11  15
ATOM     15  O2*   A A  1       23.442 -14.558   4.551  0.00  0.00    -0.385 OA
ATOM     16  H2*   A A  1       23.368 -13.672   4.968  0.00  0.00    +0.210 HD
ENDBRANCH  11  15
BRANCH  12  17
ATOM     17  O3*   A A  1       24.631 -12.745   3.097  0.00  0.00    -0.386 OA
ATOM     18  H3*   A A  1       25.123 -12.347   2.355  0.00  0.00    +0.210 HD
ENDBRANCH  12  17
BRANCH  13  19
ATOM     19  C5*   A A  1       28.019 -14.123   3.990  0.00  0.00    +0.190 C 
BRANCH  19  20
ATOM     20  O5*   A A  1       29.113 -13.424   3.416  0.00  0.00    -0.392 OA
ATOM     21  H5*   A A  1       28.755 -12.957   2.627  0.00  0.00    +0.209 HD
ENDBRANCH  19  20
ENDBRANCH  13  19
ENDBRANCH   5  10
BRANCH   1  22
ATOM     22  N6    A A  1       24.113 -21.448   4.703  0.00  0.00    -0.341 N 
ATOM     23  H61   A A  1       23.339 -22.065   4.921  0.00  0.00    +0.144 HD
ATOM     24  H62   A A  1       24.932 -21.500   5.296  0.00  0.00    +0.144 HD
ENDBRANCH   1  22
TORSDOF 6
ENDMDL
MODEL 2
REMARK VINA RESULT:      -3.3      3.185      6.187
REMARK  Name = *****
REMARK                            x       y       z     vdW  Elec       q    Type
REMARK                         _______ _______ _______ _____ _____    ______ ____
ROOT
ATOM      1  C6    A A  1       25.283 -14.195   4.093  0.00  0.00    +0.147 A 
ATOM      2  C5    A A  1       24.334 -15.229   4.185  0.00  0.00    +0.147 A 
ATOM      3  N7    A A  1       23.025 -15.251   4.614  0.00  0.00    -0.231 NA
ATOM      4  C8    A A  1       22.645 -16.504   4.468  0.00  0.00    +0.203 A 
ATOM      5  N9    A A  1       23.655 -17.297   3.980  0.00  0.00    -0.285 N 
ATOM      6  C4    A A  1       24.738 -16.488   3.759  0.00  0.00    +0.167 A 
ATOM      7  N3    A A  1       25.935 -16.819   3.246  0.00  0.00    -0.216 NA
ATOM      8  C2    A A  1       26.760 -15.749   3.211  0.00  0.00    +0.225 A 
ATOM      9  N1    A A  1       26.503 -14.480   3.589  0.00  0.00    -0.219 NA
ENDROOT
BRANCH   5  10
ATOM     10  C1*   A A  1       23.528 -18.725   3.747  0.00  0.00    +0.253 C 
ATOM     11  C2*   A A  1       24.811 -19.510   4.005  0.00  0.00    +0.195 C 
ATOM     12  C3*   A A  1       24.254 -20.885   4.340  0.00  0.00    +0.178 C 
ATOM     13  C4*   A A  1       22.948 -20.579   5.071  0.00  0.00    +0.177 C 
ATOM     14  O4*   A A  1       22.490 -19.297   4.575  0.00  0.00    -0.346 OA
BRANCH  11  15
ATOM     15  O2*   A A  1       25.658 -19.556   2.855  0.00  0.00    -0.385 OA
ATOM     16  H2*   A A  1       25.195 -20.128   2.205  0.00  0.00    +0.210 HD
ENDBRANCH  11  15
BRANCH  12  17
ATOM     17  O3*   A A  1       24.016 -21.571   3.092  0.00  0.00    -0.386 OA
ATOM     18  H3*   A A  1       23.984 -22.533   3.254  0.00  0.00    +0.210 HD
ENDBRANCH  12  17
BRANCH  13  19
ATOM     19  C5*   A A  1       23.105 -20.532   6.593  0.00  0.00    +0.190 C 
BRANCH  19  20
ATOM     20  O5*   A A  1       24.351 -21.074   7.005  0.00  0.00    -0.392 OA
ATOM     21  H5*   A A  1       24.445 -21.932   6.533  0.00  0.00    +0.209 HD
ENDBRANCH  19  20
ENDBRANCH  13  19
ENDBRANCH   5  10
BRANCH   1  22
ATOM     22  N6    A A  1       25.023 -12.883   4.470  0.00  0.00    -0.341 N 
ATOM     23  H61   A A  1       24.604 -12.810   5.390  0.00  0.00    +0.144 HD
ATOM     24  H62   A A  1       24.596 -12.356   3.720  0.00  0.00    +0.144 HD
ENDBRANCH   1  22
TORSDOF 6
ENDMDL
MODEL 3
REMARK VINA RESULT:      -2.7      3.084      5.750
REMARK  Name = *****
REMARK                            x       y       z     vdW  Elec       q    Type
REMARK                         _______ _______ _______ _____ _____    ______ ____
ROOT
ATOM      1  C6    A A  1       25.485 -13.806   3.760  0.00  0.00    +0.147 A 
ATOM      2  C5    A A  1       25.970 -15.116   3.601  0.00  0.00    +0.147 A 
ATOM      3  N7    A A  1       27.227 -15.613   3.333  0.00  0.00    -0.231 NA
ATOM      4  C8    A A  1       27.071 -16.921   3.300  0.00  0.00    +0.203 A 
ATOM      5  N9    A A  1       25.765 -17.290   3.518  0.00  0.00    -0.285 N 
ATOM      6  C4    A A  1       25.049 -16.145   3.747  0.00  0.00    +0.167 A 
ATOM      7  N3    A A  1       23.746 -16.023   4.049  0.00  0.00    -0.216 NA
ATOM      8  C2    A A  1       23.397 -14.723   4.173  0.00  0.00    +0.225 A 
ATOM      9  N1    A A  1       24.179 -13.630   4.058  0.00  0.00    -0.219 NA
ENDROOT
BRANCH   5  10
ATOM     10  C1*   A A  1       25.297 -18.665   3.509  0.00  0.00    +0.253 C 
ATOM     11  C2*   A A  1       25.592 -19.426   4.799  0.00  0.00    +0.195 C 
ATOM     12  C3*   A A  1       24.490 -20.475   4.781  0.00  0.00    +0.178 C 
ATOM     13  C4*   A A  1       23.309 -19.749   4.141  0.00  0.00    +0.177 C 
ATOM     14  O4*   A A  1       23.872 -18.730   3.279  0.00  0.00    -0.346 OA
BRANCH  11  15
ATOM     15  O2*   A A  1       26.888 -20.031   4.787  0.00  0.00    -0.385 OA
ATOM     16  H2*   A A  1       26.825 -20.784   4.161  0.00  0.00    +0.210 HD
ENDBRANCH  11  15
BRANCH  12  17
ATOM     17  O3*   A A  1       24.949 -21.572   3.961  0.00  0.00    -0.386 OA
ATOM     18  H3*   A A  1       25.809 -21.887   4.296  0.00  0.00    +0.210 HD
ENDBRANCH  12  17
BRANCH  13  19
ATOM     19  C5*   A A  1       22.364 -19.114   5.164  0.00  0.00    +0.190 C 
BRANCH  19  20
ATOM     20  O5*   A A  1       21.779 -17.922   4.662  0.00  0.00    -0.392 OA
ATOM     21  H5*   A A  1       20.823 -18.118   4.537  0.00  0.00    +0.209 HD
ENDBRANCH  19  20
ENDBRANCH  13  19
ENDBRANCH   5  10
BRANCH   1  22
ATOM     22  N6    A A  1       26.286 -12.675   3.653  0.00  0.00    -0.341 N 
ATOM     23  H61   A A  1       25.870 -11.945   3.086  0.00  0.00    +0.144 HD
ATOM     24  H62   A A  1       27.251 -12.917   3.467  0.00  0.00    +0.144 HD
ENDBRANCH   1  22
TORSDOF 6
ENDMDL
MODEL 4
REMARK VINA RESULT:      -2.6      3.380      5.983
REMARK  Name = *****
REMARK                            x       y       z     vdW  Elec       q    Type
REMARK                         _______ _______ _______ _____ _____    ______ ____
ROOT
ATOM      1  C6    A A  1       25.644 -14.666   3.455  0.00  0.00    +0.147 A 
ATOM      2  C5    A A  1       25.522 -16.066   3.451  0.00  0.00    +0.147 A 
ATOM      3  N7    A A  1       26.401 -17.073   3.116  0.00  0.00    -0.231 NA
ATOM      4  C8    A A  1       25.726 -18.187   3.314  0.00  0.00    +0.203 A 
ATOM      5  N9    A A  1       24.444 -17.945   3.746  0.00  0.00    -0.285 N 
ATOM      6  C4    A A  1       24.306 -16.589   3.873  0.00  0.00    +0.167 A 
ATOM      7  N3    A A  1       23.239 -15.896   4.307  0.00  0.00    -0.216 NA
ATOM      8  C2    A A  1       23.474 -14.566   4.261  0.00  0.00    +0.225 A 
ATOM      9  N1    A A  1       24.597 -13.925   3.877  0.00  0.00    -0.219 NA
ENDROOT
BRANCH   5  10
ATOM     10  C1*   A A  1       23.467 -18.985   4.017  0.00  0.00    +0.253 C 
ATOM     11  C2*   A A  1       23.997 -20.400   3.802  0.00  0.00    +0.195 C 
ATOM     12  C3*   A A  1       23.100 -21.196   4.737  0.00  0.00    +0.178 C 
ATOM     13  C4*   A A  1       22.859 -20.244   5.907  0.00  0.00    +0.177 C 
ATOM     14  O4*   A A  1       22.979 -18.902   5.374  0.00  0.00    -0.346 OA
BRANCH  11  15
ATOM     15  O2*   A A  1       23.852 -20.833   2.447  0.00  0.00    -0.385 OA
ATOM     16  H2*   A A  1       23.009 -20.442   2.130  0.00  0.00    +0.210 HD
ENDBRANCH  11  15
BRANCH  12  17
ATOM     17  O3*   A A  1       21.877 -21.484   4.025  0.00  0.00    -0.386 OA
ATOM     18  H3*   A A  1       21.967 -21.192   3.099  0.00  0.00    +0.210 HD
ENDBRANCH  12  17
BRANCH  13  19
ATOM     19  C5*   A A  1       23.843 -20.445   7.062  0.00  0.00    +0.190 C 
BRANCH  19  20
ATOM     20  O5*   A A  1       24.710 -21.543   6.822  0.00  0.00    -0.392 OA
ATOM     21  H5*   A A  1       24.145 -22.262   6.459  0.00  0.00    +0.209 HD
ENDBRANCH  19  20
ENDBRANCH  13  19
ENDBRANCH   5  10
BRANCH   1  22
ATOM     22  N6    A A  1       26.801 -13.998   3.069  0.00  0.00    -0.341 N 
ATOM     23  H61   A A  1       27.152 -14.299   2.167  0.00  0.00    +0.144 HD
ATOM     24  H62   A A  1       27.465 -13.933   3.830  0.00  0.00    +0.144 HD
ENDBRANCH   1  22
TORSDOF 6
ENDMDL
MODEL 5
REMARK VINA RESULT:      -2.5      1.363      2.221
REMARK  Name = *****
REMARK                            x       y       z     vdW  Elec       q    Type
REMARK                         _______ _______ _______ _____ _____    ______ ____
ROOT
ATOM      1  C6    A A  1       23.193 -19.599   4.473  0.00  0.00    +0.147 A 
ATOM      2  C5    A A  1       23.201 -18.196   4.377  0.00  0.00    +0.147 A 
ATOM      3  N7    A A  1       22.301 -17.233   4.779  0.00  0.00    -0.231 NA
ATOM      4  C8    A A  1       22.851 -16.090   4.424  0.00  0.00    +0.203 A 
ATOM      5  N9    A A  1       24.059 -16.272   3.794  0.00  0.00    -0.285 N 
ATOM      6  C4    A A  1       24.317 -17.617   3.786  0.00  0.00    +0.167 A 
ATOM      7  N3    A A  1       25.402 -18.255   3.315  0.00  0.00    -0.216 NA
ATOM      8  C2    A A  1       25.277 -19.593   3.458  0.00  0.00    +0.225 A 
ATOM      9  N1    A A  1       24.259 -20.286   4.008  0.00  0.00    -0.219 NA
ENDROOT
BRANCH   5  10
ATOM     10  C1*   A A  1       24.873 -15.189   3.270  0.00  0.00    +0.253 C 
ATOM     11  C2*   A A  1       24.322 -13.799   3.573  0.00  0.00    +0.195 C 
ATOM     12  C3*   A A  1       25.592 -12.963   3.537  0.00  0.00    +0.178 C 
ATOM     13  C4*   A A  1       26.659 -13.903   4.094  0.00  0.00    +0.177 C 
ATOM     14  O4*   A A  1       26.220 -15.249   3.791  0.00  0.00    -0.346 OA
BRANCH  11  15
ATOM     15  O2*   A A  1       23.382 -13.362   2.587  0.00  0.00    -0.385 OA
ATOM     16  H2*   A A  1       23.868 -13.368   1.734  0.00  0.00    +0.210 HD
ENDBRANCH  11  15
BRANCH  12  17
ATOM     17  O3*   A A  1       25.849 -12.623   2.158  0.00  0.00    -0.386 OA
ATOM     18  H3*   A A  1       26.755 -12.273   2.076  0.00  0.00    +0.210 HD
ENDBRANCH  12  17
BRANCH  13  19
ATOM     19  C5*   A A  1       26.878 -13.744   5.601  0.00  0.00    +0.190 C 
BRANCH  19  20
ATOM     20  O5*   A A  1       27.927 -12.829   5.880  0.00  0.00    -0.392 OA
ATOM     21  H5*   A A  1       27.740 -12.027   5.342  0.00  0.00    +0.209 HD
ENDBRANCH  19  20
ENDBRANCH  13  19
ENDBRANCH   5  10
BRANCH   1  22
ATOM     22  N6    A A  1       22.153 -20.320   5.047  0.00  0.00    -0.341 N 
ATOM     23  H61   A A  1       22.471 -21.122   5.579  0.00  0.00    +0.144 HD
ATOM     24  H62   A A  1       21.393 -20.463   4.395  0.00  0.00    +0.144 HD
ENDBRANCH   1  22
TORSDOF 6
ENDMDL
MODEL 6
REMARK VINA RESULT:      -1.9      1.395      3.188
REMARK  Name = *****
REMARK                            x       y       z     vdW  Elec       q    Type
REMARK                         _______ _______ _______ _____ _____    ______ ____
ROOT
ATOM      1  C6    A A  1       22.888 -18.653   4.056  0.00  0.00    +0.147 A 
ATOM      2  C5    A A  1       23.143 -17.288   4.275  0.00  0.00    +0.147 A 
ATOM      3  N7    A A  1       22.359 -16.263   4.759  0.00  0.00    -0.231 NA
ATOM      4  C8    A A  1       23.141 -15.204   4.740  0.00  0.00    +0.203 A 
ATOM      5  N9    A A  1       24.392 -15.494   4.249  0.00  0.00    -0.285 N 
ATOM      6  C4    A A  1       24.422 -16.836   3.977  0.00  0.00    +0.167 A 
ATOM      7  N3    A A  1       25.451 -17.571   3.523  0.00  0.00    -0.216 NA
ATOM      8  C2    A A  1       25.085 -18.861   3.348  0.00  0.00    +0.225 A 
ATOM      9  N1    A A  1       23.889 -19.433   3.593  0.00  0.00    -0.219 NA
ENDROOT
BRANCH   5  10
ATOM     10  C1*   A A  1       25.450 -14.512   4.088  0.00  0.00    +0.253 C 
ATOM     11  C2*   A A  1       26.294 -14.714   2.833  0.00  0.00    +0.195 C 
ATOM     12  C3*   A A  1       26.792 -13.299   2.582  0.00  0.00    +0.178 C 
ATOM     13  C4*   A A  1       25.628 -12.419   3.032  0.00  0.00    +0.177 C 
ATOM     14  O4*   A A  1       24.914 -13.170   4.044  0.00  0.00    -0.346 OA
BRANCH  11  15
ATOM     15  O2*   A A  1       27.380 -15.618   3.050  0.00  0.00    -0.385 OA
ATOM     16  H2*   A A  1       28.085 -15.343   2.426  0.00  0.00    +0.210 HD
ENDBRANCH  11  15
BRANCH  12  17
ATOM     17  O3*   A A  1       27.961 -13.098   3.405  0.00  0.00    -0.386 OA
ATOM     18  H3*   A A  1       27.750 -13.335   4.328  0.00  0.00    +0.210 HD
ENDBRANCH  12  17
BRANCH  13  19
ATOM     19  C5*   A A  1       24.682 -12.036   1.891  0.00  0.00    +0.190 C 
BRANCH  19  20
ATOM     20  O5*   A A  1       23.577 -12.923   1.812  0.00  0.00    -0.392 OA
ATOM     21  H5*   A A  1       23.485 -13.162   0.862  0.00  0.00    +0.209 HD
ENDBRANCH  19  20
ENDBRANCH  13  19
ENDBRANCH   5  10
BRANCH   1  22
ATOM     22  N6    A A  1       21.661 -19.253   4.316  0.00  0.00    -0.341 N 
ATOM     23  H61   A A  1       21.748 -20.158   4.763  0.00  0.00    +0.144 HD
ATOM     24  H62   A A  1       21.035 -19.181   3.524  0.00  0.00    +0.144 HD
ENDBRANCH   1  22
TORSDOF 6
ENDMDL
MODEL 7
REMARK VINA RESULT:      -1.7      1.771      2.946
REMARK  Name = *****
REMARK                            x       y       z     vdW  Elec       q    Type
REMARK                         _______ _______ _______ _____ _____    ______ ____
ROOT
ATOM      1  C6    A A  1       27.528 -19.722   5.197  0.00  0.00    +0.147 A 
ATOM      2  C5    A A  1       26.590 -18.925   4.517  0.00  0.00    +0.147 A 
ATOM      3  N7    A A  1       25.307 -19.171   4.081  0.00  0.00    -0.231 NA
ATOM      4  C8    A A  1       24.925 -18.047   3.510  0.00  0.00    +0.203 A 
ATOM      5  N9    A A  1       25.912 -17.090   3.542  0.00  0.00    -0.285 N 
ATOM      6  C4    A A  1       26.977 -17.625   4.215  0.00  0.00    +0.167 A 
ATOM      7  N3    A A  1       28.146 -17.040   4.526  0.00  0.00    -0.216 NA
ATOM      8  C2    A A  1       28.963 -17.902   5.172  0.00  0.00    +0.225 A 
ATOM      9  N1    A A  1       28.721 -19.181   5.527  0.00  0.00    -0.219 NA
ENDROOT
BRANCH   5  10
ATOM     10  C1*   A A  1       25.778 -15.766   2.961  0.00  0.00    +0.253 C 
ATOM     11  C2*   A A  1       25.166 -14.736   3.906  0.00  0.00    +0.195 C 
ATOM     12  C3*   A A  1       25.745 -13.444   3.350  0.00  0.00    +0.178 C 
ATOM     13  C4*   A A  1       27.135 -13.849   2.866  0.00  0.00    +0.177 C 
ATOM     14  O4*   A A  1       27.059 -15.255   2.527  0.00  0.00    -0.346 OA
BRANCH  11  15
ATOM     15  O2*   A A  1       23.737 -14.733   3.852  0.00  0.00    -0.385 OA
ATOM     16  H2*   A A  1       23.448 -14.026   4.468  0.00  0.00    +0.210 HD
ENDBRANCH  11  15
BRANCH  12  17
ATOM     17  O3*   A A  1       24.900 -13.027   2.255  0.00  0.00    -0.386 OA
ATOM     18  H3*   A A  1       24.041 -13.484   2.318  0.00  0.00    +0.210 HD
ENDBRANCH  12  17
BRANCH  13  19
ATOM     19  C5*   A A  1       28.231 -13.613   3.909  0.00  0.00    +0.190 C 
BRANCH  19  20
ATOM     20  O5*   A A  1       29.400 -13.064   3.320  0.00  0.00    -0.392 OA
ATOM     21  H5*   A A  1       29.266 -12.089   3.305  0.00  0.00    +0.209 HD
ENDBRANCH  19  20
ENDBRANCH  13  19
ENDBRANCH   5  10
BRANCH   1  22
ATOM     22  N6    A A  1       27.283 -21.037   5.575  0.00  0.00    -0.341 N 
ATOM     23  H61   A A  1       28.120 -21.532   5.859  0.00  0.00    +0.144 HD
ATOM     24  H62   A A  1       26.663 -21.503   4.925  0.00  0.00    +0.144 HD
ENDBRANCH   1  22
TORSDOF 6
ENDMDL
MODEL 8
REMARK VINA RESULT:      -1.0      3.422      6.137
REMARK  Name = *****
REMARK                            x       y       z     vdW  Elec       q    Type
REMARK                         _______ _______ _______ _____ _____    ______ ____
ROOT
ATOM      1  C6    A A  1       25.546 -14.754   3.667  0.00  0.00    +0.147 A 
ATOM      2  C5    A A  1       24.380 -15.478   3.972  0.00  0.00    +0.147 A 
ATOM      3  N7    A A  1       23.117 -15.084   4.356  0.00  0.00    -0.231 NA
ATOM      4  C8    A A  1       22.443 -16.207   4.497  0.00  0.00    +0.203 A 
ATOM      5  N9    A A  1       23.219 -17.311   4.237  0.00  0.00    -0.285 N 
ATOM      6  C4    A A  1       24.458 -16.861   3.865  0.00  0.00    +0.167 A 
ATOM      7  N3    A A  1       25.524 -17.580   3.477  0.00  0.00    -0.216 NA
ATOM      8  C2    A A  1       26.581 -16.778   3.217  0.00  0.00    +0.225 A 
ATOM      9  N1    A A  1       26.648 -15.433   3.280  0.00  0.00    -0.219 NA
ENDROOT
BRANCH   5  10
ATOM     10  C1*   A A  1       22.746 -18.680   4.342  0.00  0.00    +0.253 C 
ATOM     11  C2*   A A  1       23.750 -19.720   3.855  0.00  0.00    +0.195 C 
ATOM     12  C3*   A A  1       23.324 -20.941   4.655  0.00  0.00    +0.178 C 
ATOM     13  C4*   A A  1       22.858 -20.356   5.987  0.00  0.00    +0.177 C 
ATOM     14  O4*   A A  1       22.401 -19.010   5.706  0.00  0.00    -0.346 OA
BRANCH  11  15
ATOM     15  O2*   A A  1       23.646 -19.957   2.448  0.00  0.00    -0.385 OA
ATOM     16  H2*   A A  1       23.820 -20.915   2.325  0.00  0.00    +0.210 HD
ENDBRANCH  11  15
BRANCH  12  17
ATOM     17  O3*   A A  1       22.238 -21.571   3.941  0.00  0.00    -0.386 OA
ATOM     18  H3*   A A  1       21.573 -20.897   3.707  0.00  0.00    +0.210 HD
ENDBRANCH  12  17
BRANCH  13  19
ATOM     19  C5*   A A  1       23.955 -20.332   7.054  0.00  0.00    +0.190 C 
BRANCH  19  20
ATOM     20  O5*   A A  1       24.958 -21.301   6.790  0.00  0.00    -0.392 OA
ATOM     21  H5*   A A  1       25.637 -20.847   6.240  0.00  0.00    +0.209 HD
ENDBRANCH  19  20
ENDBRANCH  13  19
ENDBRANCH   5  10
BRANCH   1  22
ATOM     22  N6    A A  1       25.620 -13.367   3.720  0.00  0.00    -0.341 N 
ATOM     23  H61   A A  1       26.569 -13.017   3.659  0.00  0.00    +0.144 HD
ATOM     24  H62   A A  1       25.028 -12.989   4.448  0.00  0.00    +0.144 HD
ENDBRANCH   1  22
TORSDOF 6
ENDMDL
MODEL 9
REMARK VINA RESULT:      -0.9      1.403      2.667
REMARK  Name = *****
REMARK                            x       y       z     vdW  Elec       q    Type
REMARK                         _______ _______ _______ _____ _____    ______ ____
ROOT
ATOM      1  C6    A A  1       23.183 -18.759   4.065  0.00  0.00    +0.147 A 
ATOM      2  C5    A A  1       24.344 -18.027   3.762  0.00  0.00    +0.147 A 
ATOM      3  N7    A A  1       25.568 -18.399   3.248  0.00  0.00    -0.231 NA
ATOM      4  C8    A A  1       26.258 -17.279   3.181  0.00  0.00    +0.203 A 
ATOM      5  N9    A A  1       25.541 -16.201   3.645  0.00  0.00    -0.285 N 
ATOM      6  C4    A A  1       24.297 -16.657   3.990  0.00  0.00    +0.167 A 
ATOM      7  N3    A A  1       23.249 -15.953   4.450  0.00  0.00    -0.216 NA
ATOM      8  C2    A A  1       22.198 -16.762   4.709  0.00  0.00    +0.225 A 
ATOM      9  N1    A A  1       22.104 -18.097   4.537  0.00  0.00    -0.219 NA
ENDROOT
BRANCH   5  10
ATOM     10  C1*   A A  1       26.063 -14.848   3.715  0.00  0.00    +0.253 C 
ATOM     11  C2*   A A  1       26.316 -14.212   2.351  0.00  0.00    +0.195 C 
ATOM     12  C3*   A A  1       26.187 -12.734   2.685  0.00  0.00    +0.178 C 
ATOM     13  C4*   A A  1       25.109 -12.700   3.766  0.00  0.00    +0.177 C 
ATOM     14  O4*   A A  1       25.165 -13.980   4.442  0.00  0.00    -0.346 OA
BRANCH  11  15
ATOM     15  O2*   A A  1       27.617 -14.520   1.842  0.00  0.00    -0.385 OA
ATOM     16  H2*   A A  1       27.715 -15.493   1.933  0.00  0.00    +0.210 HD
ENDBRANCH  11  15
BRANCH  12  17
ATOM     17  O3*   A A  1       27.465 -12.291   3.193  0.00  0.00    -0.386 OA
ATOM     18  H3*   A A  1       28.093 -13.036   3.178  0.00  0.00    +0.210 HD
ENDBRANCH  12  17
BRANCH  13  19
ATOM     19  C5*   A A  1       23.704 -12.455   3.210  0.00  0.00    +0.190 C 
BRANCH  19  20
ATOM     20  O5*   A A  1       22.992 -13.671   3.042  0.00  0.00    -0.392 OA
ATOM     21  H5*   A A  1       23.435 -14.329   3.624  0.00  0.00    +0.209 HD
ENDBRANCH  19  20
ENDBRANCH  13  19
ENDBRANCH   5  10
BRANCH   1  22
ATOM     22  N6    A A  1       23.075 -20.132   3.881  0.00  0.00    -0.341 N 
ATOM     23  H61   A A  1       22.252 -20.400   3.354  0.00  0.00    +0.144 HD
ATOM     24  H62   A A  1       23.268 -20.640   4.735  0.00  0.00    +0.144 HD
ENDBRANCH   1  22
TORSDOF 6
ENDMDL
