MODEL 1
REMARK VINA RESULT:      -5.5      0.000      0.000
REMARK  Name = *****
REMARK                            x       y       z     vdW  Elec       q    Type
REMARK                         _______ _______ _______ _____ _____    ______ ____
ROOT
ATOM      1  O   LIG    1       27.490 -17.059   3.409  0.00  0.00    -0.270 OA
ATOM      2  C   LIG    1       26.268 -16.929   3.355  0.00  0.00    +0.244 C 
ATOM      3  N   LIG    1       25.397 -17.997   3.342  0.00  0.00    -0.310 N 
ATOM      4  H   LIG    1       24.413 -17.859   3.538  0.00  0.00    +0.149 HD
ENDROOT
BRANCH   2   5
ATOM      5  C   LIG    1       25.675 -15.563   3.313  0.00  0.00    +0.037 A 
ATOM      6  C   LIG    1       24.439 -15.350   3.942  0.00  0.00    +0.014 A 
ATOM      7  C   LIG    1       23.857 -14.078   3.950  0.00  0.00    +0.021 A 
ATOM      8  C   LIG    1       24.519 -13.013   3.342  0.00  0.00    +0.041 A 
ATOM      9 CL   LIG    1       23.808 -11.447   3.353  0.00  0.00    -0.084 Cl
ATOM     10  C   LIG    1       25.756 -13.208   2.729  0.00  0.00    +0.021 A 
ATOM     11  C   LIG    1       26.338 -14.482   2.715  0.00  0.00    +0.014 A 
ENDBRANCH   2   5
BRANCH   3  12
ATOM     12  C   LIG    1       25.883 -19.364   3.428  0.00  0.00    +0.120 C 
BRANCH  12  13
ATOM     13  C   LIG    1       25.913 -19.889   4.879  0.00  0.00    +0.103 C 
BRANCH  13  14
ATOM     14  N   LIG    1       25.351 -21.243   5.064  0.00  0.00    -0.296 NA
ATOM     15  C   LIG    1       25.079 -21.519   6.498  0.00  0.00    +0.112 C 
ATOM     16  C   LIG    1       23.783 -20.898   7.058  0.00  0.00    +0.175 C 
ATOM     17  O   LIG    1       22.647 -21.240   6.257  0.00  0.00    -0.377 OA
ATOM     18  C   LIG    1       22.847 -20.816   4.905  0.00  0.00    +0.175 C 
ATOM     19  C   LIG    1       24.100 -21.476   4.304  0.00  0.00    +0.112 C 
ENDBRANCH  13  14
ENDBRANCH  12  13
ENDBRANCH   3  12
TORSDOF 4
ENDMDL
MODEL 2
REMARK VINA RESULT:      -4.8      2.234      2.926
REMARK  Name = *****
REMARK                            x       y       z     vdW  Elec       q    Type
REMARK                         _______ _______ _______ _____ _____    ______ ____
ROOT
ATOM      1  O   LIG    1       22.372 -15.758   4.795  0.00  0.00    -0.270 OA
ATOM      2  C   LIG    1       23.378 -16.263   4.296  0.00  0.00    +0.244 C 
ATOM      3  N   LIG    1       23.457 -17.594   3.946  0.00  0.00    -0.310 N 
ATOM      4  H   LIG    1       24.192 -17.919   3.329  0.00  0.00    +0.149 HD
ENDROOT
BRANCH   2   5
ATOM      5  C   LIG    1       24.576 -15.416   4.038  0.00  0.00    +0.037 A 
ATOM      6  C   LIG    1       24.535 -14.065   4.417  0.00  0.00    +0.014 A 
ATOM      7  C   LIG    1       25.645 -13.238   4.218  0.00  0.00    +0.021 A 
ATOM      8  C   LIG    1       26.804 -13.765   3.652  0.00  0.00    +0.041 A 
ATOM      9 CL   LIG    1       28.173 -12.752   3.408  0.00  0.00    -0.084 Cl
ATOM     10  C   LIG    1       26.864 -15.110   3.288  0.00  0.00    +0.021 A 
ATOM     11  C   LIG    1       25.751 -15.938   3.481  0.00  0.00    +0.014 A 
ENDBRANCH   2   5
BRANCH   3  12
ATOM     12  C   LIG    1       22.322 -18.484   4.118  0.00  0.00    +0.120 C 
BRANCH  12  13
ATOM     13  C   LIG    1       22.455 -19.373   5.372  0.00  0.00    +0.103 C 
BRANCH  13  14
ATOM     14  N   LIG    1       22.798 -20.786   5.102  0.00  0.00    -0.296 NA
ATOM     15  C   LIG    1       23.971 -20.888   4.196  0.00  0.00    +0.112 C 
ATOM     16  C   LIG    1       25.344 -20.675   4.864  0.00  0.00    +0.175 C 
ATOM     17  O   LIG    1       25.514 -21.527   6.001  0.00  0.00    -0.377 OA
ATOM     18  C   LIG    1       24.469 -21.300   6.951  0.00  0.00    +0.175 C 
ATOM     19  C   LIG    1       23.090 -21.570   6.325  0.00  0.00    +0.112 C 
ENDBRANCH  13  14
ENDBRANCH  12  13
ENDBRANCH   3  12
TORSDOF 4
ENDMDL
MODEL 3
REMARK VINA RESULT:      -4.1      3.398      7.096
REMARK  Name = *****
REMARK                            x       y       z     vdW  Elec       q    Type
REMARK                         _______ _______ _______ _____ _____    ______ ____
ROOT
ATOM      1  O   LIG    1       27.072 -18.237   3.682  0.00  0.00    -0.270 OA
ATOM      2  C   LIG    1       25.927 -17.787   3.680  0.00  0.00    +0.244 C 
ATOM      3  N   LIG    1       25.638 -16.462   3.435  0.00  0.00    -0.310 N 
ATOM      4  H   LIG    1       24.695 -16.176   3.204  0.00  0.00    +0.149 HD
ENDROOT
BRANCH   2   5
ATOM      5  C   LIG    1       24.778 -18.700   3.939  0.00  0.00    +0.037 A 
ATOM      6  C   LIG    1       25.036 -20.068   4.110  0.00  0.00    +0.014 A 
ATOM      7  C   LIG    1       23.991 -20.959   4.381  0.00  0.00    +0.021 A 
ATOM      8  C   LIG    1       22.689 -20.479   4.495  0.00  0.00    +0.041 A 
ATOM      9 CL   LIG    1       21.402 -21.570   4.830  0.00  0.00    -0.084 Cl
ATOM     10  C   LIG    1       22.422 -19.118   4.344  0.00  0.00    +0.021 A 
ATOM     11  C   LIG    1       23.465 -18.226   4.067  0.00  0.00    +0.014 A 
ENDBRANCH   2   5
BRANCH   3  12
ATOM     12  C   LIG    1       26.692 -15.509   3.126  0.00  0.00    +0.120 C 
BRANCH  12  13
ATOM     13  C   LIG    1       26.179 -14.310   2.302  0.00  0.00    +0.103 C 
BRANCH  13  14
ATOM     14  N   LIG    1       26.302 -12.996   2.968  0.00  0.00    -0.296 NA
ATOM     15  C   LIG    1       25.615 -11.933   2.190  0.00  0.00    +0.112 C 
ATOM     16  C   LIG    1       24.082 -11.879   2.354  0.00  0.00    +0.175 C 
ATOM     17  O   LIG    1       23.702 -11.816   3.732  0.00  0.00    -0.377 OA
ATOM     18  C   LIG    1       24.230 -12.940   4.444  0.00  0.00    +0.175 C 
ATOM     19  C   LIG    1       25.764 -12.978   4.349  0.00  0.00    +0.112 C 
ENDBRANCH  13  14
ENDBRANCH  12  13
ENDBRANCH   3  12
TORSDOF 4
ENDMDL
MODEL 4
REMARK VINA RESULT:      -3.9      3.410      7.085
REMARK  Name = *****
REMARK                            x       y       z     vdW  Elec       q    Type
REMARK                         _______ _______ _______ _____ _____    ______ ____
ROOT
ATOM      1  O   LIG    1       27.055 -18.140   3.693  0.00  0.00    -0.270 OA
ATOM      2  C   LIG    1       25.893 -17.736   3.675  0.00  0.00    +0.244 C 
ATOM      3  N   LIG    1       25.553 -16.432   3.387  0.00  0.00    -0.310 N 
ATOM      4  H   LIG    1       24.599 -16.191   3.146  0.00  0.00    +0.149 HD
ENDROOT
BRANCH   2   5
ATOM      5  C   LIG    1       24.780 -18.684   3.963  0.00  0.00    +0.037 A 
ATOM      6  C   LIG    1       23.487 -18.166   4.136  0.00  0.00    +0.014 A 
ATOM      7  C   LIG    1       22.408 -19.022   4.382  0.00  0.00    +0.021 A 
ATOM      8  C   LIG    1       22.618 -20.397   4.442  0.00  0.00    +0.041 A 
ATOM      9 CL   LIG    1       21.293 -21.453   4.742  0.00  0.00    -0.084 Cl
ATOM     10  C   LIG    1       23.896 -20.925   4.254  0.00  0.00    +0.021 A 
ATOM     11  C   LIG    1       24.979 -20.070   4.013  0.00  0.00    +0.014 A 
ENDBRANCH   2   5
BRANCH   3  12
ATOM     12  C   LIG    1       26.569 -15.449   3.047  0.00  0.00    +0.120 C 
BRANCH  12  13
ATOM     13  C   LIG    1       25.985 -14.233   2.297  0.00  0.00    +0.103 C 
BRANCH  13  14
ATOM     14  N   LIG    1       26.168 -12.933   2.976  0.00  0.00    -0.296 NA
ATOM     15  C   LIG    1       25.481 -11.842   2.240  0.00  0.00    +0.112 C 
ATOM     16  C   LIG    1       23.958 -11.750   2.463  0.00  0.00    +0.175 C 
ATOM     17  O   LIG    1       23.632 -11.698   3.856  0.00  0.00    -0.377 OA
ATOM     18  C   LIG    1       24.156 -12.846   4.531  0.00  0.00    +0.175 C 
ATOM     19  C   LIG    1       25.685 -12.922   4.377  0.00  0.00    +0.112 C 
ENDBRANCH  13  14
ENDBRANCH  12  13
ENDBRANCH   3  12
TORSDOF 4
ENDMDL
MODEL 5
REMARK VINA RESULT:      -3.9      3.800      7.131
REMARK  Name = *****
REMARK                            x       y       z     vdW  Elec       q    Type
REMARK                         _______ _______ _______ _____ _____    ______ ____
ROOT
ATOM      1  O   LIG    1       22.327 -15.270   5.435  0.00  0.00    -0.270 OA
ATOM      2  C   LIG    1       23.106 -15.677   4.573  0.00  0.00    +0.244 C 
ATOM      3  N   LIG    1       23.881 -14.839   3.801  0.00  0.00    -0.310 N 
ATOM      4  H   LIG    1       24.671 -15.203   3.283  0.00  0.00    +0.149 HD
ENDROOT
BRANCH   2   5
ATOM      5  C   LIG    1       23.246 -17.143   4.343  0.00  0.00    +0.037 A 
ATOM      6  C   LIG    1       24.412 -17.614   3.721  0.00  0.00    +0.014 A 
ATOM      7  C   LIG    1       24.598 -18.984   3.507  0.00  0.00    +0.021 A 
ATOM      8  C   LIG    1       23.623 -19.886   3.929  0.00  0.00    +0.041 A 
ATOM      9 CL   LIG    1       23.849 -21.572   3.671  0.00  0.00    -0.084 Cl
ATOM     10  C   LIG    1       22.468 -19.431   4.565  0.00  0.00    +0.021 A 
ATOM     11  C   LIG    1       22.277 -18.059   4.774  0.00  0.00    +0.014 A 
ENDBRANCH   2   5
BRANCH   3  12
ATOM     12  C   LIG    1       23.845 -13.398   3.990  0.00  0.00    +0.120 C 
BRANCH  12  13
ATOM     13  C   LIG    1       25.202 -12.832   4.460  0.00  0.00    +0.103 C 
BRANCH  13  14
ATOM     14  N   LIG    1       26.210 -13.849   4.826  0.00  0.00    -0.296 NA
ATOM     15  C   LIG    1       26.764 -14.513   3.618  0.00  0.00    +0.112 C 
ATOM     16  C   LIG    1       27.840 -13.712   2.858  0.00  0.00    +0.175 C 
ATOM     17  O   LIG    1       28.896 -13.292   3.728  0.00  0.00    -0.377 OA
ATOM     18  C   LIG    1       28.370 -12.506   4.802  0.00  0.00    +0.175 C 
ATOM     19  C   LIG    1       27.341 -13.308   5.616  0.00  0.00    +0.112 C 
ENDBRANCH  13  14
ENDBRANCH  12  13
ENDBRANCH   3  12
TORSDOF 4
ENDMDL
MODEL 6
REMARK VINA RESULT:      -3.9      2.211      2.427
REMARK  Name = *****
REMARK                            x       y       z     vdW  Elec       q    Type
REMARK                         _______ _______ _______ _____ _____    ______ ____
ROOT
ATOM      1  O   LIG    1       24.302 -15.762   3.662  0.00  0.00    -0.270 OA
ATOM      2  C   LIG    1       25.514 -15.979   3.643  0.00  0.00    +0.244 C 
ATOM      3  N   LIG    1       26.052 -17.225   3.410  0.00  0.00    -0.310 N 
ATOM      4  H   LIG    1       27.030 -17.325   3.164  0.00  0.00    +0.149 HD
ENDROOT
BRANCH   2   5
ATOM      5  C   LIG    1       26.465 -14.854   3.866  0.00  0.00    +0.037 A 
ATOM      6  C   LIG    1       26.561 -14.305   5.154  0.00  0.00    +0.014 A 
ATOM      7  C   LIG    1       27.460 -13.265   5.417  0.00  0.00    +0.021 A 
ATOM      8  C   LIG    1       28.274 -12.784   4.394  0.00  0.00    +0.041 A 
ATOM      9 CL   LIG    1       29.382 -11.507   4.713  0.00  0.00    -0.084 Cl
ATOM     10  C   LIG    1       28.201 -13.333   3.114  0.00  0.00    +0.021 A 
ATOM     11  C   LIG    1       27.298 -14.370   2.848  0.00  0.00    +0.014 A 
ENDBRANCH   2   5
BRANCH   3  12
ATOM     12  C   LIG    1       25.201 -18.371   3.135  0.00  0.00    +0.120 C 
BRANCH  12  13
ATOM     13  C   LIG    1       25.575 -19.602   3.988  0.00  0.00    +0.103 C 
BRANCH  13  14
ATOM     14  N   LIG    1       24.546 -20.661   4.040  0.00  0.00    -0.296 NA
ATOM     15  C   LIG    1       24.771 -21.570   5.193  0.00  0.00    +0.112 C 
ATOM     16  C   LIG    1       24.297 -21.035   6.560  0.00  0.00    +0.175 C 
ATOM     17  O   LIG    1       22.931 -20.611   6.515  0.00  0.00    -0.377 OA
ATOM     18  C   LIG    1       22.757 -19.607   5.510  0.00  0.00    +0.175 C 
ATOM     19  C   LIG    1       23.161 -20.140   4.125  0.00  0.00    +0.112 C 
ENDBRANCH  13  14
ENDBRANCH  12  13
ENDBRANCH   3  12
TORSDOF 4
ENDMDL
MODEL 7
REMARK VINA RESULT:      -3.4      2.698      3.339
REMARK  Name = *****
REMARK                            x       y       z     vdW  Elec       q    Type
REMARK                         _______ _______ _______ _____ _____    ______ ____
ROOT
ATOM      1  O   LIG    1       22.889 -13.888   4.413  0.00  0.00    -0.270 OA
ATOM      2  C   LIG    1       23.800 -14.704   4.274  0.00  0.00    +0.244 C 
ATOM      3  N   LIG    1       23.596 -16.067   4.280  0.00  0.00    -0.310 N 
ATOM      4  H   LIG    1       24.310 -16.694   3.930  0.00  0.00    +0.149 HD
ENDROOT
BRANCH   2   5
ATOM      5  C   LIG    1       25.195 -14.222   4.076  0.00  0.00    +0.037 A 
ATOM      6  C   LIG    1       25.938 -13.838   5.203  0.00  0.00    +0.014 A 
ATOM      7  C   LIG    1       27.261 -13.404   5.068  0.00  0.00    +0.021 A 
ATOM      8  C   LIG    1       27.847 -13.367   3.805  0.00  0.00    +0.041 A 
ATOM      9 CL   LIG    1       29.475 -12.836   3.634  0.00  0.00    -0.084 Cl
ATOM     10  C   LIG    1       27.126 -13.762   2.679  0.00  0.00    +0.021 A 
ATOM     11  C   LIG    1       25.799 -14.192   2.812  0.00  0.00    +0.014 A 
ENDBRANCH   2   5
BRANCH   3  12
ATOM     12  C   LIG    1       22.262 -16.626   4.420  0.00  0.00    +0.120 C 
BRANCH  12  13
ATOM     13  C   LIG    1       22.258 -18.168   4.336  0.00  0.00    +0.103 C 
BRANCH  13  14
ATOM     14  N   LIG    1       23.444 -18.828   4.920  0.00  0.00    -0.296 NA
ATOM     15  C   LIG    1       23.062 -20.054   5.666  0.00  0.00    +0.112 C 
ATOM     16  C   LIG    1       22.789 -21.299   4.797  0.00  0.00    +0.175 C 
ATOM     17  O   LIG    1       23.879 -21.571   3.911  0.00  0.00    -0.377 OA
ATOM     18  C   LIG    1       24.132 -20.438   3.074  0.00  0.00    +0.175 C 
ATOM     19  C   LIG    1       24.472 -19.198   3.918  0.00  0.00    +0.112 C 
ENDBRANCH  13  14
ENDBRANCH  12  13
ENDBRANCH   3  12
TORSDOF 4
ENDMDL
MODEL 8
REMARK VINA RESULT:      -3.0      1.258      2.031
REMARK  Name = *****
REMARK                            x       y       z     vdW  Elec       q    Type
REMARK                         _______ _______ _______ _____ _____    ______ ____
ROOT
ATOM      1  O   LIG    1       27.422 -17.093   3.533  0.00  0.00    -0.270 OA
ATOM      2  C   LIG    1       26.201 -16.951   3.468  0.00  0.00    +0.244 C 
ATOM      3  N   LIG    1       25.316 -18.005   3.541  0.00  0.00    -0.310 N 
ATOM      4  H   LIG    1       24.334 -17.839   3.725  0.00  0.00    +0.149 HD
ENDROOT
BRANCH   2   5
ATOM      5  C   LIG    1       25.626 -15.585   3.316  0.00  0.00    +0.037 A 
ATOM      6  C   LIG    1       26.214 -14.711   2.388  0.00  0.00    +0.014 A 
ATOM      7  C   LIG    1       25.692 -13.428   2.193  0.00  0.00    +0.021 A 
ATOM      8  C   LIG    1       24.572 -13.023   2.915  0.00  0.00    +0.041 A 
ATOM      9 CL   LIG    1       23.925 -11.447   2.677  0.00  0.00    -0.084 Cl
ATOM     10  C   LIG    1       23.969 -13.888   3.828  0.00  0.00    +0.021 A 
ATOM     11  C   LIG    1       24.493 -15.171   4.029  0.00  0.00    +0.014 A 
ENDBRANCH   2   5
BRANCH   3  12
ATOM     12  C   LIG    1       25.785 -19.367   3.736  0.00  0.00    +0.120 C 
BRANCH  12  13
ATOM     13  C   LIG    1       24.625 -20.370   3.913  0.00  0.00    +0.103 C 
BRANCH  13  14
ATOM     14  N   LIG    1       23.779 -20.142   5.104  0.00  0.00    -0.296 NA
ATOM     15  C   LIG    1       23.117 -18.814   5.044  0.00  0.00    +0.112 C 
ATOM     16  C   LIG    1       21.871 -18.736   4.138  0.00  0.00    +0.175 C 
ATOM     17  O   LIG    1       20.921 -19.756   4.460  0.00  0.00    -0.377 OA
ATOM     18  C   LIG    1       21.525 -21.049   4.349  0.00  0.00    +0.175 C 
ATOM     19  C   LIG    1       22.732 -21.173   5.295  0.00  0.00    +0.112 C 
ENDBRANCH  13  14
ENDBRANCH  12  13
ENDBRANCH   3  12
TORSDOF 4
ENDMDL
MODEL 9
REMARK VINA RESULT:      -2.8      3.403      7.001
REMARK  Name = *****
REMARK                            x       y       z     vdW  Elec       q    Type
REMARK                         _______ _______ _______ _____ _____    ______ ____
ROOT
ATOM      1  O   LIG    1       26.943 -18.351   3.615  0.00  0.00    -0.270 OA
ATOM      2  C   LIG    1       25.798 -17.911   3.715  0.00  0.00    +0.244 C 
ATOM      3  N   LIG    1       25.488 -16.577   3.559  0.00  0.00    -0.310 N 
ATOM      4  H   LIG    1       24.529 -16.287   3.409  0.00  0.00    +0.149 HD
ENDROOT
BRANCH   2   5
ATOM      5  C   LIG    1       24.673 -18.845   4.004  0.00  0.00    +0.037 A 
ATOM      6  C   LIG    1       23.380 -18.315   4.132  0.00  0.00    +0.014 A 
ATOM      7  C   LIG    1       22.290 -19.158   4.378  0.00  0.00    +0.021 A 
ATOM      8  C   LIG    1       22.491 -20.532   4.480  0.00  0.00    +0.041 A 
ATOM      9 CL   LIG    1       21.153 -21.571   4.779  0.00  0.00    -0.084 Cl
ATOM     10  C   LIG    1       23.769 -21.072   4.337  0.00  0.00    +0.021 A 
ATOM     11  C   LIG    1       24.862 -20.230   4.097  0.00  0.00    +0.014 A 
ENDBRANCH   2   5
BRANCH   3  12
ATOM     12  C   LIG    1       26.513 -15.602   3.229  0.00  0.00    +0.120 C 
BRANCH  12  13
ATOM     13  C   LIG    1       25.955 -14.410   2.423  0.00  0.00    +0.103 C 
BRANCH  13  14
ATOM     14  N   LIG    1       25.942 -13.120   3.144  0.00  0.00    -0.296 NA
ATOM     15  C   LIG    1       25.729 -13.323   4.600  0.00  0.00    +0.112 C 
ATOM     16  C   LIG    1       26.975 -13.762   5.396  0.00  0.00    +0.175 C 
ATOM     17  O   LIG    1       28.081 -12.883   5.169  0.00  0.00    -0.377 OA
ATOM     18  C   LIG    1       28.390 -12.825   3.773  0.00  0.00    +0.175 C 
ATOM     19  C   LIG    1       27.180 -12.325   2.965  0.00  0.00    +0.112 C 
ENDBRANCH  13  14
ENDBRANCH  12  13
ENDBRANCH   3  12
TORSDOF 4
ENDMDL
