MODEL 1
REMARK VINA RESULT:      -7.2      0.000      0.000
REMARK  Name = *****
REMARK                            x       y       z     vdW  Elec       q    Type
REMARK                         _______ _______ _______ _____ _____    ______ ____
ROOT
ATOM      1  C   LIG    1       25.400 -22.201   7.311  0.00  0.00    +0.282 A 
ATOM      2  C   LIG    1       25.205 -23.561   6.949  0.00  0.00    +0.081 A 
ATOM      3  C   LIG    1       23.889 -23.979   6.649  0.00  0.00    +0.119 A 
ATOM      4  N   LIG    1       23.617 -25.255   6.294  0.00  0.00    -0.251 NA
ATOM      5  C   LIG    1       24.620 -26.151   6.218  0.00  0.00    +0.111 A 
ATOM      6  C   LIG    1       25.934 -25.844   6.482  0.00  0.00    +0.020 A 
ATOM      7  C   LIG    1       22.854 -23.028   6.721  0.00  0.00    +0.143 A 
ATOM      8  C   LIG    1       23.069 -21.692   7.073  0.00  0.00    +0.054 A 
ATOM      9  C   LIG    1       26.229 -24.537   6.848  0.00  0.00    +0.018 A 
ATOM     10  C   LIG    1       24.356 -21.271   7.369  0.00  0.00    +0.088 A 
ENDROOT
BRANCH   1  12
ATOM     11  O   LIG    1       27.429 -21.318   6.702  0.00  0.00    +0.042 OA
ATOM     12  N   LIG    1       26.726 -21.709   7.642  0.00  0.00    +0.080 N 
ATOM     13  O   LIG    1       27.044 -21.687   8.838  0.00  0.00    -0.576 OA
ENDBRANCH   1  12
BRANCH   7  14
ATOM     14  O   LIG    1       21.569 -23.428   6.431  0.00  0.00    -0.505 OA
ATOM     15  H   LIG    1       21.537 -24.388   6.307  0.00  0.00    +0.292 HD
ENDBRANCH   7  14
TORSDOF 2
ENDMDL
MODEL 2
REMARK VINA RESULT:      -7.0      1.849      1.931
REMARK  Name = *****
REMARK                            x       y       z     vdW  Elec       q    Type
REMARK                         _______ _______ _______ _____ _____    ______ ____
ROOT
ATOM      1  C   LIG    1       25.743 -21.680   7.245  0.00  0.00    +0.282 A 
ATOM      2  C   LIG    1       25.552 -22.960   6.660  0.00  0.00    +0.081 A 
ATOM      3  C   LIG    1       24.930 -23.017   5.393  0.00  0.00    +0.119 A 
ATOM      4  N   LIG    1       24.711 -24.194   4.765  0.00  0.00    -0.251 NA
ATOM      5  C   LIG    1       25.098 -25.342   5.355  0.00  0.00    +0.111 A 
ATOM      6  C   LIG    1       25.718 -25.395   6.581  0.00  0.00    +0.020 A 
ATOM      7  C   LIG    1       24.542 -21.808   4.784  0.00  0.00    +0.143 A 
ATOM      8  C   LIG    1       24.748 -20.558   5.375  0.00  0.00    +0.054 A 
ATOM      9  C   LIG    1       25.948 -24.192   7.238  0.00  0.00    +0.018 A 
ATOM     10  C   LIG    1       25.357 -20.489   6.618  0.00  0.00    +0.088 A 
ENDROOT
BRANCH   1  12
ATOM     11  O   LIG    1       27.604 -21.512   8.579  0.00  0.00    +0.042 OA
ATOM     12  N   LIG    1       26.367 -21.552   8.551  0.00  0.00    +0.080 N 
ATOM     13  O   LIG    1       25.620 -21.459   9.533  0.00  0.00    -0.576 OA
ENDBRANCH   1  12
BRANCH   7  14
ATOM     14  O   LIG    1       23.935 -21.855   3.550  0.00  0.00    -0.505 OA
ATOM     15  H   LIG    1       23.916 -22.766   3.221  0.00  0.00    +0.292 HD
ENDBRANCH   7  14
TORSDOF 2
ENDMDL
MODEL 3
REMARK VINA RESULT:      -6.7      3.229      4.148
REMARK  Name = *****
REMARK                            x       y       z     vdW  Elec       q    Type
REMARK                         _______ _______ _______ _____ _____    ______ ____
ROOT
ATOM      1  C   LIG    1       25.996 -20.813   7.238  0.00  0.00    +0.282 A 
ATOM      2  C   LIG    1       24.764 -20.933   6.541  0.00  0.00    +0.081 A 
ATOM      3  C   LIG    1       24.715 -20.471   5.207  0.00  0.00    +0.119 A 
ATOM      4  N   LIG    1       23.583 -20.548   4.472  0.00  0.00    -0.251 NA
ATOM      5  C   LIG    1       22.473 -21.083   5.019  0.00  0.00    +0.111 A 
ATOM      6  C   LIG    1       22.418 -21.567   6.304  0.00  0.00    +0.020 A 
ATOM      7  C   LIG    1       25.886 -19.926   4.646  0.00  0.00    +0.143 A 
ATOM      8  C   LIG    1       27.091 -19.825   5.348  0.00  0.00    +0.054 A 
ATOM      9  C   LIG    1       23.574 -21.493   7.071  0.00  0.00    +0.018 A 
ATOM     10  C   LIG    1       27.151 -20.275   6.658  0.00  0.00    +0.088 A 
ENDROOT
BRANCH   1  12
ATOM     11  O   LIG    1       25.952 -20.404   9.496  0.00  0.00    +0.042 OA
ATOM     12  N   LIG    1       26.110 -21.260   8.616  0.00  0.00    +0.080 N 
ATOM     13  O   LIG    1       26.322 -22.463   8.810  0.00  0.00    -0.576 OA
ENDBRANCH   1  12
BRANCH   7  14
ATOM     14  O   LIG    1       25.848 -19.473   3.347  0.00  0.00    -0.505 OA
ATOM     15  H   LIG    1       25.280 -20.046   2.810  0.00  0.00    +0.292 HD
ENDBRANCH   7  14
TORSDOF 2
ENDMDL
MODEL 4
REMARK VINA RESULT:      -6.7      3.549      4.936
REMARK  Name = *****
REMARK                            x       y       z     vdW  Elec       q    Type
REMARK                         _______ _______ _______ _____ _____    ______ ____
ROOT
ATOM      1  C   LIG    1       25.298 -20.345   5.534  0.00  0.00    +0.282 A 
ATOM      2  C   LIG    1       26.587 -20.215   6.114  0.00  0.00    +0.081 A 
ATOM      3  C   LIG    1       26.719 -20.488   7.494  0.00  0.00    +0.119 A 
ATOM      4  N   LIG    1       27.911 -20.390   8.124  0.00  0.00    -0.251 NA
ATOM      5  C   LIG    1       29.003 -20.027   7.424  0.00  0.00    +0.111 A 
ATOM      6  C   LIG    1       28.984 -19.747   6.078  0.00  0.00    +0.020 A 
ATOM      7  C   LIG    1       25.571 -20.878   8.209  0.00  0.00    +0.143 A 
ATOM      8  C   LIG    1       24.311 -21.008   7.616  0.00  0.00    +0.054 A 
ATOM      9  C   LIG    1       27.765 -19.843   5.417  0.00  0.00    +0.018 A 
ATOM     10  C   LIG    1       24.170 -20.741   6.264  0.00  0.00    +0.088 A 
ENDROOT
BRANCH   1  12
ATOM     11  O   LIG    1       24.594 -20.972   3.441  0.00  0.00    +0.042 OA
ATOM     12  N   LIG    1       25.092 -20.067   4.123  0.00  0.00    +0.080 N 
ATOM     13  O   LIG    1       25.397 -18.940   3.713  0.00  0.00    -0.576 OA
ENDBRANCH   1  12
BRANCH   7  14
ATOM     14  O   LIG    1       25.690 -21.147   9.554  0.00  0.00    -0.505 OA
ATOM     15  H   LIG    1       26.615 -21.066   9.831  0.00  0.00    +0.292 HD
ENDBRANCH   7  14
TORSDOF 2
ENDMDL
MODEL 5
REMARK VINA RESULT:      -6.7      2.197      3.498
REMARK  Name = *****
REMARK                            x       y       z     vdW  Elec       q    Type
REMARK                         _______ _______ _______ _____ _____    ______ ____
ROOT
ATOM      1  C   LIG    1       26.001 -22.170   7.394  0.00  0.00    +0.282 A 
ATOM      2  C   LIG    1       25.408 -21.660   6.209  0.00  0.00    +0.081 A 
ATOM      3  C   LIG    1       24.883 -22.589   5.283  0.00  0.00    +0.119 A 
ATOM      4  N   LIG    1       24.300 -22.188   4.131  0.00  0.00    -0.251 NA
ATOM      5  C   LIG    1       24.212 -20.871   3.856  0.00  0.00    +0.111 A 
ATOM      6  C   LIG    1       24.684 -19.887   4.693  0.00  0.00    +0.020 A 
ATOM      7  C   LIG    1       24.973 -23.960   5.590  0.00  0.00    +0.143 A 
ATOM      8  C   LIG    1       25.555 -24.440   6.768  0.00  0.00    +0.054 A 
ATOM      9  C   LIG    1       25.285 -20.286   5.880  0.00  0.00    +0.018 A 
ATOM     10  C   LIG    1       26.073 -23.538   7.682  0.00  0.00    +0.088 A 
ENDROOT
BRANCH   1  12
ATOM     11  O   LIG    1       25.813 -20.866   9.274  0.00  0.00    +0.042 OA
ATOM     12  N   LIG    1       26.570 -21.268   8.381  0.00  0.00    +0.080 N 
ATOM     13  O   LIG    1       27.772 -20.995   8.278  0.00  0.00    -0.576 OA
ENDBRANCH   1  12
BRANCH   7  14
ATOM     14  O   LIG    1       24.464 -24.872   4.694  0.00  0.00    -0.505 OA
ATOM     15  H   LIG    1       24.537 -24.530   3.790  0.00  0.00    +0.292 HD
ENDBRANCH   7  14
TORSDOF 2
ENDMDL
MODEL 6
REMARK VINA RESULT:      -6.6      3.144      4.677
REMARK  Name = *****
REMARK                            x       y       z     vdW  Elec       q    Type
REMARK                         _______ _______ _______ _____ _____    ______ ____
ROOT
ATOM      1  C   LIG    1       24.208 -21.323   6.130  0.00  0.00    +0.282 A 
ATOM      2  C   LIG    1       25.580 -20.986   6.274  0.00  0.00    +0.081 A 
ATOM      3  C   LIG    1       26.162 -20.163   5.284  0.00  0.00    +0.119 A 
ATOM      4  N   LIG    1       27.461 -19.794   5.346  0.00  0.00    -0.251 NA
ATOM      5  C   LIG    1       28.222 -20.214   6.376  0.00  0.00    +0.111 A 
ATOM      6  C   LIG    1       27.751 -21.010   7.393  0.00  0.00    +0.020 A 
ATOM      7  C   LIG    1       25.352 -19.723   4.221  0.00  0.00    +0.143 A 
ATOM      8  C   LIG    1       24.000 -20.061   4.103  0.00  0.00    +0.054 A 
ATOM      9  C   LIG    1       26.417 -21.397   7.343  0.00  0.00    +0.018 A 
ATOM     10  C   LIG    1       23.418 -20.867   5.068  0.00  0.00    +0.088 A 
ENDROOT
BRANCH   1  12
ATOM     11  O   LIG    1       23.085 -21.619   8.111  0.00  0.00    +0.042 OA
ATOM     12  N   LIG    1       23.551 -22.174   7.108  0.00  0.00    +0.080 N 
ATOM     13  O   LIG    1       23.477 -23.383   6.853  0.00  0.00    -0.576 OA
ENDBRANCH   1  12
BRANCH   7  14
ATOM     14  O   LIG    1       25.911 -18.922   3.251  0.00  0.00    -0.505 OA
ATOM     15  H   LIG    1       25.439 -18.076   3.203  0.00  0.00    +0.292 HD
ENDBRANCH   7  14
TORSDOF 2
ENDMDL
MODEL 7
REMARK VINA RESULT:      -6.5      4.646      6.360
REMARK  Name = *****
REMARK                            x       y       z     vdW  Elec       q    Type
REMARK                         _______ _______ _______ _____ _____    ______ ____
ROOT
ATOM      1  C   LIG    1       30.717 -20.839   8.215  0.00  0.00    +0.282 A 
ATOM      2  C   LIG    1       29.399 -20.906   7.689  0.00  0.00    +0.081 A 
ATOM      3  C   LIG    1       28.995 -19.888   6.796  0.00  0.00    +0.119 A 
ATOM      4  N   LIG    1       27.759 -19.877   6.249  0.00  0.00    -0.251 NA
ATOM      5  C   LIG    1       26.889 -20.860   6.555  0.00  0.00    +0.111 A 
ATOM      6  C   LIG    1       27.186 -21.899   7.405  0.00  0.00    +0.020 A 
ATOM      7  C   LIG    1       29.919 -18.875   6.477  0.00  0.00    +0.143 A 
ATOM      8  C   LIG    1       31.215 -18.833   7.001  0.00  0.00    +0.054 A 
ATOM      9  C   LIG    1       28.453 -21.923   7.975  0.00  0.00    +0.018 A 
ATOM     10  C   LIG    1       31.622 -19.826   7.878  0.00  0.00    +0.088 A 
ENDROOT
BRANCH   1  12
ATOM     11  O   LIG    1       32.033 -22.650   8.722  0.00  0.00    +0.042 OA
ATOM     12  N   LIG    1       31.191 -21.848   9.146  0.00  0.00    +0.080 N 
ATOM     13  O   LIG    1       30.745 -21.814  10.300  0.00  0.00    -0.576 OA
ENDBRANCH   1  12
BRANCH   7  14
ATOM     14  O   LIG    1       29.534 -17.879   5.608  0.00  0.00    -0.505 OA
ATOM     15  H   LIG    1       30.089 -17.894   4.815  0.00  0.00    +0.292 HD
ENDBRANCH   7  14
TORSDOF 2
ENDMDL
MODEL 8
REMARK VINA RESULT:      -6.5      4.356      5.972
REMARK  Name = *****
REMARK                            x       y       z     vdW  Elec       q    Type
REMARK                         _______ _______ _______ _____ _____    ______ ____
ROOT
ATOM      1  C   LIG    1       30.296 -20.139   7.775  0.00  0.00    +0.282 A 
ATOM      2  C   LIG    1       28.967 -20.516   7.443  0.00  0.00    +0.081 A 
ATOM      3  C   LIG    1       28.359 -19.877   6.340  0.00  0.00    +0.119 A 
ATOM      4  N   LIG    1       27.098 -20.178   5.955  0.00  0.00    -0.251 NA
ATOM      5  C   LIG    1       26.403 -21.112   6.634  0.00  0.00    +0.111 A 
ATOM      6  C   LIG    1       26.905 -21.796   7.716  0.00  0.00    +0.020 A 
ATOM      7  C   LIG    1       29.102 -18.913   5.634  0.00  0.00    +0.143 A 
ATOM      8  C   LIG    1       30.413 -18.563   5.973  0.00  0.00    +0.054 A 
ATOM      9  C   LIG    1       28.200 -21.496   8.122  0.00  0.00    +0.018 A 
ATOM     10  C   LIG    1       31.020 -19.182   7.054  0.00  0.00    +0.088 A 
ENDROOT
BRANCH   1  12
ATOM     11  O   LIG    1       31.581 -21.807   8.689  0.00  0.00    +0.042 OA
ATOM     12  N   LIG    1       30.975 -20.750   8.905  0.00  0.00    +0.080 N 
ATOM     13  O   LIG    1       30.925 -20.155   9.990  0.00  0.00    -0.576 OA
ENDBRANCH   1  12
BRANCH   7  14
ATOM     14  O   LIG    1       28.517 -18.285   4.557  0.00  0.00    -0.505 OA
ATOM     15  H   LIG    1       27.742 -18.785   4.259  0.00  0.00    +0.292 HD
ENDBRANCH   7  14
TORSDOF 2
ENDMDL
MODEL 9
REMARK VINA RESULT:      -6.4      2.434      3.596
REMARK  Name = *****
REMARK                            x       y       z     vdW  Elec       q    Type
REMARK                         _______ _______ _______ _____ _____    ______ ____
ROOT
ATOM      1  C   LIG    1       26.703 -21.514   6.874  0.00  0.00    +0.282 A 
ATOM      2  C   LIG    1       25.905 -21.089   5.779  0.00  0.00    +0.081 A 
ATOM      3  C   LIG    1       24.780 -21.873   5.442  0.00  0.00    +0.119 A 
ATOM      4  N   LIG    1       23.967 -21.539   4.415  0.00  0.00    -0.251 NA
ATOM      5  C   LIG    1       24.229 -20.430   3.695  0.00  0.00    +0.111 A 
ATOM      6  C   LIG    1       25.293 -19.596   3.945  0.00  0.00    +0.020 A 
ATOM      7  C   LIG    1       24.513 -23.022   6.210  0.00  0.00    +0.143 A 
ATOM      8  C   LIG    1       25.308 -23.418   7.290  0.00  0.00    +0.054 A 
ATOM      9  C   LIG    1       26.137 -19.928   4.998  0.00  0.00    +0.018 A 
ATOM     10  C   LIG    1       26.415 -22.656   7.630  0.00  0.00    +0.088 A 
ENDROOT
BRANCH   1  12
ATOM     11  O   LIG    1       27.772 -20.024   8.256  0.00  0.00    +0.042 OA
ATOM     12  N   LIG    1       27.881 -20.758   7.265  0.00  0.00    +0.080 N 
ATOM     13  O   LIG    1       28.913 -20.926   6.603  0.00  0.00    -0.576 OA
ENDBRANCH   1  12
BRANCH   7  14
ATOM     14  O   LIG    1       23.418 -23.792   5.889  0.00  0.00    -0.505 OA
ATOM     15  H   LIG    1       23.427 -24.007   4.944  0.00  0.00    +0.292 HD
ENDBRANCH   7  14
TORSDOF 2
ENDMDL
