MODEL 1
REMARK VINA RESULT:      -5.3      0.000      0.000
REMARK  Name = *****
REMARK                            x       y       z     vdW  Elec       q    Type
REMARK                         _______ _______ _______ _____ _____    ______ ____
ROOT
ATOM      1  C   LIG    1       30.988 -20.132   8.219  0.00  0.00    +0.120 A 
ATOM      2  C   LIG    1       30.937 -19.118   7.269  0.00  0.00    +0.090 A 
ATOM      3  C   LIG    1       29.904 -19.108   6.340  0.00  0.00    +0.120 A 
ATOM      4  C   LIG    1       28.917 -20.092   6.359  0.00  0.00    +0.045 A 
ATOM      5  C   LIG    1       28.973 -21.102   7.322  0.00  0.00    +0.007 A 
ATOM      6  C   LIG    1       30.011 -21.125   8.255  0.00  0.00    +0.045 A 
ENDROOT
BRANCH   1   7
ATOM      7  O   LIG    1       32.023 -20.123   9.106  0.00  0.00    -0.507 OA
ATOM      8  H   LIG    1       31.859 -20.803   9.780  0.00  0.00    +0.292 HD
ENDBRANCH   1   7
BRANCH   3   9
ATOM      9  O   LIG    1       29.890 -18.109   5.412  0.00  0.00    -0.507 OA
ATOM     10  H   LIG    1       29.942 -18.506   4.527  0.00  0.00    +0.292 HD
ENDBRANCH   3   9
TORSDOF 2
ENDMDL
MODEL 2
REMARK VINA RESULT:      -5.3      0.015      2.910
REMARK  Name = *****
REMARK                            x       y       z     vdW  Elec       q    Type
REMARK                         _______ _______ _______ _____ _____    ______ ____
ROOT
ATOM      1  C   LIG    1       29.905 -19.119   6.335  0.00  0.00    +0.120 A 
ATOM      2  C   LIG    1       30.949 -19.142   7.253  0.00  0.00    +0.090 A 
ATOM      3  C   LIG    1       30.989 -20.147   8.211  0.00  0.00    +0.120 A 
ATOM      4  C   LIG    1       30.005 -21.134   8.252  0.00  0.00    +0.045 A 
ATOM      5  C   LIG    1       28.966 -21.106   7.320  0.00  0.00    +0.007 A 
ATOM      6  C   LIG    1       28.912 -20.096   6.358  0.00  0.00    +0.045 A 
ENDROOT
BRANCH   1   7
ATOM      7  O   LIG    1       29.886 -18.110   5.417  0.00  0.00    -0.507 OA
ATOM      8  H   LIG    1       29.614 -18.477   4.559  0.00  0.00    +0.292 HD
ENDBRANCH   1   7
BRANCH   3   9
ATOM      9  O   LIG    1       32.016 -20.134   9.107  0.00  0.00    -0.507 OA
ATOM     10  H   LIG    1       32.629 -20.855   8.889  0.00  0.00    +0.292 HD
ENDBRANCH   3   9
TORSDOF 2
ENDMDL
MODEL 3
REMARK VINA RESULT:      -5.2      4.050      5.286
REMARK  Name = *****
REMARK                            x       y       z     vdW  Elec       q    Type
REMARK                         _______ _______ _______ _____ _____    ______ ____
ROOT
ATOM      1  C   LIG    1       26.513 -20.385   5.838  0.00  0.00    +0.120 A 
ATOM      2  C   LIG    1       26.716 -20.465   7.211  0.00  0.00    +0.090 A 
ATOM      3  C   LIG    1       25.627 -20.677   8.048  0.00  0.00    +0.120 A 
ATOM      4  C   LIG    1       24.344 -20.822   7.525  0.00  0.00    +0.045 A 
ATOM      5  C   LIG    1       24.152 -20.748   6.144  0.00  0.00    +0.007 A 
ATOM      6  C   LIG    1       25.238 -20.527   5.296  0.00  0.00    +0.045 A 
ENDROOT
BRANCH   1   7
ATOM      7  O   LIG    1       27.600 -20.160   5.045  0.00  0.00    -0.507 OA
ATOM      8  H   LIG    1       27.291 -19.918   4.157  0.00  0.00    +0.292 HD
ENDBRANCH   1   7
BRANCH   3   9
ATOM      9  O   LIG    1       25.856 -20.735   9.391  0.00  0.00    -0.507 OA
ATOM     10  H   LIG    1       26.477 -20.029   9.631  0.00  0.00    +0.292 HD
ENDBRANCH   3   9
TORSDOF 2
ENDMDL
MODEL 4
REMARK VINA RESULT:      -5.2      5.504      6.861
REMARK  Name = *****
REMARK                            x       y       z     vdW  Elec       q    Type
REMARK                         _______ _______ _______ _____ _____    ______ ____
ROOT
ATOM      1  C   LIG    1       25.281 -20.175   4.705  0.00  0.00    +0.120 A 
ATOM      2  C   LIG    1       24.943 -20.717   5.940  0.00  0.00    +0.090 A 
ATOM      3  C   LIG    1       23.638 -20.597   6.400  0.00  0.00    +0.120 A 
ATOM      4  C   LIG    1       22.667 -19.954   5.634  0.00  0.00    +0.045 A 
ATOM      5  C   LIG    1       23.015 -19.420   4.392  0.00  0.00    +0.007 A 
ATOM      6  C   LIG    1       24.326 -19.528   3.924  0.00  0.00    +0.045 A 
ENDROOT
BRANCH   1   7
ATOM      7  O   LIG    1       26.574 -20.296   4.289  0.00  0.00    -0.507 OA
ATOM      8  H   LIG    1       26.579 -20.428   3.326  0.00  0.00    +0.292 HD
ENDBRANCH   1   7
BRANCH   3   9
ATOM      9  O   LIG    1       23.340 -21.125   7.622  0.00  0.00    -0.507 OA
ATOM     10  H   LIG    1       22.533 -21.659   7.542  0.00  0.00    +0.292 HD
ENDBRANCH   3   9
TORSDOF 2
ENDMDL
MODEL 5
REMARK VINA RESULT:      -5.2      5.484      6.665
REMARK  Name = *****
REMARK                            x       y       z     vdW  Elec       q    Type
REMARK                         _______ _______ _______ _____ _____    ______ ____
ROOT
ATOM      1  C   LIG    1       23.610 -20.632   6.411  0.00  0.00    +0.120 A 
ATOM      2  C   LIG    1       24.930 -20.744   5.992  0.00  0.00    +0.090 A 
ATOM      3  C   LIG    1       25.302 -20.207   4.766  0.00  0.00    +0.120 A 
ATOM      4  C   LIG    1       24.371 -19.550   3.963  0.00  0.00    +0.045 A 
ATOM      5  C   LIG    1       23.049 -19.437   4.397  0.00  0.00    +0.007 A 
ATOM      6  C   LIG    1       22.663 -19.980   5.624  0.00  0.00    +0.045 A 
ENDROOT
BRANCH   1   7
ATOM      7  O   LIG    1       23.274 -21.184   7.613  0.00  0.00    -0.507 OA
ATOM      8  H   LIG    1       22.306 -21.258   7.660  0.00  0.00    +0.292 HD
ENDBRANCH   1   7
BRANCH   3   9
ATOM      9  O   LIG    1       26.601 -20.346   4.375  0.00  0.00    -0.507 OA
ATOM     10  H   LIG    1       27.173 -19.951   5.053  0.00  0.00    +0.292 HD
ENDBRANCH   3   9
TORSDOF 2
ENDMDL
MODEL 6
REMARK VINA RESULT:      -5.2      4.015      4.740
REMARK  Name = *****
REMARK                            x       y       z     vdW  Elec       q    Type
REMARK                         _______ _______ _______ _____ _____    ______ ____
ROOT
ATOM      1  C   LIG    1       25.647 -20.671   8.057  0.00  0.00    +0.120 A 
ATOM      2  C   LIG    1       26.750 -20.442   7.243  0.00  0.00    +0.090 A 
ATOM      3  C   LIG    1       26.575 -20.372   5.866  0.00  0.00    +0.120 A 
ATOM      4  C   LIG    1       25.310 -20.517   5.299  0.00  0.00    +0.045 A 
ATOM      5  C   LIG    1       24.208 -20.740   6.127  0.00  0.00    +0.007 A 
ATOM      6  C   LIG    1       24.374 -20.819   7.511  0.00  0.00    +0.045 A 
ENDROOT
BRANCH   1   7
ATOM      7  O   LIG    1       25.854 -20.750   9.403  0.00  0.00    -0.507 OA
ATOM      8  H   LIG    1       26.698 -20.315   9.613  0.00  0.00    +0.292 HD
ENDBRANCH   1   7
BRANCH   3   9
ATOM      9  O   LIG    1       27.678 -20.161   5.092  0.00  0.00    -0.507 OA
ATOM     10  H   LIG    1       28.470 -20.277   5.642  0.00  0.00    +0.292 HD
ENDBRANCH   3   9
TORSDOF 2
ENDMDL
MODEL 7
REMARK VINA RESULT:      -5.2      5.922      7.143
REMARK  Name = *****
REMARK                            x       y       z     vdW  Elec       q    Type
REMARK                         _______ _______ _______ _____ _____    ______ ____
ROOT
ATOM      1  C   LIG    1       23.335 -23.429   6.822  0.00  0.00    +0.120 A 
ATOM      2  C   LIG    1       23.591 -22.186   7.388  0.00  0.00    +0.090 A 
ATOM      3  C   LIG    1       24.892 -21.858   7.751  0.00  0.00    +0.120 A 
ATOM      4  C   LIG    1       25.938 -22.756   7.542  0.00  0.00    +0.045 A 
ATOM      5  C   LIG    1       25.671 -23.999   6.965  0.00  0.00    +0.007 A 
ATOM      6  C   LIG    1       24.366 -24.340   6.605  0.00  0.00    +0.045 A 
ENDROOT
BRANCH   1   7
ATOM      7  O   LIG    1       22.045 -23.726   6.492  0.00  0.00    -0.507 OA
ATOM      8  H   LIG    1       21.632 -24.185   7.242  0.00  0.00    +0.292 HD
ENDBRANCH   1   7
BRANCH   3   9
ATOM      9  O   LIG    1       25.109 -20.638   8.318  0.00  0.00    -0.507 OA
ATOM     10  H   LIG    1       26.023 -20.367   8.133  0.00  0.00    +0.292 HD
ENDBRANCH   3   9
TORSDOF 2
ENDMDL
MODEL 8
REMARK VINA RESULT:      -5.2      5.922      6.955
REMARK  Name = *****
REMARK                            x       y       z     vdW  Elec       q    Type
REMARK                         _______ _______ _______ _____ _____    ______ ____
ROOT
ATOM      1  C   LIG    1       24.891 -21.860   7.750  0.00  0.00    +0.120 A 
ATOM      2  C   LIG    1       23.587 -22.190   7.402  0.00  0.00    +0.090 A 
ATOM      3  C   LIG    1       23.330 -23.428   6.824  0.00  0.00    +0.120 A 
ATOM      4  C   LIG    1       24.360 -24.340   6.603  0.00  0.00    +0.045 A 
ATOM      5  C   LIG    1       25.666 -24.001   6.964  0.00  0.00    +0.007 A 
ATOM      6  C   LIG    1       25.936 -22.758   7.538  0.00  0.00    +0.045 A 
ENDROOT
BRANCH   1   7
ATOM      7  O   LIG    1       25.113 -20.632   8.300  0.00  0.00    -0.507 OA
ATOM      8  H   LIG    1       24.762 -20.631   9.206  0.00  0.00    +0.292 HD
ENDBRANCH   1   7
BRANCH   3   9
ATOM      9  O   LIG    1       22.042 -23.716   6.479  0.00  0.00    -0.507 OA
ATOM     10  H   LIG    1       22.002 -23.860   5.520  0.00  0.00    +0.292 HD
ENDBRANCH   3   9
TORSDOF 2
ENDMDL
MODEL 9
REMARK VINA RESULT:      -5.0      5.411      6.660
REMARK  Name = *****
REMARK                            x       y       z     vdW  Elec       q    Type
REMARK                         _______ _______ _______ _____ _____    ______ ____
ROOT
ATOM      1  C   LIG    1       25.371 -20.539   5.185  0.00  0.00    +0.120 A 
ATOM      2  C   LIG    1       24.112 -20.793   4.654  0.00  0.00    +0.090 A 
ATOM      3  C   LIG    1       23.065 -21.111   5.509  0.00  0.00    +0.120 A 
ATOM      4  C   LIG    1       23.261 -21.167   6.888  0.00  0.00    +0.045 A 
ATOM      5  C   LIG    1       24.528 -20.903   7.412  0.00  0.00    +0.007 A 
ATOM      6  C   LIG    1       25.589 -20.590   6.561  0.00  0.00    +0.045 A 
ENDROOT
BRANCH   1   7
ATOM      7  O   LIG    1       26.382 -20.245   4.318  0.00  0.00    -0.507 OA
ATOM      8  H   LIG    1       26.961 -19.582   4.730  0.00  0.00    +0.292 HD
ENDBRANCH   1   7
BRANCH   3   9
ATOM      9  O   LIG    1       21.845 -21.369   4.957  0.00  0.00    -0.507 OA
ATOM     10  H   LIG    1       21.974 -21.899   4.153  0.00  0.00    +0.292 HD
ENDBRANCH   3   9
TORSDOF 2
ENDMDL
