MODEL 1
REMARK VINA RESULT:      -5.7      0.000      0.000
REMARK  Name = *****
REMARK                            x       y       z     vdW  Elec       q    Type
REMARK                         _______ _______ _______ _____ _____    ______ ____
ROOT
ATOM      1  C   LIG    1       22.592 -16.245   4.815  0.00  0.00    -0.000 C 
ENDROOT
BRANCH   1   2
ATOM      2  C   LIG    1       22.348 -17.660   4.243  0.00  0.00    -0.000 C 
BRANCH   2   3
ATOM      3  C   LIG    1       22.333 -18.807   5.299  0.00  0.00    -0.000 C 
BRANCH   3   4
ATOM      4  C   LIG    1       22.324 -20.279   4.776  0.00  0.00    -0.000 C 
BRANCH   4   5
ATOM      5  C   LIG    1       22.643 -21.327   5.828  0.00  0.00    -0.000 C 
BRANCH   5   6
ATOM      6  C   LIG    1       23.422 -20.834   7.061  0.00  0.00    -0.000 C 
BRANCH   6   7
ATOM      7  C   LIG    1       24.975 -20.831   7.035  0.00  0.00    -0.000 C 
BRANCH   7   8
ATOM      8  C   LIG    1       25.746 -21.000   5.701  0.00  0.00    -0.000 C 
BRANCH   8  10
ATOM      9  C   LIG    1       25.416 -19.622   3.517  0.00  0.00    +0.004 C 
ATOM     10  C   LIG    1       26.130 -19.787   4.858  0.00  0.00    -0.003 C 
ENDBRANCH   8  10
ENDBRANCH   7   8
ENDBRANCH   6   7
ENDBRANCH   5   6
ENDBRANCH   4   5
ENDBRANCH   3   4
ENDBRANCH   2   3
ENDBRANCH   1   2
BRANCH   1  11
ATOM     11  C   LIG    1       23.769 -15.570   4.111  0.00  0.00    +0.000 C 
BRANCH  11  12
ATOM     12  C   LIG    1       23.858 -14.057   4.237  0.00  0.00    +0.002 C 
BRANCH  12  13
ATOM     13  C   LIG    1       24.266 -13.322   2.960  0.00  0.00    +0.030 C 
BRANCH  13  14
ATOM     14  C   LIG    1       25.658 -13.690   2.425  0.00  0.00    +0.196 C 
BRANCH  14  15
ATOM     15  O   LIG    1       26.723 -12.947   3.010  0.00  0.00    -0.216 OA
BRANCH  15  16
ATOM     16  S   LIG    1       27.782 -13.667   4.010  0.00  0.00    +0.207 S 
ATOM     17  O   LIG    1       29.120 -13.074   3.764  0.00  0.00    -0.118 OA
ATOM     18  O   LIG    1       27.583 -15.064   4.051  0.00  0.00    -0.118 OA
BRANCH  16  19
ATOM     19  O   LIG    1       27.409 -13.102   5.464  0.00  0.00    -0.231 OA
ATOM     20  H   LIG    1       28.254 -12.782   5.843  0.00  0.00    +0.247 HD
ENDBRANCH  16  19
ENDBRANCH  15  16
ENDBRANCH  14  15
ENDBRANCH  13  14
ENDBRANCH  12  13
ENDBRANCH  11  12
ENDBRANCH   1  11
TORSDOF 15
ENDMDL
MODEL 2
REMARK VINA RESULT:      -5.5      1.199      1.680
REMARK  Name = *****
REMARK                            x       y       z     vdW  Elec       q    Type
REMARK                         _______ _______ _______ _____ _____    ______ ____
ROOT
ATOM      1  C   LIG    1       22.406 -17.018   4.728  0.00  0.00    -0.000 C 
ENDROOT
BRANCH   1   2
ATOM      2  C   LIG    1       23.590 -17.735   4.040  0.00  0.00    -0.000 C 
BRANCH   2   3
ATOM      3  C   LIG    1       23.598 -19.288   4.184  0.00  0.00    -0.000 C 
BRANCH   3   4
ATOM      4  C   LIG    1       22.606 -19.930   5.206  0.00  0.00    -0.000 C 
BRANCH   4   5
ATOM      5  C   LIG    1       23.036 -21.286   5.740  0.00  0.00    -0.000 C 
BRANCH   5   6
ATOM      6  C   LIG    1       23.841 -21.272   7.053  0.00  0.00    -0.000 C 
BRANCH   6   7
ATOM      7  C   LIG    1       25.364 -21.571   7.019  0.00  0.00    -0.000 C 
BRANCH   7   8
ATOM      8  C   LIG    1       26.398 -20.418   6.942  0.00  0.00    -0.000 C 
BRANCH   8  10
ATOM      9  C   LIG    1       28.504 -19.532   5.693  0.00  0.00    +0.004 C 
ATOM     10  C   LIG    1       27.071 -20.055   5.620  0.00  0.00    -0.003 C 
ENDBRANCH   8  10
ENDBRANCH   7   8
ENDBRANCH   6   7
ENDBRANCH   5   6
ENDBRANCH   4   5
ENDBRANCH   3   4
ENDBRANCH   2   3
ENDBRANCH   1   2
BRANCH   1  11
ATOM     11  C   LIG    1       22.747 -15.556   5.010  0.00  0.00    +0.000 C 
BRANCH  11  12
ATOM     12  C   LIG    1       23.691 -14.878   4.029  0.00  0.00    +0.002 C 
BRANCH  12  13
ATOM     13  C   LIG    1       23.796 -13.359   4.171  0.00  0.00    +0.030 C 
BRANCH  13  14
ATOM     14  C   LIG    1       25.115 -12.757   3.665  0.00  0.00    +0.196 C 
BRANCH  14  15
ATOM     15  O   LIG    1       26.281 -13.365   4.212  0.00  0.00    -0.216 OA
BRANCH  15  16
ATOM     16  S   LIG    1       27.245 -14.288   3.284  0.00  0.00    +0.207 S 
ATOM     17  O   LIG    1       26.642 -14.366   1.931  0.00  0.00    -0.118 OA
ATOM     18  O   LIG    1       27.673 -15.441   3.977  0.00  0.00    -0.118 OA
BRANCH  16  19
ATOM     19  O   LIG    1       28.548 -13.385   3.037  0.00  0.00    -0.231 OA
ATOM     20  H   LIG    1       28.890 -13.658   2.161  0.00  0.00    +0.247 HD
ENDBRANCH  16  19
ENDBRANCH  15  16
ENDBRANCH  14  15
ENDBRANCH  13  14
ENDBRANCH  12  13
ENDBRANCH  11  12
ENDBRANCH   1  11
TORSDOF 15
ENDMDL
MODEL 3
REMARK VINA RESULT:      -5.3      0.664      1.566
REMARK  Name = *****
REMARK                            x       y       z     vdW  Elec       q    Type
REMARK                         _______ _______ _______ _____ _____    ______ ____
ROOT
ATOM      1  C   LIG    1       23.795 -15.623   4.120  0.00  0.00    -0.000 C 
ENDROOT
BRANCH   1   2
ATOM      2  C   LIG    1       22.527 -16.400   4.542  0.00  0.00    -0.000 C 
BRANCH   2   3
ATOM      3  C   LIG    1       22.525 -17.916   4.173  0.00  0.00    -0.000 C 
BRANCH   3   4
ATOM      4  C   LIG    1       22.444 -18.950   5.341  0.00  0.00    -0.000 C 
BRANCH   4   5
ATOM      5  C   LIG    1       22.255 -20.391   4.898  0.00  0.00    -0.000 C 
BRANCH   5   6
ATOM      6  C   LIG    1       22.825 -21.468   5.840  0.00  0.00    -0.000 C 
BRANCH   6   7
ATOM      7  C   LIG    1       23.722 -21.045   7.034  0.00  0.00    -0.000 C 
BRANCH   7   8
ATOM      8  C   LIG    1       25.229 -21.403   7.061  0.00  0.00    -0.000 C 
BRANCH   8  10
ATOM      9  C   LIG    1       25.999 -20.097   4.943  0.00  0.00    +0.004 C 
ATOM     10  C   LIG    1       26.263 -20.497   6.394  0.00  0.00    -0.003 C 
ENDBRANCH   8  10
ENDBRANCH   7   8
ENDBRANCH   6   7
ENDBRANCH   5   6
ENDBRANCH   4   5
ENDBRANCH   3   4
ENDBRANCH   2   3
ENDBRANCH   1   2
BRANCH   1  11
ATOM     11  C   LIG    1       23.880 -14.284   4.851  0.00  0.00    +0.000 C 
BRANCH  11  12
ATOM     12  C   LIG    1       23.872 -13.036   3.981  0.00  0.00    +0.002 C 
BRANCH  12  13
ATOM     13  C   LIG    1       24.371 -13.238   2.550  0.00  0.00    +0.030 C 
BRANCH  13  14
ATOM     14  C   LIG    1       25.821 -12.792   2.307  0.00  0.00    +0.196 C 
BRANCH  14  15
ATOM     15  O   LIG    1       26.781 -13.836   2.432  0.00  0.00    -0.216 OA
BRANCH  15  16
ATOM     16  S   LIG    1       27.655 -13.999   3.792  0.00  0.00    +0.207 S 
ATOM     17  O   LIG    1       27.852 -15.449   4.040  0.00  0.00    -0.118 OA
ATOM     18  O   LIG    1       27.198 -13.127   4.804  0.00  0.00    -0.118 OA
BRANCH  16  19
ATOM     19  O   LIG    1       29.127 -13.507   3.386  0.00  0.00    -0.231 OA
ATOM     20  H   LIG    1       29.341 -12.785   4.012  0.00  0.00    +0.247 HD
ENDBRANCH  16  19
ENDBRANCH  15  16
ENDBRANCH  14  15
ENDBRANCH  13  14
ENDBRANCH  12  13
ENDBRANCH  11  12
ENDBRANCH   1  11
TORSDOF 15
ENDMDL
MODEL 4
REMARK VINA RESULT:      -5.1      2.001      3.512
REMARK  Name = *****
REMARK                            x       y       z     vdW  Elec       q    Type
REMARK                         _______ _______ _______ _____ _____    ______ ____
ROOT
ATOM      1  C   LIG    1       25.636 -17.683   3.317  0.00  0.00    -0.000 C 
ENDROOT
BRANCH   1   2
ATOM      2  C   LIG    1       25.480 -19.193   3.609  0.00  0.00    -0.000 C 
BRANCH   2   3
ATOM      3  C   LIG    1       26.275 -19.713   4.847  0.00  0.00    -0.000 C 
BRANCH   3   4
ATOM      4  C   LIG    1       25.780 -21.028   5.530  0.00  0.00    -0.000 C 
BRANCH   4   5
ATOM      5  C   LIG    1       25.193 -20.839   6.918  0.00  0.00    -0.000 C 
BRANCH   5   6
ATOM      6  C   LIG    1       23.682 -21.103   7.056  0.00  0.00    -0.000 C 
BRANCH   6   7
ATOM      7  C   LIG    1       22.864 -21.539   5.810  0.00  0.00    -0.000 C 
BRANCH   7   8
ATOM      8  C   LIG    1       22.418 -20.500   4.750  0.00  0.00    -0.000 C 
BRANCH   8  10
ATOM      9  C   LIG    1       21.797 -18.083   4.009  0.00  0.00    +0.004 C 
ATOM     10  C   LIG    1       22.331 -19.015   5.095  0.00  0.00    -0.003 C 
ENDBRANCH   8  10
ENDBRANCH   7   8
ENDBRANCH   6   7
ENDBRANCH   5   6
ENDBRANCH   4   5
ENDBRANCH   3   4
ENDBRANCH   2   3
ENDBRANCH   1   2
BRANCH   1  11
ATOM     11  C   LIG    1       27.039 -17.201   3.685  0.00  0.00    +0.000 C 
BRANCH  11  12
ATOM     12  C   LIG    1       27.215 -15.701   3.864  0.00  0.00    +0.002 C 
BRANCH  12  13
ATOM     13  C   LIG    1       26.733 -14.846   2.691  0.00  0.00    +0.030 C 
BRANCH  13  14
ATOM     14  C   LIG    1       26.689 -13.337   2.973  0.00  0.00    +0.196 C 
BRANCH  14  15
ATOM     15  O   LIG    1       25.892 -12.976   4.098  0.00  0.00    -0.216 OA
BRANCH  15  16
ATOM     16  S   LIG    1       24.277 -12.853   3.962  0.00  0.00    +0.207 S 
ATOM     17  O   LIG    1       23.681 -14.141   4.396  0.00  0.00    -0.118 OA
ATOM     18  O   LIG    1       23.909 -12.235   2.747  0.00  0.00    -0.118 OA
BRANCH  16  19
ATOM     19  O   LIG    1       23.850 -11.852   5.140  0.00  0.00    -0.231 OA
ATOM     20  H   LIG    1       24.514 -11.132   5.122  0.00  0.00    +0.247 HD
ENDBRANCH  16  19
ENDBRANCH  15  16
ENDBRANCH  14  15
ENDBRANCH  13  14
ENDBRANCH  12  13
ENDBRANCH  11  12
ENDBRANCH   1  11
TORSDOF 15
ENDMDL
MODEL 5
REMARK VINA RESULT:      -4.6      3.678      6.894
REMARK  Name = *****
REMARK                            x       y       z     vdW  Elec       q    Type
REMARK                         _______ _______ _______ _____ _____    ______ ____
ROOT
ATOM      1  C   LIG    1       22.313 -15.714   4.794  0.00  0.00    -0.000 C 
ENDROOT
BRANCH   1   2
ATOM      2  C   LIG    1       23.598 -15.107   4.186  0.00  0.00    -0.000 C 
BRANCH   2   3
ATOM      3  C   LIG    1       23.942 -13.665   4.672  0.00  0.00    -0.000 C 
BRANCH   3   4
ATOM      4  C   LIG    1       23.991 -12.528   3.601  0.00  0.00    -0.000 C 
BRANCH   4   5
ATOM      5  C   LIG    1       24.552 -12.950   2.254  0.00  0.00    -0.000 C 
BRANCH   5   6
ATOM      6  C   LIG    1       26.083 -13.095   2.173  0.00  0.00    -0.000 C 
BRANCH   6   7
ATOM      7  C   LIG    1       26.748 -14.434   2.593  0.00  0.00    -0.000 C 
BRANCH   7   8
ATOM      8  C   LIG    1       27.579 -14.532   3.897  0.00  0.00    -0.000 C 
BRANCH   8  10
ATOM      9  C   LIG    1       28.521 -12.349   4.960  0.00  0.00    +0.004 C 
ATOM     10  C   LIG    1       27.472 -13.459   4.979  0.00  0.00    -0.003 C 
ENDBRANCH   8  10
ENDBRANCH   7   8
ENDBRANCH   6   7
ENDBRANCH   5   6
ENDBRANCH   4   5
ENDBRANCH   3   4
ENDBRANCH   2   3
ENDBRANCH   1   2
BRANCH   1  11
ATOM     11  C   LIG    1       22.497 -17.205   5.074  0.00  0.00    +0.000 C 
BRANCH  11  12
ATOM     12  C   LIG    1       21.806 -18.164   4.116  0.00  0.00    +0.002 C 
BRANCH  12  13
ATOM     13  C   LIG    1       22.126 -19.644   4.335  0.00  0.00    +0.030 C 
BRANCH  13  14
ATOM     14  C   LIG    1       22.757 -19.968   5.697  0.00  0.00    +0.196 C 
BRANCH  14  15
ATOM     15  O   LIG    1       24.177 -20.084   5.670  0.00  0.00    -0.216 OA
BRANCH  15  16
ATOM     16  S   LIG    1       24.966 -20.259   4.261  0.00  0.00    +0.207 S 
ATOM     17  O   LIG    1       25.041 -18.929   3.608  0.00  0.00    -0.118 OA
ATOM     18  O   LIG    1       24.526 -21.406   3.565  0.00  0.00    -0.118 OA
BRANCH  16  19
ATOM     19  O   LIG    1       26.490 -20.530   4.684  0.00  0.00    -0.231 OA
ATOM     20  H   LIG    1       26.614 -21.498   4.601  0.00  0.00    +0.247 HD
ENDBRANCH  16  19
ENDBRANCH  15  16
ENDBRANCH  14  15
ENDBRANCH  13  14
ENDBRANCH  12  13
ENDBRANCH  11  12
ENDBRANCH   1  11
TORSDOF 15
ENDMDL
MODEL 6
REMARK VINA RESULT:      -4.6      2.034      4.500
REMARK  Name = *****
REMARK                            x       y       z     vdW  Elec       q    Type
REMARK                         _______ _______ _______ _____ _____    ______ ____
ROOT
ATOM      1  C   LIG    1       28.949 -19.409   6.987  0.00  0.00    -0.000 C 
ENDROOT
BRANCH   1   2
ATOM      2  C   LIG    1       28.092 -20.693   7.061  0.00  0.00    -0.000 C 
BRANCH   2   3
ATOM      3  C   LIG    1       26.551 -20.466   6.988  0.00  0.00    -0.000 C 
BRANCH   3   4
ATOM      4  C   LIG    1       25.804 -20.945   5.702  0.00  0.00    -0.000 C 
BRANCH   4   5
ATOM      5  C   LIG    1       25.919 -20.004   4.515  0.00  0.00    -0.000 C 
BRANCH   5   6
ATOM      6  C   LIG    1       24.715 -19.974   3.555  0.00  0.00    -0.000 C 
BRANCH   6   7
ATOM      7  C   LIG    1       23.531 -19.012   3.844  0.00  0.00    -0.000 C 
BRANCH   7   8
ATOM      8  C   LIG    1       22.407 -19.412   4.833  0.00  0.00    -0.000 C 
BRANCH   8  10
ATOM      9  C   LIG    1       22.720 -21.571   6.254  0.00  0.00    +0.004 C 
ATOM     10  C   LIG    1       22.053 -20.879   5.067  0.00  0.00    -0.003 C 
ENDBRANCH   8  10
ENDBRANCH   7   8
ENDBRANCH   6   7
ENDBRANCH   5   6
ENDBRANCH   4   5
ENDBRANCH   3   4
ENDBRANCH   2   3
ENDBRANCH   1   2
BRANCH   1  11
ATOM     11  C   LIG    1       29.252 -19.041   5.535  0.00  0.00    +0.000 C 
BRANCH  11  12
ATOM     12  C   LIG    1       28.821 -17.655   5.083  0.00  0.00    +0.002 C 
BRANCH  12  13
ATOM     13  C   LIG    1       27.549 -17.615   4.233  0.00  0.00    +0.030 C 
BRANCH  13  14
ATOM     14  C   LIG    1       27.199 -16.231   3.668  0.00  0.00    +0.196 C 
BRANCH  14  15
ATOM     15  O   LIG    1       27.867 -15.151   4.314  0.00  0.00    -0.216 OA
BRANCH  15  16
ATOM     16  S   LIG    1       27.545 -13.613   3.900  0.00  0.00    +0.207 S 
ATOM     17  O   LIG    1       28.830 -12.870   3.860  0.00  0.00    -0.118 OA
ATOM     18  O   LIG    1       26.421 -13.118   4.595  0.00  0.00    -0.118 OA
BRANCH  16  19
ATOM     19  O   LIG    1       27.135 -13.691   2.351  0.00  0.00    -0.231 OA
ATOM     20  H   LIG    1       27.772 -13.111   1.885  0.00  0.00    +0.247 HD
ENDBRANCH  16  19
ENDBRANCH  15  16
ENDBRANCH  14  15
ENDBRANCH  13  14
ENDBRANCH  12  13
ENDBRANCH  11  12
ENDBRANCH   1  11
TORSDOF 15
ENDMDL
MODEL 7
REMARK VINA RESULT:      -4.5      2.355      4.271
REMARK  Name = *****
REMARK                            x       y       z     vdW  Elec       q    Type
REMARK                         _______ _______ _______ _____ _____    ______ ____
ROOT
ATOM      1  C   LIG    1       29.077 -18.255   5.559  0.00  0.00    -0.000 C 
ENDROOT
BRANCH   1   2
ATOM      2  C   LIG    1       28.857 -19.751   5.879  0.00  0.00    -0.000 C 
BRANCH   2   3
ATOM      3  C   LIG    1       27.881 -20.038   7.062  0.00  0.00    -0.000 C 
BRANCH   3   4
ATOM      4  C   LIG    1       26.529 -20.749   6.735  0.00  0.00    -0.000 C 
BRANCH   4   5
ATOM      5  C   LIG    1       25.964 -20.434   5.360  0.00  0.00    -0.000 C 
BRANCH   5   6
ATOM      6  C   LIG    1       24.830 -21.352   4.868  0.00  0.00    -0.000 C 
BRANCH   6   7
ATOM      7  C   LIG    1       23.422 -21.241   5.514  0.00  0.00    -0.000 C 
BRANCH   7   8
ATOM      8  C   LIG    1       22.723 -19.866   5.663  0.00  0.00    -0.000 C 
BRANCH   8  10
ATOM      9  C   LIG    1       21.348 -18.514   3.914  0.00  0.00    +0.004 C 
ATOM     10  C   LIG    1       22.709 -18.863   4.512  0.00  0.00    -0.003 C 
ENDBRANCH   8  10
ENDBRANCH   7   8
ENDBRANCH   6   7
ENDBRANCH   5   6
ENDBRANCH   4   5
ENDBRANCH   3   4
ENDBRANCH   2   3
ENDBRANCH   1   2
BRANCH   1  11
ATOM     11  C   LIG    1       28.125 -17.790   4.458  0.00  0.00    +0.000 C 
BRANCH  11  12
ATOM     12  C   LIG    1       27.833 -16.298   4.400  0.00  0.00    +0.002 C 
BRANCH  12  13
ATOM     13  C   LIG    1       26.806 -15.878   3.347  0.00  0.00    +0.030 C 
BRANCH  13  14
ATOM     14  C   LIG    1       26.832 -14.385   2.987  0.00  0.00    +0.196 C 
BRANCH  14  15
ATOM     15  O   LIG    1       25.548 -13.823   2.734  0.00  0.00    -0.216 OA
BRANCH  15  16
ATOM     16  S   LIG    1       24.604 -13.330   3.962  0.00  0.00    +0.207 S 
ATOM     17  O   LIG    1       23.819 -14.498   4.434  0.00  0.00    -0.118 OA
ATOM     18  O   LIG    1       23.994 -12.090   3.676  0.00  0.00    -0.118 OA
BRANCH  16  19
ATOM     19  O   LIG    1       25.623 -13.077   5.175  0.00  0.00    -0.231 OA
ATOM     20  H   LIG    1       25.088 -12.655   5.879  0.00  0.00    +0.247 HD
ENDBRANCH  16  19
ENDBRANCH  15  16
ENDBRANCH  14  15
ENDBRANCH  13  14
ENDBRANCH  12  13
ENDBRANCH  11  12
ENDBRANCH   1  11
TORSDOF 15
ENDMDL
MODEL 8
REMARK VINA RESULT:      -4.3      4.186      7.685
REMARK  Name = *****
REMARK                            x       y       z     vdW  Elec       q    Type
REMARK                         _______ _______ _______ _____ _____    ______ ____
ROOT
ATOM      1  C   LIG    1       29.475 -18.643   5.482  0.00  0.00    -0.000 C 
ENDROOT
BRANCH   1   2
ATOM      2  C   LIG    1       28.197 -18.119   4.788  0.00  0.00    -0.000 C 
BRANCH   2   3
ATOM      3  C   LIG    1       28.086 -16.566   4.690  0.00  0.00    -0.000 C 
BRANCH   3   4
ATOM      4  C   LIG    1       27.136 -15.971   3.602  0.00  0.00    -0.000 C 
BRANCH   4   5
ATOM      5  C   LIG    1       27.409 -14.519   3.248  0.00  0.00    -0.000 C 
BRANCH   5   6
ATOM      6  C   LIG    1       27.192 -13.495   4.377  0.00  0.00    -0.000 C 
BRANCH   6   7
ATOM      7  C   LIG    1       25.792 -13.369   5.037  0.00  0.00    -0.000 C 
BRANCH   7   8
ATOM      8  C   LIG    1       24.502 -13.616   4.214  0.00  0.00    -0.000 C 
BRANCH   8  10
ATOM      9  C   LIG    1       24.549 -12.610   1.813  0.00  0.00    +0.004 C 
ATOM     10  C   LIG    1       23.985 -12.567   3.232  0.00  0.00    -0.003 C 
ENDBRANCH   8  10
ENDBRANCH   7   8
ENDBRANCH   6   7
ENDBRANCH   5   6
ENDBRANCH   4   5
ENDBRANCH   3   4
ENDBRANCH   2   3
ENDBRANCH   1   2
BRANCH   1  11
ATOM     11  C   LIG    1       29.138 -19.283   6.829  0.00  0.00    +0.000 C 
BRANCH  11  12
ATOM     12  C   LIG    1       28.322 -20.566   6.784  0.00  0.00    +0.002 C 
BRANCH  12  13
ATOM     13  C   LIG    1       26.828 -20.395   7.062  0.00  0.00    +0.030 C 
BRANCH  13  14
ATOM     14  C   LIG    1       25.906 -21.148   6.091  0.00  0.00    +0.196 C 
BRANCH  14  15
ATOM     15  O   LIG    1       24.583 -20.623   6.018  0.00  0.00    -0.216 OA
BRANCH  15  16
ATOM     16  S   LIG    1       23.938 -20.202   4.587  0.00  0.00    +0.207 S 
ATOM     17  O   LIG    1       22.815 -19.268   4.847  0.00  0.00    -0.118 OA
ATOM     18  O   LIG    1       23.795 -21.321   3.739  0.00  0.00    -0.118 OA
BRANCH  16  19
ATOM     19  O   LIG    1       25.040 -19.249   3.915  0.00  0.00    -0.231 OA
ATOM     20  H   LIG    1       25.824 -19.307   4.499  0.00  0.00    +0.247 HD
ENDBRANCH  16  19
ENDBRANCH  15  16
ENDBRANCH  14  15
ENDBRANCH  13  14
ENDBRANCH  12  13
ENDBRANCH  11  12
ENDBRANCH   1  11
TORSDOF 15
ENDMDL
MODEL 9
REMARK VINA RESULT:      -4.2      4.658      7.599
REMARK  Name = *****
REMARK                            x       y       z     vdW  Elec       q    Type
REMARK                         _______ _______ _______ _____ _____    ______ ____
ROOT
ATOM      1  C   LIG    1       27.184 -15.820   4.033  0.00  0.00    -0.000 C 
ENDROOT
BRANCH   1   2
ATOM      2  C   LIG    1       26.556 -14.989   2.891  0.00  0.00    -0.000 C 
BRANCH   2   3
ATOM      3  C   LIG    1       27.287 -13.649   2.567  0.00  0.00    -0.000 C 
BRANCH   3   4
ATOM      4  C   LIG    1       26.434 -12.341   2.545  0.00  0.00    -0.000 C 
BRANCH   4   5
ATOM      5  C   LIG    1       25.009 -12.522   2.052  0.00  0.00    -0.000 C 
BRANCH   5   6
ATOM      6  C   LIG    1       23.897 -12.026   2.996  0.00  0.00    -0.000 C 
BRANCH   6   7
ATOM      7  C   LIG    1       23.957 -12.387   4.505  0.00  0.00    -0.000 C 
BRANCH   7   8
ATOM      8  C   LIG    1       24.109 -13.859   4.964  0.00  0.00    -0.000 C 
BRANCH   8  10
ATOM      9  C   LIG    1       22.432 -15.850   5.006  0.00  0.00    +0.004 C 
ATOM     10  C   LIG    1       23.413 -14.992   4.211  0.00  0.00    -0.003 C 
ENDBRANCH   8  10
ENDBRANCH   7   8
ENDBRANCH   6   7
ENDBRANCH   5   6
ENDBRANCH   4   5
ENDBRANCH   3   4
ENDBRANCH   2   3
ENDBRANCH   1   2
BRANCH   1  11
ATOM     11  C   LIG    1       27.125 -17.313   3.714  0.00  0.00    +0.000 C 
BRANCH  11  12
ATOM     12  C   LIG    1       25.750 -17.886   3.406  0.00  0.00    +0.002 C 
BRANCH  12  13
ATOM     13  C   LIG    1       25.566 -19.361   3.767  0.00  0.00    +0.030 C 
BRANCH  13  14
ATOM     14  C   LIG    1       24.185 -19.938   3.420  0.00  0.00    +0.196 C 
BRANCH  14  15
ATOM     15  O   LIG    1       23.784 -21.027   4.245  0.00  0.00    -0.216 OA
BRANCH  15  16
ATOM     16  S   LIG    1       22.570 -20.855   5.311  0.00  0.00    +0.207 S 
ATOM     17  O   LIG    1       23.095 -21.182   6.660  0.00  0.00    -0.118 OA
ATOM     18  O   LIG    1       21.372 -21.419   4.822  0.00  0.00    -0.118 OA
BRANCH  16  19
ATOM     19  O   LIG    1       22.335 -19.271   5.400  0.00  0.00    -0.231 OA
ATOM     20  H   LIG    1       23.152 -18.909   5.802  0.00  0.00    +0.247 HD
ENDBRANCH  16  19
ENDBRANCH  15  16
ENDBRANCH  14  15
ENDBRANCH  13  14
ENDBRANCH  12  13
ENDBRANCH  11  12
ENDBRANCH   1  11
TORSDOF 15
ENDMDL
