MODEL 1
REMARK VINA RESULT:       1.1      0.000      0.000
REMARK  Name = *****
REMARK                            x       y       z     vdW  Elec       q    Type
REMARK                         _______ _______ _______ _____ _____    ______ ____
ROOT
ATOM      1  N   LIG    1       26.838 -17.606   3.400  0.00  0.00    -0.295 N 
ATOM      2  H   LIG    1       27.628 -17.297   2.856  0.00  0.00    +0.151 HD
ATOM      3  C   LIG    1       25.727 -16.809   3.453  0.00  0.00    +0.303 C 
ATOM      4  N   LIG    1       25.851 -15.516   2.903  0.00  0.00    -0.278 N 
ATOM      5  O   LIG    1       24.674 -17.201   3.991  0.00  0.00    -0.253 OA
ENDROOT
BRANCH   4   6
ATOM      6  C   LIG    1       24.624 -14.657   2.858  0.00  0.00    +0.080 C 
ATOM      7  C   LIG    1       23.937 -14.437   4.219  0.00  0.00    +0.038 C 
ATOM      8  C   LIG    1       24.242 -13.110   4.918  0.00  0.00    +0.086 C 
ATOM      9  N   LIG    1       24.233 -11.923   4.060  0.00  0.00    -0.305 NA
ATOM     10  C   LIG    1       22.894 -11.447   3.735  0.00  0.00    +0.105 C 
ATOM     11  C   LIG    1       25.075 -12.105   2.884  0.00  0.00    +0.086 C 
ATOM     12  C   LIG    1       24.745 -13.348   2.049  0.00  0.00    +0.038 C 
ENDBRANCH   4   6
BRANCH   1  13
ATOM     13  C   LIG    1       26.939 -18.962   3.929  0.00  0.00    +0.141 C 
BRANCH  13  17
ATOM     14  C   LIG    1       23.111 -20.964   4.445  0.00  0.00    +0.120 A 
ATOM     15  C   LIG    1       23.869 -20.604   5.566  0.00  0.00    +0.046 A 
ATOM     16  C   LIG    1       25.093 -19.924   5.404  0.00  0.00    +0.009 A 
ATOM     17  C   LIG    1       25.604 -19.646   4.126  0.00  0.00    -0.030 A 
ATOM     18  C   LIG    1       24.868 -20.067   3.018  0.00  0.00    +0.009 A 
ATOM     19  C   LIG    1       23.645 -20.719   3.179  0.00  0.00    +0.046 A 
BRANCH  14  20
ATOM     20  O   LIG    1       21.885 -21.566   4.633  0.00  0.00    -0.492 OA
BRANCH  20  21
ATOM     21  C   LIG    1       20.785 -20.634   4.714  0.00  0.00    +0.232 C 
BRANCH  21  23
ATOM     22  C   LIG    1       19.600 -18.972   3.224  0.00  0.00    +0.010 C 
ATOM     23  C   LIG    1       20.958 -19.427   3.775  0.00  0.00    +0.020 C 
ATOM     24  C   LIG    1       21.637 -18.237   4.453  0.00  0.00    +0.010 C 
ENDBRANCH  21  23
ENDBRANCH  20  21
ENDBRANCH  14  20
ENDBRANCH  13  17
ENDBRANCH   1  13
BRANCH   4  25
ATOM     25  C   LIG    1       27.141 -14.919   2.523  0.00  0.00    +0.144 C 
BRANCH  25  26
ATOM     26  C   LIG    1       27.762 -13.992   3.545  0.00  0.00    -0.030 A 
ATOM     27  C   LIG    1       28.722 -13.028   3.199  0.00  0.00    +0.008 A 
ATOM     28  C   LIG    1       29.272 -12.179   4.154  0.00  0.00    +0.039 A 
ATOM     29  C   LIG    1       28.864 -12.286   5.473  0.00  0.00    +0.123 A 
ATOM     30  F   LIG    1       29.397 -11.473   6.393  0.00  0.00    -0.205 F 
ATOM     31  C   LIG    1       27.915 -13.228   5.851  0.00  0.00    +0.039 A 
ATOM     32  C   LIG    1       27.366 -14.084   4.891  0.00  0.00    +0.008 A 
ENDBRANCH  25  26
ENDBRANCH   4  25
TORSDOF 8
ENDMDL
MODEL 2
REMARK VINA RESULT:       3.0      1.834      3.398
REMARK  Name = *****
REMARK                            x       y       z     vdW  Elec       q    Type
REMARK                         _______ _______ _______ _____ _____    ______ ____
ROOT
ATOM      1  N   LIG    1       26.717 -18.141   3.899  0.00  0.00    -0.295 N 
ATOM      2  H   LIG    1       25.928 -17.784   3.383  0.00  0.00    +0.151 HD
ATOM      3  C   LIG    1       27.684 -17.263   4.307  0.00  0.00    +0.303 C 
ATOM      4  N   LIG    1       27.601 -15.950   3.798  0.00  0.00    -0.278 N 
ATOM      5  O   LIG    1       28.604 -17.622   5.066  0.00  0.00    -0.253 OA
ENDROOT
BRANCH   4   6
ATOM      6  C   LIG    1       28.586 -14.942   4.304  0.00  0.00    +0.080 C 
ATOM      7  C   LIG    1       28.917 -13.807   3.315  0.00  0.00    +0.038 C 
ATOM      8  C   LIG    1       28.188 -12.481   3.548  0.00  0.00    +0.086 C 
ATOM      9  N   LIG    1       28.103 -12.038   4.941  0.00  0.00    -0.305 NA
ATOM     10  C   LIG    1       29.338 -11.448   5.442  0.00  0.00    +0.105 C 
ATOM     11  C   LIG    1       27.578 -13.087   5.807  0.00  0.00    +0.086 C 
ATOM     12  C   LIG    1       28.340 -14.415   5.733  0.00  0.00    +0.038 C 
ENDBRANCH   4   6
BRANCH   1  13
ATOM     13  C   LIG    1       26.627 -19.546   4.280  0.00  0.00    +0.141 C 
BRANCH  13  17
ATOM     14  C   LIG    1       22.546 -21.006   4.658  0.00  0.00    +0.120 A 
ATOM     15  C   LIG    1       23.018 -20.565   3.416  0.00  0.00    +0.046 A 
ATOM     16  C   LIG    1       24.351 -20.124   3.282  0.00  0.00    +0.009 A 
ATOM     17  C   LIG    1       25.209 -20.063   4.391  0.00  0.00    -0.030 A 
ATOM     18  C   LIG    1       24.704 -20.447   5.635  0.00  0.00    +0.009 A 
ATOM     19  C   LIG    1       23.393 -20.905   5.762  0.00  0.00    +0.046 A 
BRANCH  14  20
ATOM     20  O   LIG    1       21.260 -21.497   4.746  0.00  0.00    -0.492 OA
BRANCH  20  21
ATOM     21  C   LIG    1       20.240 -20.514   4.466  0.00  0.00    +0.232 C 
BRANCH  21  23
ATOM     22  C   LIG    1       19.636 -18.606   2.922  0.00  0.00    +0.010 C 
ATOM     23  C   LIG    1       20.776 -19.313   3.668  0.00  0.00    +0.020 C 
ATOM     24  C   LIG    1       21.499 -18.289   4.544  0.00  0.00    +0.010 C 
ENDBRANCH  21  23
ENDBRANCH  20  21
ENDBRANCH  14  20
ENDBRANCH  13  17
ENDBRANCH   1  13
BRANCH   4  25
ATOM     25  C   LIG    1       26.710 -15.567   2.691  0.00  0.00    +0.144 C 
BRANCH  25  26
ATOM     26  C   LIG    1       25.732 -14.451   2.991  0.00  0.00    -0.030 A 
ATOM     27  C   LIG    1       25.574 -13.343   2.144  0.00  0.00    +0.008 A 
ATOM     28  C   LIG    1       24.663 -12.334   2.434  0.00  0.00    +0.039 A 
ATOM     29  C   LIG    1       23.894 -12.423   3.582  0.00  0.00    +0.123 A 
ATOM     30  F   LIG    1       23.021 -11.449   3.865  0.00  0.00    -0.205 F 
ATOM     31  C   LIG    1       24.023 -13.505   4.444  0.00  0.00    +0.039 A 
ATOM     32  C   LIG    1       24.943 -14.518   4.153  0.00  0.00    +0.008 A 
ENDBRANCH  25  26
ENDBRANCH   4  25
TORSDOF 8
ENDMDL
