MODEL 1
REMARK VINA RESULT:      -9.0      0.000      0.000
REMARK  Name = *****
REMARK                            x       y       z     vdW  Elec       q    Type
REMARK                         _______ _______ _______ _____ _____    ______ ____
ROOT
ATOM      1  C   LIG    1       26.223 -21.179   7.462  0.00  0.00    +0.121 C 
ENDROOT
BRANCH   1   2
ATOM      2  C   LIG    1       25.190 -20.707   6.413  0.00  0.00    +0.024 A 
ATOM      3  C   LIG    1       23.858 -20.426   6.764  0.00  0.00    +0.130 A 
ATOM      4  F   LIG    1       23.473 -20.515   8.044  0.00  0.00    -0.205 F 
ATOM      5  C   LIG    1       22.893 -20.070   5.809  0.00  0.00    +0.041 A 
ATOM      6  C   LIG    1       23.246 -19.961   4.467  0.00  0.00    +0.041 A 
ATOM      7  C   LIG    1       24.558 -20.216   4.099  0.00  0.00    +0.124 A 
ATOM      8  F   LIG    1       24.916 -20.099   2.812  0.00  0.00    -0.205 F 
ATOM      9  C   LIG    1       25.513 -20.597   5.043  0.00  0.00    +0.047 A 
ENDBRANCH   1   2
BRANCH   1  11
ATOM     10  C   LIG    1       28.451 -22.558   7.373  0.00  0.00    +0.018 C 
ATOM     11  C   LIG    1       27.670 -21.340   6.829  0.00  0.00    +0.080 C 
BRANCH  11  12
ATOM     12  C   LIG    1       28.528 -20.094   6.999  0.00  0.00    +0.085 A 
ATOM     13  S   LIG    1       28.888 -19.118   5.621  0.00  0.00    -0.080 S 
ATOM     14  C   LIG    1       29.761 -18.039   6.624  0.00  0.00    +0.075 A 
ATOM     15  C   LIG    1       29.773 -18.492   7.929  0.00  0.00    +0.078 A 
ATOM     16  N   LIG    1       29.058 -19.668   8.128  0.00  0.00    -0.244 NA
BRANCH  15  17
ATOM     17  C   LIG    1       30.476 -17.829   9.032  0.00  0.00    +0.001 A 
ATOM     18  C   LIG    1       29.840 -17.661  10.272  0.00  0.00    +0.011 A 
ATOM     19  C   LIG    1       30.499 -17.041  11.343  0.00  0.00    +0.019 A 
ATOM     20  C   LIG    1       31.809 -16.577  11.192  0.00  0.00    +0.052 A 
ATOM     21  C   LIG    1       32.455 -16.744   9.965  0.00  0.00    +0.019 A 
ATOM     22  C   LIG    1       31.795 -17.363   8.899  0.00  0.00    +0.011 A 
BRANCH  20  23
ATOM     23  C   LIG    1       32.484 -15.934  12.275  0.00  0.00    +0.099 C 
ATOM     24  N   LIG    1       33.025 -15.403  13.164  0.00  0.00    -0.191 NA
ENDBRANCH  20  23
ENDBRANCH  15  17
ENDBRANCH  11  12
ENDBRANCH   1  11
BRANCH   1  25
ATOM     25  O   LIG    1       26.330 -20.222   8.545  0.00  0.00    -0.381 OA
ATOM     26  H   LIG    1       27.016 -19.573   8.313  0.00  0.00    +0.211 HD
ENDBRANCH   1  25
BRANCH   1  27
ATOM     27  C   LIG    1       25.834 -22.522   8.166  0.00  0.00    +0.185 C 
BRANCH  27  28
ATOM     28  N   LIG    1       25.239 -23.504   7.280  0.00  0.00    -0.249 N 
ATOM     29  N   LIG    1       23.912 -23.543   7.078  0.00  0.00    -0.158 NA
ATOM     30  C   LIG    1       23.792 -24.639   6.324  0.00  0.00    +0.244 A 
ATOM     31  N   LIG    1       24.968 -25.254   6.002  0.00  0.00    -0.223 NA
ATOM     32  C   LIG    1       25.866 -24.497   6.589  0.00  0.00    +0.219 A 
ENDBRANCH  27  28
ENDBRANCH   1  27
TORSDOF 8
ENDMDL
MODEL 2
REMARK VINA RESULT:      -8.2      3.252      8.673
REMARK  Name = *****
REMARK                            x       y       z     vdW  Elec       q    Type
REMARK                         _______ _______ _______ _____ _____    ______ ____
ROOT
ATOM      1  C   LIG    1       26.023 -21.225   6.687  0.00  0.00    +0.121 C 
ENDROOT
BRANCH   1   2
ATOM      2  C   LIG    1       25.222 -20.451   5.615  0.00  0.00    +0.024 A 
ATOM      3  C   LIG    1       25.864 -19.738   4.587  0.00  0.00    +0.130 A 
ATOM      4  F   LIG    1       27.200 -19.762   4.492  0.00  0.00    -0.205 F 
ATOM      5  C   LIG    1       25.151 -18.972   3.652  0.00  0.00    +0.041 A 
ATOM      6  C   LIG    1       23.761 -18.919   3.707  0.00  0.00    +0.041 A 
ATOM      7  C   LIG    1       23.105 -19.629   4.700  0.00  0.00    +0.124 A 
ATOM      8  F   LIG    1       21.766 -19.600   4.756  0.00  0.00    -0.205 F 
ATOM      9  C   LIG    1       23.813 -20.369   5.648  0.00  0.00    +0.047 A 
ENDBRANCH   1   2
BRANCH   1  11
ATOM     10  C   LIG    1       25.551 -22.544   8.903  0.00  0.00    +0.018 C 
ATOM     11  C   LIG    1       25.118 -22.288   7.442  0.00  0.00    +0.080 C 
BRANCH  11  12
ATOM     12  C   LIG    1       25.046 -23.622   6.712  0.00  0.00    +0.085 A 
ATOM     13  S   LIG    1       24.795 -23.643   5.005  0.00  0.00    -0.080 S 
ATOM     14  C   LIG    1       24.883 -25.353   5.020  0.00  0.00    +0.075 A 
ATOM     15  C   LIG    1       25.051 -25.818   6.311  0.00  0.00    +0.078 A 
ATOM     16  N   LIG    1       25.147 -24.813   7.267  0.00  0.00    -0.244 NA
BRANCH  15  17
ATOM     17  C   LIG    1       25.112 -27.235   6.681  0.00  0.00    +0.001 A 
ATOM     18  C   LIG    1       25.876 -27.641   7.786  0.00  0.00    +0.011 A 
ATOM     19  C   LIG    1       25.938 -28.990   8.165  0.00  0.00    +0.019 A 
ATOM     20  C   LIG    1       25.236 -29.958   7.442  0.00  0.00    +0.052 A 
ATOM     21  C   LIG    1       24.467 -29.567   6.343  0.00  0.00    +0.019 A 
ATOM     22  C   LIG    1       24.407 -28.220   5.969  0.00  0.00    +0.011 A 
BRANCH  20  23
ATOM     23  C   LIG    1       25.302 -31.337   7.814  0.00  0.00    +0.099 C 
ATOM     24  N   LIG    1       25.359 -32.466   8.106  0.00  0.00    -0.191 NA
ENDBRANCH  20  23
ENDBRANCH  15  17
ENDBRANCH  11  12
ENDBRANCH   1  11
BRANCH   1  25
ATOM     25  O   LIG    1       27.126 -21.946   6.086  0.00  0.00    -0.381 OA
ATOM     26  H   LIG    1       26.795 -22.807   5.776  0.00  0.00    +0.211 HD
ENDBRANCH   1  25
BRANCH   1  27
ATOM     27  C   LIG    1       26.699 -20.299   7.754  0.00  0.00    +0.185 C 
BRANCH  27  28
ATOM     28  N   LIG    1       28.149 -20.325   7.727  0.00  0.00    -0.249 N 
ATOM     29  N   LIG    1       28.837 -21.316   8.317  0.00  0.00    -0.158 NA
ATOM     30  C   LIG    1       30.094 -20.891   8.167  0.00  0.00    +0.244 A 
ATOM     31  N   LIG    1       30.233 -19.722   7.475  0.00  0.00    -0.223 NA
ATOM     32  C   LIG    1       28.993 -19.407   7.179  0.00  0.00    +0.219 A 
ENDBRANCH  27  28
ENDBRANCH   1  27
TORSDOF 8
ENDMDL
MODEL 3
REMARK VINA RESULT:      -8.1      3.179      8.617
REMARK  Name = *****
REMARK                            x       y       z     vdW  Elec       q    Type
REMARK                         _______ _______ _______ _____ _____    ______ ____
ROOT
ATOM      1  C   LIG    1       25.963 -21.215   6.725  0.00  0.00    +0.121 C 
ENDROOT
BRANCH   1   2
ATOM      2  C   LIG    1       25.118 -20.393   5.724  0.00  0.00    +0.024 A 
ATOM      3  C   LIG    1       23.726 -20.260   5.871  0.00  0.00    +0.130 A 
ATOM      4  F   LIG    1       23.111 -20.810   6.926  0.00  0.00    -0.205 F 
ATOM      5  C   LIG    1       22.937 -19.580   4.930  0.00  0.00    +0.041 A 
ATOM      6  C   LIG    1       23.532 -18.988   3.819  0.00  0.00    +0.041 A 
ATOM      7  C   LIG    1       24.905 -19.090   3.662  0.00  0.00    +0.124 A 
ATOM      8  F   LIG    1       25.492 -18.512   2.606  0.00  0.00    -0.205 F 
ATOM      9  C   LIG    1       25.687 -19.790   4.583  0.00  0.00    +0.047 A 
ENDBRANCH   1   2
BRANCH   1  11
ATOM     10  C   LIG    1       25.567 -22.624   8.899  0.00  0.00    +0.018 C 
ATOM     11  C   LIG    1       25.092 -22.318   7.461  0.00  0.00    +0.080 C 
BRANCH  11  12
ATOM     12  C   LIG    1       25.018 -23.625   6.683  0.00  0.00    +0.085 A 
ATOM     13  S   LIG    1       24.802 -23.582   4.971  0.00  0.00    -0.080 S 
ATOM     14  C   LIG    1       24.868 -25.292   4.927  0.00  0.00    +0.075 A 
ATOM     15  C   LIG    1       25.004 -25.805   6.203  0.00  0.00    +0.078 A 
ATOM     16  N   LIG    1       25.094 -24.836   7.197  0.00  0.00    -0.244 NA
BRANCH  15  17
ATOM     17  C   LIG    1       25.041 -27.235   6.524  0.00  0.00    +0.001 A 
ATOM     18  C   LIG    1       25.752 -27.687   7.646  0.00  0.00    +0.011 A 
ATOM     19  C   LIG    1       25.789 -29.049   7.977  0.00  0.00    +0.019 A 
ATOM     20  C   LIG    1       25.113 -29.985   7.189  0.00  0.00    +0.052 A 
ATOM     21  C   LIG    1       24.396 -29.548   6.073  0.00  0.00    +0.019 A 
ATOM     22  C   LIG    1       24.361 -28.189   5.746  0.00  0.00    +0.011 A 
BRANCH  20  23
ATOM     23  C   LIG    1       25.155 -31.377   7.514  0.00  0.00    +0.099 C 
ATOM     24  N   LIG    1       25.188 -32.517   7.766  0.00  0.00    -0.191 NA
ENDBRANCH  20  23
ENDBRANCH  15  17
ENDBRANCH  11  12
ENDBRANCH   1  11
BRANCH   1  25
ATOM     25  O   LIG    1       27.043 -21.900   6.045  0.00  0.00    -0.381 OA
ATOM     26  H   LIG    1       26.855 -22.855   6.057  0.00  0.00    +0.211 HD
ENDBRANCH   1  25
BRANCH   1  27
ATOM     27  C   LIG    1       26.679 -20.340   7.808  0.00  0.00    +0.185 C 
BRANCH  27  28
ATOM     28  N   LIG    1       28.126 -20.346   7.714  0.00  0.00    -0.249 N 
ATOM     29  N   LIG    1       28.859 -21.281   8.342  0.00  0.00    -0.158 NA
ATOM     30  C   LIG    1       30.100 -20.850   8.101  0.00  0.00    +0.244 A 
ATOM     31  N   LIG    1       30.185 -19.734   7.318  0.00  0.00    -0.223 NA
ATOM     32  C   LIG    1       28.927 -19.460   7.060  0.00  0.00    +0.219 A 
ENDBRANCH  27  28
ENDBRANCH   1  27
TORSDOF 8
ENDMDL
MODEL 4
REMARK VINA RESULT:      -7.9      8.224     10.711
REMARK  Name = *****
REMARK                            x       y       z     vdW  Elec       q    Type
REMARK                         _______ _______ _______ _____ _____    ______ ____
ROOT
ATOM      1  C   LIG    1       25.483 -30.488   7.826  0.00  0.00    +0.121 C 
ENDROOT
BRANCH   1   2
ATOM      2  C   LIG    1       25.984 -31.505   6.775  0.00  0.00    +0.024 A 
ATOM      3  C   LIG    1       26.988 -32.441   7.076  0.00  0.00    +0.130 A 
ATOM      4  F   LIG    1       27.497 -32.499   8.314  0.00  0.00    -0.205 F 
ATOM      5  C   LIG    1       27.504 -33.320   6.111  0.00  0.00    +0.041 A 
ATOM      6  C   LIG    1       27.005 -33.300   4.811  0.00  0.00    +0.041 A 
ATOM      7  C   LIG    1       26.001 -32.398   4.495  0.00  0.00    +0.124 A 
ATOM      8  F   LIG    1       25.500 -32.379   3.252  0.00  0.00    -0.205 F 
ATOM      9  C   LIG    1       25.506 -31.505   5.447  0.00  0.00    +0.047 A 
ENDBRANCH   1   2
BRANCH   1  11
ATOM     10  C   LIG    1       23.183 -31.223   8.847  0.00  0.00    +0.018 C 
ATOM     11  C   LIG    1       24.718 -31.205   9.018  0.00  0.00    +0.080 C 
BRANCH  11  12
ATOM     12  C   LIG    1       25.051 -30.603  10.377  0.00  0.00    +0.085 A 
ATOM     13  S   LIG    1       25.464 -31.646  11.688  0.00  0.00    -0.080 S 
ATOM     14  C   LIG    1       25.699 -30.279  12.691  0.00  0.00    +0.075 A 
ATOM     15  C   LIG    1       25.411 -29.116  12.002  0.00  0.00    +0.078 A 
ATOM     16  N   LIG    1       25.047 -29.320  10.675  0.00  0.00    -0.244 NA
BRANCH  15  17
ATOM     17  C   LIG    1       25.461 -27.772  12.584  0.00  0.00    +0.001 A 
ATOM     18  C   LIG    1       24.337 -27.247  13.241  0.00  0.00    +0.011 A 
ATOM     19  C   LIG    1       24.368 -25.969  13.815  0.00  0.00    +0.019 A 
ATOM     20  C   LIG    1       25.527 -25.191  13.743  0.00  0.00    +0.052 A 
ATOM     21  C   LIG    1       26.655 -25.703  13.098  0.00  0.00    +0.019 A 
ATOM     22  C   LIG    1       26.620 -26.979  12.526  0.00  0.00    +0.011 A 
BRANCH  20  23
ATOM     23  C   LIG    1       25.564 -23.882  14.316  0.00  0.00    +0.099 C 
ATOM     24  N   LIG    1       25.590 -22.807  14.774  0.00  0.00    -0.191 NA
ENDBRANCH  20  23
ENDBRANCH  15  17
ENDBRANCH  11  12
ENDBRANCH   1  11
BRANCH   1  25
ATOM     25  O   LIG    1       26.591 -29.755   8.402  0.00  0.00    -0.381 OA
ATOM     26  H   LIG    1       26.244 -29.179   9.106  0.00  0.00    +0.211 HD
ENDBRANCH   1  25
BRANCH   1  27
ATOM     27  C   LIG    1       24.550 -29.380   7.231  0.00  0.00    +0.185 C 
BRANCH  27  28
ATOM     28  N   LIG    1       25.260 -28.281   6.606  0.00  0.00    -0.249 N 
ATOM     29  N   LIG    1       25.797 -27.293   7.341  0.00  0.00    -0.158 NA
ATOM     30  C   LIG    1       26.225 -26.458   6.390  0.00  0.00    +0.244 A 
ATOM     31  N   LIG    1       26.034 -26.891   5.109  0.00  0.00    -0.223 NA
ATOM     32  C   LIG    1       25.456 -28.058   5.276  0.00  0.00    +0.219 A 
ENDBRANCH  27  28
ENDBRANCH   1  27
TORSDOF 8
ENDMDL
MODEL 5
REMARK VINA RESULT:      -7.9      3.969      8.723
REMARK  Name = *****
REMARK                            x       y       z     vdW  Elec       q    Type
REMARK                         _______ _______ _______ _____ _____    ______ ____
ROOT
ATOM      1  C   LIG    1       24.644 -22.477   5.987  0.00  0.00    +0.121 C 
ENDROOT
BRANCH   1   2
ATOM      2  C   LIG    1       24.149 -21.228   5.222  0.00  0.00    +0.024 A 
ATOM      3  C   LIG    1       25.046 -20.315   4.641  0.00  0.00    +0.130 A 
ATOM      4  F   LIG    1       26.365 -20.547   4.700  0.00  0.00    -0.205 F 
ATOM      5  C   LIG    1       24.613 -19.140   4.009  0.00  0.00    +0.041 A 
ATOM      6  C   LIG    1       23.253 -18.857   3.919  0.00  0.00    +0.041 A 
ATOM      7  C   LIG    1       22.347 -19.751   4.468  0.00  0.00    +0.124 A 
ATOM      8  F   LIG    1       21.034 -19.500   4.374  0.00  0.00    -0.205 F 
ATOM      9  C   LIG    1       22.778 -20.907   5.121  0.00  0.00    +0.047 A 
ENDBRANCH   1   2
BRANCH   1  11
ATOM     10  C   LIG    1       22.544 -23.696   6.975  0.00  0.00    +0.018 C 
ATOM     11  C   LIG    1       23.619 -23.683   5.866  0.00  0.00    +0.080 C 
BRANCH  11  12
ATOM     12  C   LIG    1       24.309 -25.040   5.838  0.00  0.00    +0.085 A 
ATOM     13  S   LIG    1       25.104 -25.559   4.397  0.00  0.00    -0.080 S 
ATOM     14  C   LIG    1       25.580 -27.001   5.187  0.00  0.00    +0.075 A 
ATOM     15  C   LIG    1       25.079 -27.036   6.475  0.00  0.00    +0.078 A 
ATOM     16  N   LIG    1       24.358 -25.903   6.833  0.00  0.00    -0.244 NA
BRANCH  15  17
ATOM     17  C   LIG    1       25.259 -28.155   7.405  0.00  0.00    +0.001 A 
ATOM     18  C   LIG    1       26.250 -28.094   8.397  0.00  0.00    +0.011 A 
ATOM     19  C   LIG    1       26.430 -29.147   9.304  0.00  0.00    +0.019 A 
ATOM     20  C   LIG    1       25.618 -30.284   9.235  0.00  0.00    +0.052 A 
ATOM     21  C   LIG    1       24.624 -30.355   8.257  0.00  0.00    +0.019 A 
ATOM     22  C   LIG    1       24.448 -29.301   7.354  0.00  0.00    +0.011 A 
BRANCH  20  23
ATOM     23  C   LIG    1       25.802 -31.367  10.150  0.00  0.00    +0.099 C 
ATOM     24  N   LIG    1       25.948 -32.244  10.907  0.00  0.00    -0.191 NA
ENDBRANCH  20  23
ENDBRANCH  15  17
ENDBRANCH  11  12
ENDBRANCH   1  11
BRANCH   1  25
ATOM     25  O   LIG    1       25.913 -22.934   5.461  0.00  0.00    -0.381 OA
ATOM     26  H   LIG    1       26.105 -22.434   4.648  0.00  0.00    +0.211 HD
ENDBRANCH   1  25
BRANCH   1  27
ATOM     27  C   LIG    1       24.924 -22.212   7.505  0.00  0.00    +0.185 C 
BRANCH  27  28
ATOM     28  N   LIG    1       26.190 -21.554   7.768  0.00  0.00    -0.249 N 
ATOM     29  N   LIG    1       27.358 -22.178   7.537  0.00  0.00    -0.158 NA
ATOM     30  C   LIG    1       28.230 -21.290   8.021  0.00  0.00    +0.244 A 
ATOM     31  N   LIG    1       27.681 -20.131   8.490  0.00  0.00    -0.223 NA
ATOM     32  C   LIG    1       26.396 -20.311   8.285  0.00  0.00    +0.219 A 
ENDBRANCH  27  28
ENDBRANCH   1  27
TORSDOF 8
ENDMDL
MODEL 6
REMARK VINA RESULT:      -7.9      6.706     10.482
REMARK  Name = *****
REMARK                            x       y       z     vdW  Elec       q    Type
REMARK                         _______ _______ _______ _____ _____    ______ ____
ROOT
ATOM      1  C   LIG    1       24.943 -30.995   8.184  0.00  0.00    +0.121 C 
ENDROOT
BRANCH   1   2
ATOM      2  C   LIG    1       24.373 -30.573   9.558  0.00  0.00    +0.024 A 
ATOM      3  C   LIG    1       23.125 -31.034  10.012  0.00  0.00    +0.130 A 
ATOM      4  F   LIG    1       22.424 -31.900   9.269  0.00  0.00    -0.205 F 
ATOM      5  C   LIG    1       22.564 -30.601  11.223  0.00  0.00    +0.041 A 
ATOM      6  C   LIG    1       23.257 -29.703  12.032  0.00  0.00    +0.041 A 
ATOM      7  C   LIG    1       24.498 -29.249  11.614  0.00  0.00    +0.124 A 
ATOM      8  F   LIG    1       25.183 -28.398  12.390  0.00  0.00    -0.205 F 
ATOM      9  C   LIG    1       25.045 -29.658  10.397  0.00  0.00    +0.047 A 
ENDBRANCH   1   2
BRANCH   1  11
ATOM     10  C   LIG    1       23.859 -31.547   5.861  0.00  0.00    +0.018 C 
ATOM     11  C   LIG    1       24.018 -30.505   6.991  0.00  0.00    +0.080 C 
BRANCH  11  12
ATOM     12  C   LIG    1       24.493 -29.192   6.381  0.00  0.00    +0.085 A 
ATOM     13  S   LIG    1       25.381 -29.216   4.902  0.00  0.00    -0.080 S 
ATOM     14  C   LIG    1       25.458 -27.507   4.929  0.00  0.00    +0.075 A 
ATOM     15  C   LIG    1       24.853 -27.012   6.069  0.00  0.00    +0.078 A 
ATOM     16  N   LIG    1       24.301 -27.991   6.887  0.00  0.00    -0.244 NA
BRANCH  15  17
ATOM     17  C   LIG    1       24.791 -25.591   6.426  0.00  0.00    +0.001 A 
ATOM     18  C   LIG    1       23.557 -24.921   6.433  0.00  0.00    +0.011 A 
ATOM     19  C   LIG    1       23.473 -23.566   6.783  0.00  0.00    +0.019 A 
ATOM     20  C   LIG    1       24.626 -22.856   7.134  0.00  0.00    +0.052 A 
ATOM     21  C   LIG    1       25.858 -23.513   7.138  0.00  0.00    +0.019 A 
ATOM     22  C   LIG    1       25.938 -24.865   6.788  0.00  0.00    +0.011 A 
BRANCH  20  23
ATOM     23  C   LIG    1       24.551 -21.472   7.482  0.00  0.00    +0.099 C 
ATOM     24  N   LIG    1       24.478 -20.343   7.773  0.00  0.00    -0.191 NA
ENDBRANCH  20  23
ENDBRANCH  15  17
ENDBRANCH  11  12
ENDBRANCH   1  11
BRANCH   1  25
ATOM     25  O   LIG    1       26.257 -30.425   7.975  0.00  0.00    -0.381 OA
ATOM     26  H   LIG    1       26.153 -29.576   7.511  0.00  0.00    +0.211 HD
ENDBRANCH   1  25
BRANCH   1  27
ATOM     27  C   LIG    1       25.161 -32.539   8.043  0.00  0.00    +0.185 C 
BRANCH  27  28
ATOM     28  N   LIG    1       26.509 -32.915   7.663  0.00  0.00    -0.249 N 
ATOM     29  N   LIG    1       26.971 -32.685   6.423  0.00  0.00    -0.158 NA
ATOM     30  C   LIG    1       28.165 -33.282   6.470  0.00  0.00    +0.244 A 
ATOM     31  N   LIG    1       28.495 -33.825   7.679  0.00  0.00    -0.223 NA
ATOM     32  C   LIG    1       27.448 -33.547   8.422  0.00  0.00    +0.219 A 
ENDBRANCH  27  28
ENDBRANCH   1  27
TORSDOF 8
ENDMDL
MODEL 7
REMARK VINA RESULT:      -7.6      6.685     10.459
REMARK  Name = *****
REMARK                            x       y       z     vdW  Elec       q    Type
REMARK                         _______ _______ _______ _____ _____    ______ ____
ROOT
ATOM      1  C   LIG    1       25.084 -30.192   9.979  0.00  0.00    +0.121 C 
ENDROOT
BRANCH   1   2
ATOM      2  C   LIG    1       23.644 -30.106  10.536  0.00  0.00    +0.024 A 
ATOM      3  C   LIG    1       23.331 -29.308  11.649  0.00  0.00    +0.130 A 
ATOM      4  F   LIG    1       24.283 -28.558  12.221  0.00  0.00    -0.205 F 
ATOM      5  C   LIG    1       22.045 -29.278  12.210  0.00  0.00    +0.041 A 
ATOM      6  C   LIG    1       21.021 -30.037  11.648  0.00  0.00    +0.041 A 
ATOM      7  C   LIG    1       21.301 -30.819  10.538  0.00  0.00    +0.124 A 
ATOM      8  F   LIG    1       20.322 -31.542   9.978  0.00  0.00    -0.205 F 
ATOM      9  C   LIG    1       22.587 -30.870   9.996  0.00  0.00    +0.047 A 
ENDBRANCH   1   2
BRANCH   1  11
ATOM     10  C   LIG    1       26.369 -31.560   8.149  0.00  0.00    +0.018 C 
ATOM     11  C   LIG    1       25.105 -30.740   8.489  0.00  0.00    +0.080 C 
BRANCH  11  12
ATOM     12  C   LIG    1       24.947 -29.633   7.455  0.00  0.00    +0.085 A 
ATOM     13  S   LIG    1       24.672 -30.050   5.802  0.00  0.00    -0.080 S 
ATOM     14  C   LIG    1       24.584 -28.387   5.406  0.00  0.00    +0.075 A 
ATOM     15  C   LIG    1       24.811 -27.609   6.525  0.00  0.00    +0.078 A 
ATOM     16  N   LIG    1       25.011 -28.339   7.691  0.00  0.00    -0.244 NA
BRANCH  15  17
ATOM     17  C   LIG    1       24.856 -26.143   6.522  0.00  0.00    +0.001 A 
ATOM     18  C   LIG    1       23.680 -25.403   6.325  0.00  0.00    +0.011 A 
ATOM     19  C   LIG    1       23.700 -24.001   6.331  0.00  0.00    +0.019 A 
ATOM     20  C   LIG    1       24.900 -23.314   6.535  0.00  0.00    +0.052 A 
ATOM     21  C   LIG    1       26.076 -24.038   6.739  0.00  0.00    +0.019 A 
ATOM     22  C   LIG    1       26.053 -25.437   6.732  0.00  0.00    +0.011 A 
BRANCH  20  23
ATOM     23  C   LIG    1       24.931 -21.885   6.532  0.00  0.00    +0.099 C 
ATOM     24  N   LIG    1       24.952 -20.717   6.517  0.00  0.00    -0.191 NA
ENDBRANCH  20  23
ENDBRANCH  15  17
ENDBRANCH  11  12
ENDBRANCH   1  11
BRANCH   1  25
ATOM     25  O   LIG    1       25.711 -28.887   9.968  0.00  0.00    -0.381 OA
ATOM     26  H   LIG    1       25.116 -28.266   9.513  0.00  0.00    +0.211 HD
ENDBRANCH   1  25
BRANCH   1  27
ATOM     27  C   LIG    1       26.040 -31.076  10.848  0.00  0.00    +0.185 C 
BRANCH  27  28
ATOM     28  N   LIG    1       27.047 -30.325  11.572  0.00  0.00    -0.249 N 
ATOM     29  N   LIG    1       28.165 -29.894  10.963  0.00  0.00    -0.158 NA
ATOM     30  C   LIG    1       28.845 -29.381  11.991  0.00  0.00    +0.244 A 
ATOM     31  N   LIG    1       28.198 -29.418  13.193  0.00  0.00    -0.223 NA
ATOM     32  C   LIG    1       27.052 -29.986  12.892  0.00  0.00    +0.219 A 
ENDBRANCH  27  28
ENDBRANCH   1  27
TORSDOF 8
ENDMDL
MODEL 8
REMARK VINA RESULT:      -7.5      7.369     10.512
REMARK  Name = *****
REMARK                            x       y       z     vdW  Elec       q    Type
REMARK                         _______ _______ _______ _____ _____    ______ ____
ROOT
ATOM      1  C   LIG    1       24.795 -30.324   8.277  0.00  0.00    +0.121 C 
ENDROOT
BRANCH   1   2
ATOM      2  C   LIG    1       24.926 -31.549   7.342  0.00  0.00    +0.024 A 
ATOM      3  C   LIG    1       26.119 -32.287   7.256  0.00  0.00    +0.130 A 
ATOM      4  F   LIG    1       27.161 -31.963   8.033  0.00  0.00    -0.205 F 
ATOM      5  C   LIG    1       26.275 -33.354   6.358  0.00  0.00    +0.041 A 
ATOM      6  C   LIG    1       25.219 -33.730   5.532  0.00  0.00    +0.041 A 
ATOM      7  C   LIG    1       24.026 -33.030   5.612  0.00  0.00    +0.124 A 
ATOM      8  F   LIG    1       22.996 -33.392   4.834  0.00  0.00    -0.205 F 
ATOM      9  C   LIG    1       23.879 -31.951   6.485  0.00  0.00    +0.047 A 
ENDBRANCH   1   2
BRANCH   1  11
ATOM     10  C   LIG    1       26.402 -28.488   9.236  0.00  0.00    +0.018 C 
ATOM     11  C   LIG    1       25.911 -29.236   7.976  0.00  0.00    +0.080 C 
BRANCH  11  12
ATOM     12  C   LIG    1       25.469 -28.212   6.940  0.00  0.00    +0.085 A 
ATOM     13  S   LIG    1       25.437 -28.651   5.272  0.00  0.00    -0.080 S 
ATOM     14  C   LIG    1       24.847 -27.093   4.880  0.00  0.00    +0.075 A 
ATOM     15  C   LIG    1       24.747 -26.312   6.016  0.00  0.00    +0.078 A 
ATOM     16  N   LIG    1       25.103 -26.970   7.188  0.00  0.00    -0.244 NA
BRANCH  15  17
ATOM     17  C   LIG    1       24.323 -24.909   6.025  0.00  0.00    +0.001 A 
ATOM     18  C   LIG    1       25.058 -23.947   5.315  0.00  0.00    +0.011 A 
ATOM     19  C   LIG    1       24.662 -22.602   5.300  0.00  0.00    +0.019 A 
ATOM     20  C   LIG    1       23.521 -22.195   5.997  0.00  0.00    +0.052 A 
ATOM     21  C   LIG    1       22.776 -23.144   6.702  0.00  0.00    +0.019 A 
ATOM     22  C   LIG    1       23.175 -24.484   6.714  0.00  0.00    +0.011 A 
BRANCH  20  23
ATOM     23  C   LIG    1       23.116 -20.824   5.995  0.00  0.00    +0.099 C 
ATOM     24  N   LIG    1       22.787 -19.703   5.981  0.00  0.00    -0.191 NA
ENDBRANCH  20  23
ENDBRANCH  15  17
ENDBRANCH  11  12
ENDBRANCH   1  11
BRANCH   1  25
ATOM     25  O   LIG    1       23.509 -29.682   8.107  0.00  0.00    -0.381 OA
ATOM     26  H   LIG    1       23.660 -28.768   7.810  0.00  0.00    +0.211 HD
ENDBRANCH   1  25
BRANCH   1  27
ATOM     27  C   LIG    1       24.851 -30.688   9.799  0.00  0.00    +0.185 C 
BRANCH  27  28
ATOM     28  N   LIG    1       23.571 -30.606  10.475  0.00  0.00    -0.249 N 
ATOM     29  N   LIG    1       22.549 -31.405  10.126  0.00  0.00    -0.158 NA
ATOM     30  C   LIG    1       21.564 -30.923  10.888  0.00  0.00    +0.244 A 
ATOM     31  N   LIG    1       21.923 -29.906  11.727  0.00  0.00    -0.223 NA
ATOM     32  C   LIG    1       23.202 -29.752  11.470  0.00  0.00    +0.219 A 
ENDBRANCH  27  28
ENDBRANCH   1  27
TORSDOF 8
ENDMDL
MODEL 9
REMARK VINA RESULT:      -7.2      7.272     11.159
REMARK  Name = *****
REMARK                            x       y       z     vdW  Elec       q    Type
REMARK                         _______ _______ _______ _____ _____    ______ ____
ROOT
ATOM      1  C   LIG    1       25.607 -31.574   8.439  0.00  0.00    +0.121 C 
ENDROOT
BRANCH   1   2
ATOM      2  C   LIG    1       25.538 -31.318   9.962  0.00  0.00    +0.024 A 
ATOM      3  C   LIG    1       25.854 -30.065  10.515  0.00  0.00    +0.130 A 
ATOM      4  F   LIG    1       26.176 -29.044   9.711  0.00  0.00    -0.205 F 
ATOM      5  C   LIG    1       25.867 -29.841  11.901  0.00  0.00    +0.041 A 
ATOM      6  C   LIG    1       25.536 -30.871  12.777  0.00  0.00    +0.041 A 
ATOM      7  C   LIG    1       25.203 -32.111  12.255  0.00  0.00    +0.124 A 
ATOM      8  F   LIG    1       24.867 -33.107  13.086  0.00  0.00    -0.205 F 
ATOM      9  C   LIG    1       25.216 -32.343  10.878  0.00  0.00    +0.047 A 
ENDBRANCH   1   2
BRANCH   1  11
ATOM     10  C   LIG    1       23.622 -32.065   6.798  0.00  0.00    +0.018 C 
ATOM     11  C   LIG    1       24.322 -31.017   7.692  0.00  0.00    +0.080 C 
BRANCH  11  12
ATOM     12  C   LIG    1       24.619 -29.780   6.854  0.00  0.00    +0.085 A 
ATOM     13  S   LIG    1       25.160 -29.969   5.226  0.00  0.00    -0.080 S 
ATOM     14  C   LIG    1       25.201 -28.267   5.051  0.00  0.00    +0.075 A 
ATOM     15  C   LIG    1       24.851 -27.648   6.236  0.00  0.00    +0.078 A 
ATOM     16  N   LIG    1       24.515 -28.530   7.257  0.00  0.00    -0.244 NA
BRANCH  15  17
ATOM     17  C   LIG    1       24.835 -26.197   6.442  0.00  0.00    +0.001 A 
ATOM     18  C   LIG    1       26.024 -25.516   6.744  0.00  0.00    +0.011 A 
ATOM     19  C   LIG    1       26.033 -24.126   6.932  0.00  0.00    +0.019 A 
ATOM     20  C   LIG    1       24.848 -23.392   6.821  0.00  0.00    +0.052 A 
ATOM     21  C   LIG    1       23.659 -24.057   6.514  0.00  0.00    +0.019 A 
ATOM     22  C   LIG    1       23.655 -25.443   6.327  0.00  0.00    +0.011 A 
BRANCH  20  23
ATOM     23  C   LIG    1       24.846 -21.977   7.022  0.00  0.00    +0.099 C 
ATOM     24  N   LIG    1       24.858 -20.820   7.183  0.00  0.00    -0.191 NA
ENDBRANCH  20  23
ENDBRANCH  15  17
ENDBRANCH  11  12
ENDBRANCH   1  11
BRANCH   1  25
ATOM     25  O   LIG    1       26.762 -30.919   7.860  0.00  0.00    -0.381 OA
ATOM     26  H   LIG    1       26.737 -31.052   6.896  0.00  0.00    +0.211 HD
ENDBRANCH   1  25
BRANCH   1  27
ATOM     27  C   LIG    1       25.786 -33.083   8.064  0.00  0.00    +0.185 C 
BRANCH  27  28
ATOM     28  N   LIG    1       26.855 -33.336   7.116  0.00  0.00    -0.249 N 
ATOM     29  N   LIG    1       28.126 -33.486   7.526  0.00  0.00    -0.158 NA
ATOM     30  C   LIG    1       28.771 -33.569   6.360  0.00  0.00    +0.244 A 
ATOM     31  N   LIG    1       27.975 -33.531   5.251  0.00  0.00    -0.223 NA
ATOM     32  C   LIG    1       26.769 -33.420   5.759  0.00  0.00    +0.219 A 
ENDBRANCH  27  28
ENDBRANCH   1  27
TORSDOF 8
ENDMDL
