MODEL 1
REMARK VINA RESULT:      -5.9      0.000      0.000
REMARK  Name = *****
REMARK                            x       y       z     vdW  Elec       q    Type
REMARK                         _______ _______ _______ _____ _____    ______ ____
ROOT
ATOM      1  C   LIG    1       23.224 -21.593   5.481  0.00  0.00    +0.156 A 
ATOM      2  C   LIG    1       24.011 -22.628   6.009  0.00  0.00    +0.114 A 
ATOM      3  C   LIG    1       25.356 -22.349   6.352  0.00  0.00    +0.017 A 
ATOM      4  C   LIG    1       26.105 -23.423   6.893  0.00  0.00    +0.012 A 
ATOM      5  C   LIG    1       25.534 -24.676   7.081  0.00  0.00    +0.020 A 
ATOM      6  C   LIG    1       24.222 -24.842   6.713  0.00  0.00    +0.111 A 
ATOM      7  C   LIG    1       25.858 -21.035   6.143  0.00  0.00    +0.024 A 
ATOM      8  I   LIG    1       27.846 -20.474   6.590  0.00  0.00    -0.043 I 
ATOM      9  C   LIG    1       25.049 -20.020   5.625  0.00  0.00    +0.033 A 
ATOM     10  N   LIG    1       23.469 -23.857   6.185  0.00  0.00    -0.251 NA
ATOM     11  C   LIG    1       23.730 -20.301   5.299  0.00  0.00    +0.058 A 
ATOM     12  I   LIG    1       22.539 -18.754   4.550  0.00  0.00    -0.040 I 
ENDROOT
BRANCH   1  13
ATOM     13  O   LIG    1       21.916 -21.875   5.148  0.00  0.00    -0.504 OA
ATOM     14  H   LIG    1       21.382 -21.077   5.294  0.00  0.00    +0.292 HD
ENDBRANCH   1  13
TORSDOF 1
ENDMDL
MODEL 2
REMARK VINA RESULT:      -5.8      2.694      4.066
REMARK  Name = *****
REMARK                            x       y       z     vdW  Elec       q    Type
REMARK                         _______ _______ _______ _____ _____    ______ ____
ROOT
ATOM      1  C   LIG    1       26.692 -21.044   7.559  0.00  0.00    +0.156 A 
ATOM      2  C   LIG    1       25.372 -21.247   7.127  0.00  0.00    +0.114 A 
ATOM      3  C   LIG    1       24.978 -20.709   5.877  0.00  0.00    +0.017 A 
ATOM      4  C   LIG    1       23.641 -20.954   5.479  0.00  0.00    +0.012 A 
ATOM      5  C   LIG    1       22.775 -21.691   6.277  0.00  0.00    +0.020 A 
ATOM      6  C   LIG    1       23.257 -22.166   7.472  0.00  0.00    +0.111 A 
ATOM      7  C   LIG    1       25.931 -19.980   5.114  0.00  0.00    +0.024 A 
ATOM      8  I   LIG    1       25.486 -19.106   3.243  0.00  0.00    -0.043 I 
ATOM      9  C   LIG    1       27.242 -19.801   5.565  0.00  0.00    +0.033 A 
ATOM     10  N   LIG    1       24.515 -21.954   7.901  0.00  0.00    -0.251 NA
ATOM     11  C   LIG    1       27.621 -20.338   6.787  0.00  0.00    +0.058 A 
ATOM     12  I   LIG    1       29.596 -20.074   7.420  0.00  0.00    -0.040 I 
ENDROOT
BRANCH   1  13
ATOM     13  O   LIG    1       27.064 -21.569   8.779  0.00  0.00    -0.504 OA
ATOM     14  H   LIG    1       28.034 -21.603   8.815  0.00  0.00    +0.292 HD
ENDBRANCH   1  13
TORSDOF 1
ENDMDL
MODEL 3
REMARK VINA RESULT:      -5.7      2.210      3.958
REMARK  Name = *****
REMARK                            x       y       z     vdW  Elec       q    Type
REMARK                         _______ _______ _______ _____ _____    ______ ____
ROOT
ATOM      1  C   LIG    1       24.184 -24.165   6.251  0.00  0.00    +0.156 A 
ATOM      2  C   LIG    1       23.862 -22.802   6.159  0.00  0.00    +0.114 A 
ATOM      3  C   LIG    1       24.856 -21.848   6.483  0.00  0.00    +0.017 A 
ATOM      4  C   LIG    1       24.488 -20.486   6.362  0.00  0.00    +0.012 A 
ATOM      5  C   LIG    1       23.216 -20.120   5.937  0.00  0.00    +0.020 A 
ATOM      6  C   LIG    1       22.324 -21.124   5.650  0.00  0.00    +0.111 A 
ATOM      7  C   LIG    1       26.138 -22.307   6.894  0.00  0.00    +0.024 A 
ATOM      8  I   LIG    1       27.715 -21.004   7.424  0.00  0.00    -0.043 I 
ATOM      9  C   LIG    1       26.435 -23.671   6.967  0.00  0.00    +0.033 A 
ATOM     10  N   LIG    1       22.622 -22.433   5.758  0.00  0.00    -0.251 NA
ATOM     11  C   LIG    1       25.456 -24.598   6.640  0.00  0.00    +0.058 A 
ATOM     12  I   LIG    1       25.940 -26.631   6.735  0.00  0.00    -0.040 I 
ENDROOT
BRANCH   1  13
ATOM     13  O   LIG    1       23.207 -25.087   5.935  0.00  0.00    -0.504 OA
ATOM     14  H   LIG    1       22.357 -24.761   6.275  0.00  0.00    +0.292 HD
ENDBRANCH   1  13
TORSDOF 1
ENDMDL
MODEL 4
REMARK VINA RESULT:      -5.7      2.696      4.010
REMARK  Name = *****
REMARK                            x       y       z     vdW  Elec       q    Type
REMARK                         _______ _______ _______ _____ _____    ______ ____
ROOT
ATOM      1  C   LIG    1       27.641 -21.196   7.151  0.00  0.00    +0.156 A 
ATOM      2  C   LIG    1       26.446 -21.890   6.907  0.00  0.00    +0.114 A 
ATOM      3  C   LIG    1       25.597 -21.432   5.870  0.00  0.00    +0.017 A 
ATOM      4  C   LIG    1       24.410 -22.173   5.654  0.00  0.00    +0.012 A 
ATOM      5  C   LIG    1       24.110 -23.294   6.420  0.00  0.00    +0.020 A 
ATOM      6  C   LIG    1       25.000 -23.652   7.403  0.00  0.00    +0.111 A 
ATOM      7  C   LIG    1       25.985 -20.287   5.123  0.00  0.00    +0.024 A 
ATOM      8  I   LIG    1       24.816 -19.479   3.559  0.00  0.00    -0.043 I 
ATOM      9  C   LIG    1       27.186 -19.621   5.380  0.00  0.00    +0.033 A 
ATOM     10  N   LIG    1       26.138 -22.976   7.655  0.00  0.00    -0.251 NA
ATOM     11  C   LIG    1       28.015 -20.081   6.393  0.00  0.00    +0.058 A 
ATOM     12  I   LIG    1       29.818 -19.078   6.737  0.00  0.00    -0.040 I 
ENDROOT
BRANCH   1  13
ATOM     13  O   LIG    1       28.460 -21.649   8.165  0.00  0.00    -0.504 OA
ATOM     14  H   LIG    1       28.208 -22.562   8.379  0.00  0.00    +0.292 HD
ENDBRANCH   1  13
TORSDOF 1
ENDMDL
MODEL 5
REMARK VINA RESULT:      -5.6      3.122      4.243
REMARK  Name = *****
REMARK                            x       y       z     vdW  Elec       q    Type
REMARK                         _______ _______ _______ _____ _____    ______ ____
ROOT
ATOM      1  C   LIG    1       25.851 -22.243   6.984  0.00  0.00    +0.156 A 
ATOM      2  C   LIG    1       26.938 -21.383   6.764  0.00  0.00    +0.114 A 
ATOM      3  C   LIG    1       26.819 -20.381   5.770  0.00  0.00    +0.017 A 
ATOM      4  C   LIG    1       27.938 -19.530   5.595  0.00  0.00    +0.012 A 
ATOM      5  C   LIG    1       29.082 -19.676   6.370  0.00  0.00    +0.020 A 
ATOM      6  C   LIG    1       29.096 -20.682   7.305  0.00  0.00    +0.111 A 
ATOM      7  C   LIG    1       25.608 -20.290   5.031  0.00  0.00    +0.024 A 
ATOM      8  I   LIG    1       25.289 -18.859   3.509  0.00  0.00    -0.043 I 
ATOM      9  C   LIG    1       24.537 -21.153   5.279  0.00  0.00    +0.033 A 
ATOM     10  N   LIG    1       28.063 -21.523   7.504  0.00  0.00    -0.251 NA
ATOM     11  C   LIG    1       24.660 -22.127   6.259  0.00  0.00    +0.058 A 
ATOM     12  I   LIG    1       23.030 -23.386   6.622  0.00  0.00    -0.040 I 
ENDROOT
BRANCH   1  13
ATOM     13  O   LIG    1       25.979 -23.218   7.952  0.00  0.00    -0.504 OA
ATOM     14  H   LIG    1       25.564 -24.032   7.624  0.00  0.00    +0.292 HD
ENDBRANCH   1  13
TORSDOF 1
ENDMDL
MODEL 6
REMARK VINA RESULT:      -5.5      3.278      5.088
REMARK  Name = *****
REMARK                            x       y       z     vdW  Elec       q    Type
REMARK                         _______ _______ _______ _____ _____    ______ ____
ROOT
ATOM      1  C   LIG    1       27.144 -19.995   5.548  0.00  0.00    +0.156 A 
ATOM      2  C   LIG    1       25.931 -19.832   4.863  0.00  0.00    +0.114 A 
ATOM      3  C   LIG    1       24.833 -20.651   5.223  0.00  0.00    +0.017 A 
ATOM      4  C   LIG    1       23.627 -20.439   4.512  0.00  0.00    +0.012 A 
ATOM      5  C   LIG    1       23.537 -19.470   3.520  0.00  0.00    +0.020 A 
ATOM      6  C   LIG    1       24.661 -18.731   3.245  0.00  0.00    +0.111 A 
ATOM      7  C   LIG    1       25.005 -21.608   6.261  0.00  0.00    +0.024 A 
ATOM      8  I   LIG    1       23.466 -22.909   6.897  0.00  0.00    -0.043 I 
ATOM      9  C   LIG    1       26.222 -21.742   6.935  0.00  0.00    +0.033 A 
ATOM     10  N   LIG    1       25.834 -18.899   3.886  0.00  0.00    -0.251 NA
ATOM     11  C   LIG    1       27.290 -20.930   6.579  0.00  0.00    +0.058 A 
ATOM     12  I   LIG    1       29.089 -21.138   7.623  0.00  0.00    -0.040 I 
ENDROOT
BRANCH   1  13
ATOM     13  O   LIG    1       28.208 -19.194   5.187  0.00  0.00    -0.504 OA
ATOM     14  H   LIG    1       29.027 -19.706   5.290  0.00  0.00    +0.292 HD
ENDBRANCH   1  13
TORSDOF 1
ENDMDL
MODEL 7
REMARK VINA RESULT:      -5.3      6.563      8.426
REMARK  Name = *****
REMARK                            x       y       z     vdW  Elec       q    Type
REMARK                         _______ _______ _______ _____ _____    ______ ____
ROOT
ATOM      1  C   LIG    1       24.086 -30.387   6.636  0.00  0.00    +0.156 A 
ATOM      2  C   LIG    1       24.649 -29.109   6.502  0.00  0.00    +0.114 A 
ATOM      3  C   LIG    1       25.421 -28.593   7.571  0.00  0.00    +0.017 A 
ATOM      4  C   LIG    1       25.979 -27.305   7.382  0.00  0.00    +0.012 A 
ATOM      5  C   LIG    1       25.779 -26.599   6.201  0.00  0.00    +0.020 A 
ATOM      6  C   LIG    1       25.011 -27.189   5.227  0.00  0.00    +0.111 A 
ATOM      7  C   LIG    1       25.591 -29.386   8.739  0.00  0.00    +0.024 A 
ATOM      8  I   LIG    1       26.700 -28.745  10.419  0.00  0.00    -0.043 I 
ATOM      9  C   LIG    1       25.027 -30.661   8.842  0.00  0.00    +0.033 A 
ATOM     10  N   LIG    1       24.451 -28.406   5.361  0.00  0.00    -0.251 NA
ATOM     11  C   LIG    1       24.278 -31.161   7.786  0.00  0.00    +0.058 A 
ATOM     12  I   LIG    1       23.470 -33.082   7.961  0.00  0.00    -0.040 I 
ENDROOT
BRANCH   1  13
ATOM     13  O   LIG    1       23.333 -30.879   5.590  0.00  0.00    -0.504 OA
ATOM     14  H   LIG    1       22.690 -31.514   5.947  0.00  0.00    +0.292 HD
ENDBRANCH   1  13
TORSDOF 1
ENDMDL
MODEL 8
REMARK VINA RESULT:      -5.2      6.275      7.899
REMARK  Name = *****
REMARK                            x       y       z     vdW  Elec       q    Type
REMARK                         _______ _______ _______ _____ _____    ______ ____
ROOT
ATOM      1  C   LIG    1       24.390 -28.890   6.073  0.00  0.00    +0.156 A 
ATOM      2  C   LIG    1       24.347 -30.098   6.786  0.00  0.00    +0.114 A 
ATOM      3  C   LIG    1       25.028 -30.178   8.025  0.00  0.00    +0.017 A 
ATOM      4  C   LIG    1       24.944 -31.413   8.712  0.00  0.00    +0.012 A 
ATOM      5  C   LIG    1       24.220 -32.479   8.191  0.00  0.00    +0.020 A 
ATOM      6  C   LIG    1       23.599 -32.298   6.980  0.00  0.00    +0.111 A 
ATOM      7  C   LIG    1       25.732 -29.035   8.495  0.00  0.00    +0.024 A 
ATOM      8  I   LIG    1       26.805 -29.008  10.314  0.00  0.00    -0.043 I 
ATOM      9  C   LIG    1       25.749 -27.841   7.769  0.00  0.00    +0.033 A 
ATOM     10  N   LIG    1       23.656 -31.148   6.282  0.00  0.00    -0.251 NA
ATOM     11  C   LIG    1       25.073 -27.769   6.559  0.00  0.00    +0.058 A 
ATOM     12  I   LIG    1       25.097 -25.961   5.510  0.00  0.00    -0.040 I 
ENDROOT
BRANCH   1  13
ATOM     13  O   LIG    1       23.726 -28.823   4.865  0.00  0.00    -0.504 OA
ATOM     14  H   LIG    1       23.072 -28.106   4.913  0.00  0.00    +0.292 HD
ENDBRANCH   1  13
TORSDOF 1
ENDMDL
MODEL 9
REMARK VINA RESULT:      -5.0      4.290      5.186
REMARK  Name = *****
REMARK                            x       y       z     vdW  Elec       q    Type
REMARK                         _______ _______ _______ _____ _____    ______ ____
ROOT
ATOM      1  C   LIG    1       27.959 -19.085   5.213  0.00  0.00    +0.156 A 
ATOM      2  C   LIG    1       28.756 -19.662   6.213  0.00  0.00    +0.114 A 
ATOM      3  C   LIG    1       28.220 -20.730   6.974  0.00  0.00    +0.017 A 
ATOM      4  C   LIG    1       29.067 -21.288   7.963  0.00  0.00    +0.012 A 
ATOM      5  C   LIG    1       30.357 -20.809   8.159  0.00  0.00    +0.020 A 
ATOM      6  C   LIG    1       30.779 -19.768   7.369  0.00  0.00    +0.111 A 
ATOM      7  C   LIG    1       26.896 -21.170   6.699  0.00  0.00    +0.024 A 
ATOM      8  I   LIG    1       25.957 -22.738   7.759  0.00  0.00    -0.043 I 
ATOM      9  C   LIG    1       26.128 -20.583   5.689  0.00  0.00    +0.033 A 
ATOM     10  N   LIG    1       30.010 -19.197   6.422  0.00  0.00    -0.251 NA
ATOM     11  C   LIG    1       26.665 -19.543   4.944  0.00  0.00    +0.058 A 
ATOM     12  I   LIG    1       25.500 -18.704   3.423  0.00  0.00    -0.040 I 
ENDROOT
BRANCH   1  13
ATOM     13  O   LIG    1       28.490 -18.044   4.479  0.00  0.00    -0.504 OA
ATOM     14  H   LIG    1       28.273 -17.210   4.928  0.00  0.00    +0.292 HD
ENDBRANCH   1  13
TORSDOF 1
ENDMDL
