MODEL 1
REMARK VINA RESULT:      -6.4      0.000      0.000
REMARK  Name = *****
REMARK                            x       y       z     vdW  Elec       q    Type
REMARK                         _______ _______ _______ _____ _____    ______ ____
ROOT
ATOM      1  C   LIG    1       24.737 -29.535   7.137  0.00  0.00    +0.252 C 
ATOM      2  O   LIG    1       23.759 -30.066   8.038  0.00  0.00    -0.334 OA
ATOM      3  C   LIG    1       24.212 -31.370   8.447  0.00  0.00    +0.164 C 
ATOM      4  C   LIG    1       25.627 -31.467   7.893  0.00  0.00    +0.161 C 
ATOM      5  C   LIG    1       26.581 -30.998   9.001  0.00  0.00    +0.039 C 
ATOM      6  C   LIG    1       25.737 -30.713  10.257  0.00  0.00    +0.004 C 
ATOM      7  C   LIG    1       25.451 -29.236  10.620  0.00  0.00    -0.000 C 
ATOM      8  C   LIG    1       24.754 -29.164  12.010  0.00  0.00    +0.035 C 
ATOM      9  C   LIG    1       23.647 -30.253  12.132  0.00  0.00    +0.120 C 
ATOM     10  C   LIG    1       23.217 -30.845  10.785  0.00  0.00    +0.042 C 
ATOM     11  C   LIG    1       25.717 -29.090  13.276  0.00  0.00    +0.013 C 
ATOM     12  C   LIG    1       26.929 -28.167  12.998  0.00  0.00    -0.056 C 
ATOM     13  C   LIG    1       27.775 -27.910  14.022  0.00  0.00    +0.051 C 
ATOM     14  C   LIG    1       28.359 -29.204  14.542  0.00  0.00    +0.179 C 
ATOM     15  C   LIG    1       27.561 -30.450  14.335  0.00  0.00    +0.047 C 
ATOM     16  O   LIG    1       29.413 -29.219  15.173  0.00  0.00    -0.288 OA
ATOM     17  C   LIG    1       27.596 -28.378  11.649  0.00  0.00    +0.032 C 
ATOM     18  C   LIG    1       24.867 -28.546  14.461  0.00  0.00    +0.020 C 
ATOM     19  C   LIG    1       26.340 -30.405  13.764  0.00  0.00    -0.012 C 
ATOM     20  C   LIG    1       26.600 -28.233  10.524  0.00  0.00    +0.008 C 
ATOM     21  C   LIG    1       24.394 -31.479  10.001  0.00  0.00    +0.012 C 
ATOM     22  C   LIG    1       24.583 -32.944  10.464  0.00  0.00    +0.015 C 
ATOM     23  O   LIG    1       25.660 -30.560   6.796  0.00  0.00    -0.345 OA
ENDROOT
BRANCH   9  24
ATOM     24  O   LIG    1       22.491 -29.702  12.765  0.00  0.00    -0.391 OA
ATOM     25  H   LIG    1       21.704 -30.151  12.413  0.00  0.00    +0.210 HD
ENDBRANCH   9  24
BRANCH   3  26
ATOM     26  C   LIG    1       23.275 -32.436   7.846  0.00  0.00    +0.193 C 
ATOM     27  O   LIG    1       22.174 -32.700   8.339  0.00  0.00    -0.292 OA
BRANCH  26  28
ATOM     28  C   LIG    1       23.717 -33.084   6.530  0.00  0.00    +0.233 C 
BRANCH  28  29
ATOM     29  O   LIG    1       23.395 -32.325   5.375  0.00  0.00    -0.387 OA
ATOM     30  H   LIG    1       23.478 -32.921   4.607  0.00  0.00    +0.210 HD
ENDBRANCH  28  29
ENDBRANCH  26  28
ENDBRANCH   3  26
BRANCH   1  31
ATOM     31  C   LIG    1       24.082 -28.951   5.890  0.00  0.00    +0.061 C 
BRANCH  31  33
ATOM     32  C   LIG    1       25.525 -27.010   6.647  0.00  0.00    +0.004 C 
ATOM     33  C   LIG    1       24.400 -27.461   5.729  0.00  0.00    +0.002 C 
ENDBRANCH  31  33
ENDBRANCH   1  31
TORSDOF 6
ENDMDL
MODEL 2
REMARK VINA RESULT:      -6.4      7.422     10.303
REMARK  Name = *****
REMARK                            x       y       z     vdW  Elec       q    Type
REMARK                         _______ _______ _______ _____ _____    ______ ____
ROOT
ATOM      1  C   LIG    1       25.996 -24.411   6.232  0.00  0.00    +0.252 C 
ATOM      2  O   LIG    1       25.573 -23.179   5.638  0.00  0.00    -0.334 OA
ATOM      3  C   LIG    1       24.922 -22.407   6.663  0.00  0.00    +0.164 C 
ATOM      4  C   LIG    1       25.189 -23.182   7.945  0.00  0.00    +0.161 C 
ATOM      5  C   LIG    1       26.458 -22.592   8.576  0.00  0.00    +0.039 C 
ATOM      6  C   LIG    1       26.897 -21.393   7.715  0.00  0.00    +0.004 C 
ATOM      7  C   LIG    1       28.103 -21.583   6.765  0.00  0.00    -0.000 C 
ATOM      8  C   LIG    1       28.495 -20.213   6.137  0.00  0.00    +0.035 C 
ATOM      9  C   LIG    1       27.228 -19.428   5.684  0.00  0.00    +0.120 C 
ATOM     10  C   LIG    1       25.974 -20.302   5.570  0.00  0.00    +0.042 C 
ATOM     11  C   LIG    1       29.530 -19.330   6.965  0.00  0.00    +0.013 C 
ATOM     12  C   LIG    1       30.639 -20.214   7.587  0.00  0.00    -0.056 C 
ATOM     13  C   LIG    1       31.659 -19.591   8.223  0.00  0.00    +0.051 C 
ATOM     14  C   LIG    1       31.120 -18.753   9.360  0.00  0.00    +0.179 C 
ATOM     15  C   LIG    1       29.710 -18.270   9.249  0.00  0.00    +0.047 C 
ATOM     16  O   LIG    1       31.835 -18.423  10.302  0.00  0.00    -0.288 OA
ATOM     17  C   LIG    1       30.144 -21.485   8.256  0.00  0.00    +0.032 C 
ATOM     18  C   LIG    1       30.136 -18.294   5.975  0.00  0.00    +0.020 C 
ATOM     19  C   LIG    1       28.976 -18.521   8.146  0.00  0.00    -0.012 C 
ATOM     20  C   LIG    1       29.332 -22.320   7.296  0.00  0.00    +0.008 C 
ATOM     21  C   LIG    1       25.614 -21.019   6.895  0.00  0.00    +0.012 C 
ATOM     22  C   LIG    1       24.749 -20.075   7.766  0.00  0.00    +0.015 C 
ATOM     23  O   LIG    1       25.422 -24.523   7.528  0.00  0.00    -0.345 OA
ENDROOT
BRANCH   9  24
ATOM     24  O   LIG    1       27.464 -18.818   4.414  0.00  0.00    -0.391 OA
ATOM     25  H   LIG    1       27.740 -19.509   3.787  0.00  0.00    +0.210 HD
ENDBRANCH   9  24
BRANCH   3  26
ATOM     26  C   LIG    1       23.417 -22.314   6.339  0.00  0.00    +0.193 C 
ATOM     27  O   LIG    1       22.556 -22.835   7.053  0.00  0.00    -0.292 OA
BRANCH  26  28
ATOM     28  C   LIG    1       23.018 -21.441   5.145  0.00  0.00    +0.233 C 
BRANCH  28  29
ATOM     29  O   LIG    1       23.642 -21.810   3.925  0.00  0.00    -0.387 OA
ATOM     30  H   LIG    1       24.118 -21.024   3.596  0.00  0.00    +0.210 HD
ENDBRANCH  28  29
ENDBRANCH  26  28
ENDBRANCH   3  26
BRANCH   1  31
ATOM     31  C   LIG    1       25.617 -25.605   5.361  0.00  0.00    +0.061 C 
BRANCH  31  33
ATOM     32  C   LIG    1       24.466 -27.741   6.093  0.00  0.00    +0.004 C 
ATOM     33  C   LIG    1       24.309 -26.252   5.827  0.00  0.00    +0.002 C 
ENDBRANCH  31  33
ENDBRANCH   1  31
TORSDOF 6
ENDMDL
MODEL 3
REMARK VINA RESULT:      -5.5      2.888      6.769
REMARK  Name = *****
REMARK                            x       y       z     vdW  Elec       q    Type
REMARK                         _______ _______ _______ _____ _____    ______ ____
ROOT
ATOM      1  C   LIG    1       25.849 -26.876  13.279  0.00  0.00    +0.252 C 
ATOM      2  O   LIG    1       25.928 -27.721  12.126  0.00  0.00    -0.334 OA
ATOM      3  C   LIG    1       26.307 -29.033  12.577  0.00  0.00    +0.164 C 
ATOM      4  C   LIG    1       26.231 -28.945  14.095  0.00  0.00    +0.161 C 
ATOM      5  C   LIG    1       24.829 -29.419  14.506  0.00  0.00    +0.039 C 
ATOM      6  C   LIG    1       24.099 -29.885  13.234  0.00  0.00    +0.004 C 
ATOM      7  C   LIG    1       23.021 -28.952  12.632  0.00  0.00    -0.000 C 
ATOM      8  C   LIG    1       22.280 -29.686  11.475  0.00  0.00    +0.035 C 
ATOM      9  C   LIG    1       23.290 -30.444  10.563  0.00  0.00    +0.120 C 
ATOM     10  C   LIG    1       24.742 -29.983  10.740  0.00  0.00    +0.042 C 
ATOM     11  C   LIG    1       21.017 -30.560  11.893  0.00  0.00    +0.013 C 
ATOM     12  C   LIG    1       20.181 -29.843  12.981  0.00  0.00    -0.056 C 
ATOM     13  C   LIG    1       19.010 -30.411  13.354  0.00  0.00    +0.051 C 
ATOM     14  C   LIG    1       19.261 -31.804  13.884  0.00  0.00    +0.179 C 
ATOM     15  C   LIG    1       20.482 -32.515  13.398  0.00  0.00    +0.047 C 
ATOM     16  O   LIG    1       18.455 -32.356  14.629  0.00  0.00    -0.288 OA
ATOM     17  C   LIG    1       20.992 -29.238  14.115  0.00  0.00    +0.032 C 
ATOM     18  C   LIG    1       20.174 -30.784  10.604  0.00  0.00    +0.020 C 
ATOM     19  C   LIG    1       21.289 -31.955  12.474  0.00  0.00    -0.012 C 
ATOM     20  C   LIG    1       22.032 -28.281  13.585  0.00  0.00    +0.008 C 
ATOM     21  C   LIG    1       25.249 -30.126  12.196  0.00  0.00    +0.012 C 
ATOM     22  C   LIG    1       25.791 -31.561  12.408  0.00  0.00    +0.015 C 
ATOM     23  O   LIG    1       26.394 -27.564  14.397  0.00  0.00    -0.345 OA
ENDROOT
BRANCH   9  24
ATOM     24  O   LIG    1       22.931 -30.271   9.192  0.00  0.00    -0.391 OA
ATOM     25  H   LIG    1       22.345 -29.498   9.123  0.00  0.00    +0.210 HD
ENDBRANCH   9  24
BRANCH   3  26
ATOM     26  C   LIG    1       27.735 -29.339  12.081  0.00  0.00    +0.193 C 
ATOM     27  O   LIG    1       28.043 -29.284  10.887  0.00  0.00    -0.292 OA
BRANCH  26  28
ATOM     28  C   LIG    1       28.798 -29.605  13.151  0.00  0.00    +0.233 C 
BRANCH  28  29
ATOM     29  O   LIG    1       30.129 -29.381  12.712  0.00  0.00    -0.387 OA
ATOM     30  H   LIG    1       30.186 -29.705  11.794  0.00  0.00    +0.210 HD
ENDBRANCH  28  29
ENDBRANCH  26  28
ENDBRANCH   3  26
BRANCH   1  31
ATOM     31  C   LIG    1       26.571 -25.552  13.046  0.00  0.00    +0.061 C 
BRANCH  31  33
ATOM     32  C   LIG    1       28.037 -24.413  14.771  0.00  0.00    +0.004 C 
ATOM     33  C   LIG    1       26.614 -24.700  14.318  0.00  0.00    +0.002 C 
ENDBRANCH  31  33
ENDBRANCH   1  31
TORSDOF 6
ENDMDL
MODEL 4
REMARK VINA RESULT:      -5.4      1.835      7.041
REMARK  Name = *****
REMARK                            x       y       z     vdW  Elec       q    Type
REMARK                         _______ _______ _______ _____ _____    ______ ____
ROOT
ATOM      1  C   LIG    1       23.869 -29.512  13.041  0.00  0.00    +0.252 C 
ATOM      2  O   LIG    1       24.848 -28.669  12.423  0.00  0.00    -0.334 OA
ATOM      3  C   LIG    1       26.081 -29.408  12.368  0.00  0.00    +0.164 C 
ATOM      4  C   LIG    1       25.695 -30.816  12.798  0.00  0.00    +0.161 C 
ATOM      5  C   LIG    1       25.386 -31.611  11.522  0.00  0.00    +0.039 C 
ATOM      6  C   LIG    1       25.683 -30.700  10.317  0.00  0.00    +0.004 C 
ATOM      7  C   LIG    1       24.484 -30.067   9.571  0.00  0.00    -0.000 C 
ATOM      8  C   LIG    1       24.988 -29.346   8.287  0.00  0.00    +0.035 C 
ATOM      9  C   LIG    1       26.278 -28.524   8.583  0.00  0.00    +0.120 C 
ATOM     10  C   LIG    1       26.516 -28.272  10.076  0.00  0.00    +0.042 C 
ATOM     11  C   LIG    1       25.089 -30.239   6.973  0.00  0.00    +0.013 C 
ATOM     12  C   LIG    1       23.884 -31.205   6.865  0.00  0.00    -0.056 C 
ATOM     13  C   LIG    1       23.769 -31.948   5.739  0.00  0.00    +0.051 C 
ATOM     14  C   LIG    1       24.998 -32.809   5.564  0.00  0.00    +0.179 C 
ATOM     15  C   LIG    1       26.267 -32.331   6.191  0.00  0.00    +0.047 C 
ATOM     16  O   LIG    1       24.971 -33.825   4.873  0.00  0.00    -0.288 OA
ATOM     17  C   LIG    1       23.528 -31.930   8.152  0.00  0.00    +0.032 C 
ATOM     18  C   LIG    1       25.127 -29.263   5.762  0.00  0.00    +0.020 C 
ATOM     19  C   LIG    1       26.321 -31.145   6.831  0.00  0.00    -0.012 C 
ATOM     20  C   LIG    1       23.273 -30.950   9.271  0.00  0.00    +0.008 C 
ATOM     21  C   LIG    1       26.611 -29.580  10.902  0.00  0.00    +0.012 C 
ATOM     22  C   LIG    1       28.069 -30.099  10.866  0.00  0.00    +0.015 C 
ATOM     23  O   LIG    1       24.516 -30.657  13.580  0.00  0.00    -0.345 OA
ENDROOT
BRANCH   9  24
ATOM     24  O   LIG    1       26.209 -27.259   7.923  0.00  0.00    -0.391 OA
ATOM     25  H   LIG    1       25.721 -27.373   7.089  0.00  0.00    +0.210 HD
ENDBRANCH   9  24
BRANCH   3  26
ATOM     26  C   LIG    1       27.096 -28.760  13.332  0.00  0.00    +0.193 C 
ATOM     27  O   LIG    1       27.318 -27.545  13.335  0.00  0.00    -0.292 OA
BRANCH  26  28
ATOM     28  C   LIG    1       27.742 -29.676  14.376  0.00  0.00    +0.233 C 
BRANCH  28  29
ATOM     29  O   LIG    1       29.143 -29.836  14.217  0.00  0.00    -0.387 OA
ATOM     30  H   LIG    1       29.334 -30.789  14.302  0.00  0.00    +0.210 HD
ENDBRANCH  28  29
ENDBRANCH  26  28
ENDBRANCH   3  26
BRANCH   1  31
ATOM     31  C   LIG    1       23.096 -28.762  14.121  0.00  0.00    +0.061 C 
BRANCH  31  33
ATOM     32  C   LIG    1       22.293 -26.418  13.585  0.00  0.00    +0.004 C 
ATOM     33  C   LIG    1       21.976 -27.904  13.521  0.00  0.00    +0.002 C 
ENDBRANCH  31  33
ENDBRANCH   1  31
TORSDOF 6
ENDMDL
MODEL 5
REMARK VINA RESULT:      -5.3      3.314      5.620
REMARK  Name = *****
REMARK                            x       y       z     vdW  Elec       q    Type
REMARK                         _______ _______ _______ _____ _____    ______ ____
ROOT
ATOM      1  C   LIG    1       20.313 -31.121  11.127  0.00  0.00    +0.252 C 
ATOM      2  O   LIG    1       20.292 -30.161  12.189  0.00  0.00    -0.334 OA
ATOM      3  C   LIG    1       20.764 -30.822  13.377  0.00  0.00    +0.164 C 
ATOM      4  C   LIG    1       21.266 -32.172  12.882  0.00  0.00    +0.161 C 
ATOM      5  C   LIG    1       22.768 -32.021  12.601  0.00  0.00    +0.039 C 
ATOM      6  C   LIG    1       23.184 -30.600  13.024  0.00  0.00    +0.004 C 
ATOM      7  C   LIG    1       23.418 -29.550  11.912  0.00  0.00    -0.000 C 
ATOM      8  C   LIG    1       24.010 -28.251  12.534  0.00  0.00    +0.035 C 
ATOM      9  C   LIG    1       23.266 -27.879  13.851  0.00  0.00    +0.120 C 
ATOM     10  C   LIG    1       21.916 -28.587  14.015  0.00  0.00    +0.042 C 
ATOM     11  C   LIG    1       25.596 -28.191  12.660  0.00  0.00    +0.013 C 
ATOM     12  C   LIG    1       26.275 -28.798  11.406  0.00  0.00    -0.056 C 
ATOM     13  C   LIG    1       27.622 -28.711  11.314  0.00  0.00    +0.051 C 
ATOM     14  C   LIG    1       28.263 -29.398  12.498  0.00  0.00    +0.179 C 
ATOM     15  C   LIG    1       27.459 -29.496  13.754  0.00  0.00    +0.047 C 
ATOM     16  O   LIG    1       29.425 -29.796  12.451  0.00  0.00    -0.288 OA
ATOM     17  C   LIG    1       25.680 -30.113  10.932  0.00  0.00    +0.032 C 
ATOM     18  C   LIG    1       25.982 -26.693  12.828  0.00  0.00    +0.020 C 
ATOM     19  C   LIG    1       26.237 -28.933  13.841  0.00  0.00    -0.012 C 
ATOM     20  C   LIG    1       24.200 -29.975  10.670  0.00  0.00    +0.008 C 
ATOM     21  C   LIG    1       22.035 -30.131  13.981  0.00  0.00    +0.012 C 
ATOM     22  C   LIG    1       22.358 -30.647  15.405  0.00  0.00    +0.015 C 
ATOM     23  O   LIG    1       20.558 -32.410  11.670  0.00  0.00    -0.345 OA
ENDROOT
BRANCH   9  24
ATOM     24  O   LIG    1       23.039 -26.469  13.899  0.00  0.00    -0.391 OA
ATOM     25  H   LIG    1       23.647 -26.038  13.274  0.00  0.00    +0.210 HD
ENDBRANCH   9  24
BRANCH   3  26
ATOM     26  C   LIG    1       19.592 -30.963  14.370  0.00  0.00    +0.193 C 
ATOM     27  O   LIG    1       19.265 -32.052  14.853  0.00  0.00    -0.292 OA
BRANCH  26  28
ATOM     28  C   LIG    1       18.913 -29.669  14.829  0.00  0.00    +0.233 C 
BRANCH  28  29
ATOM     29  O   LIG    1       18.303 -28.933  13.780  0.00  0.00    -0.387 OA
ATOM     30  H   LIG    1       17.361 -29.189  13.760  0.00  0.00    +0.210 HD
ENDBRANCH  28  29
ENDBRANCH  26  28
ENDBRANCH   3  26
BRANCH   1  31
ATOM     31  C   LIG    1       19.008 -31.099  10.337  0.00  0.00    +0.061 C 
BRANCH  31  33
ATOM     32  C   LIG    1       16.977 -31.462  11.809  0.00  0.00    +0.004 C 
ATOM     33  C   LIG    1       17.998 -32.111  10.886  0.00  0.00    +0.002 C 
ENDBRANCH  31  33
ENDBRANCH   1  31
TORSDOF 6
ENDMDL
MODEL 6
REMARK VINA RESULT:      -5.0      2.430      4.288
REMARK  Name = *****
REMARK                            x       y       z     vdW  Elec       q    Type
REMARK                         _______ _______ _______ _____ _____    ______ ____
ROOT
ATOM      1  C   LIG    1       22.765 -32.004  10.348  0.00  0.00    +0.252 C 
ATOM      2  O   LIG    1       24.059 -32.295  10.888  0.00  0.00    -0.334 OA
ATOM      3  C   LIG    1       25.030 -31.626  10.064  0.00  0.00    +0.164 C 
ATOM      4  C   LIG    1       24.199 -30.748   9.139  0.00  0.00    +0.161 C 
ATOM      5  C   LIG    1       24.091 -29.367   9.801  0.00  0.00    +0.039 C 
ATOM      6  C   LIG    1       24.946 -29.392  11.081  0.00  0.00    +0.004 C 
ATOM      7  C   LIG    1       24.215 -29.505  12.440  0.00  0.00    -0.000 C 
ATOM      8  C   LIG    1       25.237 -29.322  13.601  0.00  0.00    +0.035 C 
ATOM      9  C   LIG    1       26.544 -30.122  13.319  0.00  0.00    +0.120 C 
ATOM     10  C   LIG    1       26.387 -31.192  12.233  0.00  0.00    +0.042 C 
ATOM     11  C   LIG    1       25.496 -27.827  14.081  0.00  0.00    +0.013 C 
ATOM     12  C   LIG    1       24.175 -27.018  14.112  0.00  0.00    -0.056 C 
ATOM     13  C   LIG    1       24.216 -25.761  14.613  0.00  0.00    +0.051 C 
ATOM     14  C   LIG    1       25.189 -24.922  13.817  0.00  0.00    +0.179 C 
ATOM     15  C   LIG    1       26.295 -25.638  13.110  0.00  0.00    +0.047 C 
ATOM     16  O   LIG    1       25.116 -23.696  13.810  0.00  0.00    -0.288 OA
ATOM     17  C   LIG    1       23.288 -27.195  12.891  0.00  0.00    +0.032 C 
ATOM     18  C   LIG    1       26.129 -27.908  15.500  0.00  0.00    +0.020 C 
ATOM     19  C   LIG    1       26.450 -26.972  13.236  0.00  0.00    -0.012 C 
ATOM     20  C   LIG    1       22.966 -28.652  12.663  0.00  0.00    +0.008 C 
ATOM     21  C   LIG    1       25.908 -30.612  10.878  0.00  0.00    +0.012 C 
ATOM     22  C   LIG    1       27.135 -30.124  10.071  0.00  0.00    +0.015 C 
ATOM     23  O   LIG    1       22.920 -31.371   9.085  0.00  0.00    -0.345 OA
ENDROOT
BRANCH   9  24
ATOM     24  O   LIG    1       26.988 -30.763  14.515  0.00  0.00    -0.391 OA
ATOM     25  H   LIG    1       27.938 -30.585  14.626  0.00  0.00    +0.210 HD
ENDBRANCH   9  24
BRANCH   3  26
ATOM     26  C   LIG    1       25.844 -32.683   9.291  0.00  0.00    +0.193 C 
ATOM     27  O   LIG    1       26.419 -33.617   9.858  0.00  0.00    -0.292 OA
BRANCH  26  28
ATOM     28  C   LIG    1       25.816 -32.596   7.761  0.00  0.00    +0.233 C 
BRANCH  28  29
ATOM     29  O   LIG    1       26.993 -32.044   7.193  0.00  0.00    -0.387 OA
ATOM     30  H   LIG    1       27.028 -32.339   6.263  0.00  0.00    +0.210 HD
ENDBRANCH  28  29
ENDBRANCH  26  28
ENDBRANCH   3  26
BRANCH   1  31
ATOM     31  C   LIG    1       21.919 -33.267  10.227  0.00  0.00    +0.061 C 
BRANCH  31  33
ATOM     32  C   LIG    1       20.303 -31.681  11.366  0.00  0.00    +0.004 C 
ATOM     33  C   LIG    1       20.572 -33.117  10.943  0.00  0.00    +0.002 C 
ENDBRANCH  31  33
ENDBRANCH   1  31
TORSDOF 6
ENDMDL
MODEL 7
REMARK VINA RESULT:      -4.9      4.187      6.340
REMARK  Name = *****
REMARK                            x       y       z     vdW  Elec       q    Type
REMARK                         _______ _______ _______ _____ _____    ______ ____
ROOT
ATOM      1  C   LIG    1       18.976 -31.819  10.620  0.00  0.00    +0.252 C 
ATOM      2  O   LIG    1       18.464 -30.947  11.634  0.00  0.00    -0.334 OA
ATOM      3  C   LIG    1       18.732 -31.562  12.907  0.00  0.00    +0.164 C 
ATOM      4  C   LIG    1       19.629 -32.746  12.572  0.00  0.00    +0.161 C 
ATOM      5  C   LIG    1       21.082 -32.268  12.712  0.00  0.00    +0.039 C 
ATOM      6  C   LIG    1       21.051 -30.818  13.229  0.00  0.00    +0.004 C 
ATOM      7  C   LIG    1       21.340 -29.680  12.221  0.00  0.00    -0.000 C 
ATOM      8  C   LIG    1       21.447 -28.324  12.978  0.00  0.00    +0.035 C 
ATOM      9  C   LIG    1       20.315 -28.191  14.040  0.00  0.00    +0.120 C 
ATOM     10  C   LIG    1       19.158 -29.175  13.830  0.00  0.00    +0.042 C 
ATOM     11  C   LIG    1       22.889 -27.940  13.532  0.00  0.00    +0.013 C 
ATOM     12  C   LIG    1       23.993 -28.318  12.514  0.00  0.00    -0.056 C 
ATOM     13  C   LIG    1       25.264 -27.946  12.793  0.00  0.00    +0.051 C 
ATOM     14  C   LIG    1       25.699 -28.550  14.109  0.00  0.00    +0.179 C 
ATOM     15  C   LIG    1       24.629 -28.886  15.098  0.00  0.00    +0.047 C 
ATOM     16  O   LIG    1       26.888 -28.693  14.383  0.00  0.00    -0.288 OA
ATOM     17  C   LIG    1       23.848 -29.700  11.898  0.00  0.00    +0.032 C 
ATOM     18  C   LIG    1       22.881 -26.407  13.796  0.00  0.00    +0.020 C 
ATOM     19  C   LIG    1       23.336 -28.598  14.845  0.00  0.00    -0.012 C 
ATOM     20  C   LIG    1       22.499 -29.860  11.241  0.00  0.00    +0.008 C 
ATOM     21  C   LIG    1       19.614 -30.655  13.834  0.00  0.00    +0.012 C 
ATOM     22  C   LIG    1       19.649 -31.173  15.293  0.00  0.00    +0.015 C 
ATOM     23  O   LIG    1       19.341 -33.058  11.213  0.00  0.00    -0.345 OA
ENDROOT
BRANCH   9  24
ATOM     24  O   LIG    1       19.783 -26.866  14.020  0.00  0.00    -0.391 OA
ATOM     25  H   LIG    1       20.396 -26.281  14.498  0.00  0.00    +0.210 HD
ENDBRANCH   9  24
BRANCH   3  26
ATOM     26  C   LIG    1       17.398 -32.002  13.542  0.00  0.00    +0.193 C 
ATOM     27  O   LIG    1       17.349 -32.756  14.518  0.00  0.00    -0.292 OA
BRANCH  26  28
ATOM     28  C   LIG    1       16.121 -31.368  12.980  0.00  0.00    +0.233 C 
BRANCH  28  29
ATOM     29  O   LIG    1       16.191 -29.958  12.836  0.00  0.00    -0.387 OA
ATOM     30  H   LIG    1       15.431 -29.687  12.288  0.00  0.00    +0.210 HD
ENDBRANCH  28  29
ENDBRANCH  26  28
ENDBRANCH   3  26
BRANCH   1  31
ATOM     31  C   LIG    1       17.958 -32.026   9.503  0.00  0.00    +0.061 C 
BRANCH  31  33
ATOM     32  C   LIG    1       17.742 -33.820   7.725  0.00  0.00    +0.004 C 
ATOM     33  C   LIG    1       17.730 -33.514   9.215  0.00  0.00    +0.002 C 
ENDBRANCH  31  33
ENDBRANCH   1  31
TORSDOF 6
ENDMDL
MODEL 8
REMARK VINA RESULT:      -4.9      3.497      5.846
REMARK  Name = *****
REMARK                            x       y       z     vdW  Elec       q    Type
REMARK                         _______ _______ _______ _____ _____    ______ ____
ROOT
ATOM      1  C   LIG    1       20.526 -30.101  14.562  0.00  0.00    +0.252 C 
ATOM      2  O   LIG    1       21.467 -30.933  13.875  0.00  0.00    -0.334 OA
ATOM      3  C   LIG    1       21.603 -30.419  12.538  0.00  0.00    +0.164 C 
ATOM      4  C   LIG    1       20.841 -29.101  12.563  0.00  0.00    +0.161 C 
ATOM      5  C   LIG    1       21.857 -27.996  12.886  0.00  0.00    +0.039 C 
ATOM      6  C   LIG    1       23.251 -28.647  12.957  0.00  0.00    +0.004 C 
ATOM      7  C   LIG    1       23.873 -28.882  14.354  0.00  0.00    -0.000 C 
ATOM      8  C   LIG    1       25.344 -29.367  14.197  0.00  0.00    +0.035 C 
ATOM      9  C   LIG    1       25.458 -30.439  13.073  0.00  0.00    +0.120 C 
ATOM     10  C   LIG    1       24.113 -31.060  12.679  0.00  0.00    +0.042 C 
ATOM     11  C   LIG    1       26.453 -28.228  14.107  0.00  0.00    +0.013 C 
ATOM     12  C   LIG    1       26.146 -27.075  15.094  0.00  0.00    -0.056 C 
ATOM     13  C   LIG    1       27.063 -26.088  15.217  0.00  0.00    +0.051 C 
ATOM     14  C   LIG    1       27.290 -25.427  13.876  0.00  0.00    +0.179 C 
ATOM     15  C   LIG    1       27.013 -26.242  12.654  0.00  0.00    +0.047 C 
ATOM     16  O   LIG    1       27.751 -24.292  13.795  0.00  0.00    -0.288 OA
ATOM     17  C   LIG    1       24.698 -26.613  15.106  0.00  0.00    +0.032 C 
ATOM     18  C   LIG    1       27.818 -28.896  14.444  0.00  0.00    +0.020 C 
ATOM     19  C   LIG    1       26.639 -27.534  12.751  0.00  0.00    -0.012 C 
ATOM     20  C   LIG    1       23.765 -27.765  15.391  0.00  0.00    +0.008 C 
ATOM     21  C   LIG    1       23.079 -30.009  12.202  0.00  0.00    +0.012 C 
ATOM     22  C   LIG    1       23.281 -29.746  10.689  0.00  0.00    +0.015 C 
ATOM     23  O   LIG    1       19.902 -29.234  13.625  0.00  0.00    -0.345 OA
ENDROOT
BRANCH   9  24
ATOM     24  O   LIG    1       26.329 -31.491  13.492  0.00  0.00    -0.391 OA
ATOM     25  H   LIG    1       25.918 -32.341  13.259  0.00  0.00    +0.210 HD
ENDBRANCH   9  24
BRANCH   3  26
ATOM     26  C   LIG    1       20.989 -31.429  11.548  0.00  0.00    +0.193 C 
ATOM     27  O   LIG    1       21.196 -32.644  11.633  0.00  0.00    -0.292 OA
BRANCH  26  28
ATOM     28  C   LIG    1       20.007 -30.874  10.511  0.00  0.00    +0.233 C 
BRANCH  28  29
ATOM     29  O   LIG    1       18.642 -31.082  10.839  0.00  0.00    -0.387 OA
ATOM     30  H   LIG    1       18.113 -30.552  10.214  0.00  0.00    +0.210 HD
ENDBRANCH  28  29
ENDBRANCH  26  28
ENDBRANCH   3  26
BRANCH   1  31
ATOM     31  C   LIG    1       19.491 -30.936  15.308  0.00  0.00    +0.061 C 
BRANCH  31  33
ATOM     32  C   LIG    1       18.241 -32.678  13.956  0.00  0.00    +0.004 C 
ATOM     33  C   LIG    1       19.466 -32.384  14.808  0.00  0.00    +0.002 C 
ENDBRANCH  31  33
ENDBRANCH   1  31
TORSDOF 6
ENDMDL
MODEL 9
REMARK VINA RESULT:      -4.9      3.227      6.628
REMARK  Name = *****
REMARK                            x       y       z     vdW  Elec       q    Type
REMARK                         _______ _______ _______ _____ _____    ______ ____
ROOT
ATOM      1  C   LIG    1       21.961 -29.147  12.657  0.00  0.00    +0.252 C 
ATOM      2  O   LIG    1       22.514 -30.382  13.125  0.00  0.00    -0.334 OA
ATOM      3  C   LIG    1       21.653 -31.441  12.666  0.00  0.00    +0.164 C 
ATOM      4  C   LIG    1       20.684 -30.752  11.716  0.00  0.00    +0.161 C 
ATOM      5  C   LIG    1       21.270 -30.876  10.302  0.00  0.00    +0.039 C 
ATOM      6  C   LIG    1       22.549 -31.729  10.397  0.00  0.00    +0.004 C 
ATOM      7  C   LIG    1       23.913 -31.004  10.319  0.00  0.00    -0.000 C 
ATOM      8  C   LIG    1       25.061 -32.054  10.243  0.00  0.00    +0.035 C 
ATOM      9  C   LIG    1       24.820 -33.211  11.257  0.00  0.00    +0.120 C 
ATOM     10  C   LIG    1       23.793 -32.872  12.344  0.00  0.00    +0.042 C 
ATOM     11  C   LIG    1       25.459 -32.556   8.786  0.00  0.00    +0.013 C 
ATOM     12  C   LIG    1       25.449 -31.384   7.773  0.00  0.00    -0.056 C 
ATOM     13  C   LIG    1       25.881 -31.633   6.515  0.00  0.00    +0.051 C 
ATOM     14  C   LIG    1       25.039 -32.720   5.888  0.00  0.00    +0.179 C 
ATOM     15  C   LIG    1       24.370 -33.688   6.810  0.00  0.00    +0.047 C 
ATOM     16  O   LIG    1       24.966 -32.846   4.668  0.00  0.00    -0.288 OA
ATOM     17  C   LIG    1       24.241 -30.467   7.869  0.00  0.00    +0.032 C 
ATOM     18  C   LIG    1       26.879 -33.182   8.894  0.00  0.00    +0.020 C 
ATOM     19  C   LIG    1       24.567 -33.627   8.142  0.00  0.00    -0.012 C 
ATOM     20  C   LIG    1       24.092 -29.912   9.264  0.00  0.00    +0.008 C 
ATOM     21  C   LIG    1       22.410 -32.479  11.767  0.00  0.00    +0.012 C 
ATOM     22  C   LIG    1       21.575 -33.761  11.528  0.00  0.00    +0.015 C 
ATOM     23  O   LIG    1       20.666 -29.389  12.125  0.00  0.00    -0.345 OA
ENDROOT
BRANCH   9  24
ATOM     24  O   LIG    1       26.049 -33.559  11.898  0.00  0.00    -0.391 OA
ATOM     25  H   LIG    1       26.576 -32.749  12.011  0.00  0.00    +0.210 HD
ENDBRANCH   9  24
BRANCH   3  26
ATOM     26  C   LIG    1       20.937 -32.064  13.881  0.00  0.00    +0.193 C 
ATOM     27  O   LIG    1       21.554 -32.591  14.811  0.00  0.00    -0.292 OA
BRANCH  26  28
ATOM     28  C   LIG    1       19.415 -31.902  13.946  0.00  0.00    +0.233 C 
BRANCH  28  29
ATOM     29  O   LIG    1       18.989 -30.670  14.506  0.00  0.00    -0.387 OA
ATOM     30  H   LIG    1       19.765 -30.267  14.938  0.00  0.00    +0.210 HD
ENDBRANCH  28  29
ENDBRANCH  26  28
ENDBRANCH   3  26
BRANCH   1  31
ATOM     31  C   LIG    1       21.910 -28.106  13.771  0.00  0.00    +0.061 C 
BRANCH  31  33
ATOM     32  C   LIG    1       23.531 -26.166  13.599  0.00  0.00    +0.004 C 
ATOM     33  C   LIG    1       22.151 -26.692  13.236  0.00  0.00    +0.002 C 
ENDBRANCH  31  33
ENDBRANCH   1  31
TORSDOF 6
ENDMDL
