MODEL 1
REMARK VINA RESULT:      41.6      0.000      0.000
REMARK  Name = *****
REMARK                            x       y       z     vdW  Elec       q    Type
REMARK                         _______ _______ _______ _____ _____    ______ ____
ROOT
ATOM      1  C   LIG    1       27.539 -13.231   5.639  0.00  0.00    +0.012 C 
ATOM      2  C   LIG    1       27.008 -14.569   5.055  0.00  0.00    -0.018 C 
ATOM      3  C   LIG    1       28.253 -15.334   4.509  0.00  0.00    +0.082 C 
ATOM      4  C   LIG    1       28.508 -14.635   3.143  0.00  0.00    +0.014 C 
ATOM      5  C   LIG    1       27.181 -13.977   2.712  0.00  0.00    +0.005 C 
ATOM      6  C   LIG    1       26.177 -14.441   3.760  0.00  0.00    -0.001 C 
ATOM      7  C   LIG    1       24.808 -13.752   3.859  0.00  0.00    -0.003 C 
ATOM      8  C   LIG    1       24.821 -12.217   3.948  0.00  0.00    +0.006 C 
ATOM      9  C   LIG    1       23.419 -11.622   4.108  0.00  0.00    +0.023 C 
ATOM     10  C   LIG    1       22.700 -12.268   5.290  0.00  0.00    +0.083 C 
ATOM     11  C   LIG    1       22.561 -13.810   5.136  0.00  0.00    +0.008 C 
ATOM     12  C   LIG    1       21.712 -14.200   3.895  0.00  0.00    +0.018 C 
ATOM     13  C   LIG    1       21.775 -14.324   6.335  0.00  0.00    -0.013 C 
ATOM     14  C   LIG    1       20.896 -13.549   6.992  0.00  0.00    +0.063 C 
ATOM     15  C   LIG    1       20.608 -12.155   6.560  0.00  0.00    +0.237 C 
ATOM     16  O   LIG    1       19.702 -11.508   7.056  0.00  0.00    -0.271 OA
ATOM     17  N   LIG    1       21.416 -11.652   5.570  0.00  0.00    -0.308 N 
ATOM     18  H   LIG    1       21.273 -10.666   5.392  0.00  0.00    +0.149 HD
ATOM     19  C   LIG    1       23.983 -14.446   4.995  0.00  0.00    +0.004 C 
ATOM     20  C   LIG    1       24.792 -14.534   6.316  0.00  0.00    +0.005 C 
ATOM     21  C   LIG    1       26.149 -15.251   6.129  0.00  0.00    +0.008 C 
ENDROOT
BRANCH   3  22
ATOM     22  C   LIG    1       28.083 -16.847   4.288  0.00  0.00    +0.221 C 
ATOM     23  N   LIG    1       26.837 -17.333   4.672  0.00  0.00    -0.285 N 
ATOM     24  H   LIG    1       26.245 -16.687   5.188  0.00  0.00    +0.155 HD
ATOM     25  O   LIG    1       29.000 -17.530   3.842  0.00  0.00    -0.275 OA
BRANCH  23  26
ATOM     26  C   LIG    1       26.404 -18.687   4.600  0.00  0.00    +0.046 A 
ATOM     27  C   LIG    1       27.199 -19.731   5.117  0.00  0.00    +0.076 A 
ATOM     28  C   LIG    1       26.726 -21.061   5.041  0.00  0.00    +0.015 A 
ATOM     29  C   LIG    1       25.493 -21.364   4.462  0.00  0.00    +0.013 A 
ATOM     30  C   LIG    1       24.700 -20.338   3.946  0.00  0.00    +0.057 A 
ATOM     31  C   LIG    1       25.164 -19.015   4.032  0.00  0.00    +0.036 A 
BRANCH  27  32
ATOM     32  C   LIG    1       28.564 -19.526   5.726  0.00  0.00    +0.419 C 
ATOM     33  F   LIG    1       28.551 -18.624   6.746  0.00  0.00    -0.166 F 
ATOM     34  F   LIG    1       29.470 -19.055   4.824  0.00  0.00    -0.166 F 
ATOM     35  F   LIG    1       29.118 -20.661   6.243  0.00  0.00    -0.166 F 
ENDBRANCH  27  32
BRANCH  30  36
ATOM     36  C   LIG    1       23.361 -20.633   3.311  0.00  0.00    +0.417 C 
ATOM     37  F   LIG    1       23.483 -21.324   2.145  0.00  0.00    -0.166 F 
ATOM     38  F   LIG    1       22.669 -19.501   3.005  0.00  0.00    -0.166 F 
ATOM     39  F   LIG    1       22.533 -21.377   4.095  0.00  0.00    -0.166 F 
ENDBRANCH  30  36
ENDBRANCH  23  26
ENDBRANCH   3  22
TORSDOF 4
ENDMDL
MODEL 2
REMARK VINA RESULT:      42.9      2.624      5.997
REMARK  Name = *****
REMARK                            x       y       z     vdW  Elec       q    Type
REMARK                         _______ _______ _______ _____ _____    ______ ____
ROOT
ATOM      1  C   LIG    1       21.627 -13.426   3.811  0.00  0.00    +0.012 C 
ATOM      2  C   LIG    1       22.162 -14.815   4.253  0.00  0.00    -0.018 C 
ATOM      3  C   LIG    1       20.914 -15.655   4.666  0.00  0.00    +0.082 C 
ATOM      4  C   LIG    1       20.606 -15.124   6.095  0.00  0.00    +0.014 C 
ATOM      5  C   LIG    1       21.908 -14.503   6.642  0.00  0.00    +0.005 C 
ATOM      6  C   LIG    1       22.951 -14.829   5.580  0.00  0.00    -0.001 C 
ATOM      7  C   LIG    1       24.310 -14.115   5.605  0.00  0.00    -0.003 C 
ATOM      8  C   LIG    1       24.275 -12.581   5.695  0.00  0.00    +0.006 C 
ATOM      9  C   LIG    1       25.670 -11.953   5.650  0.00  0.00    +0.023 C 
ATOM     10  C   LIG    1       26.436 -12.447   4.425  0.00  0.00    +0.083 C 
ATOM     11  C   LIG    1       26.596 -13.995   4.403  0.00  0.00    +0.008 C 
ATOM     12  C   LIG    1       27.414 -14.516   5.617  0.00  0.00    +0.018 C 
ATOM     13  C   LIG    1       27.426 -14.355   3.178  0.00  0.00    -0.013 C 
ATOM     14  C   LIG    1       28.312 -13.498   2.644  0.00  0.00    +0.063 C 
ATOM     15  C   LIG    1       28.563 -12.160   3.245  0.00  0.00    +0.237 C 
ATOM     16  O   LIG    1       29.473 -11.447   2.856  0.00  0.00    -0.271 OA
ATOM     17  N   LIG    1       27.717 -11.786   4.259  0.00  0.00    -0.308 N 
ATOM     18  H   LIG    1       27.838 -10.826   4.555  0.00  0.00    +0.149 HD
ATOM     19  C   LIG    1       25.181 -14.661   4.424  0.00  0.00    +0.004 C 
ATOM     20  C   LIG    1       24.414 -14.605   3.076  0.00  0.00    +0.005 C 
ATOM     21  C   LIG    1       23.064 -15.357   3.135  0.00  0.00    +0.008 C 
ENDROOT
BRANCH   3  22
ATOM     22  C   LIG    1       21.102 -17.181   4.716  0.00  0.00    +0.221 C 
ATOM     23  N   LIG    1       22.435 -17.580   4.762  0.00  0.00    -0.285 N 
ATOM     24  H   LIG    1       23.125 -16.851   4.605  0.00  0.00    +0.155 HD
ATOM     25  O   LIG    1       20.138 -17.941   4.682  0.00  0.00    -0.275 OA
BRANCH  23  26
ATOM     26  C   LIG    1       22.910 -18.921   4.797  0.00  0.00    +0.046 A 
ATOM     27  C   LIG    1       22.128 -19.981   4.293  0.00  0.00    +0.076 A 
ATOM     28  C   LIG    1       22.643 -21.298   4.330  0.00  0.00    +0.015 A 
ATOM     29  C   LIG    1       23.904 -21.571   4.860  0.00  0.00    +0.013 A 
ATOM     30  C   LIG    1       24.685 -20.529   5.362  0.00  0.00    +0.057 A 
ATOM     31  C   LIG    1       24.179 -19.221   5.315  0.00  0.00    +0.036 A 
BRANCH  27  32
ATOM     32  C   LIG    1       20.736 -19.809   3.737  0.00  0.00    +0.419 C 
ATOM     33  F   LIG    1       19.865 -19.308   4.656  0.00  0.00    -0.166 F 
ATOM     34  F   LIG    1       20.195 -20.986   3.317  0.00  0.00    -0.166 F 
ATOM     35  F   LIG    1       20.665 -18.969   2.663  0.00  0.00    -0.166 F 
ENDBRANCH  27  32
BRANCH  30  36
ATOM     36  C   LIG    1       26.054 -20.794   5.944  0.00  0.00    +0.417 C 
ATOM     37  F   LIG    1       26.001 -21.569   7.062  0.00  0.00    -0.166 F 
ATOM     38  F   LIG    1       26.693 -19.649   6.312  0.00  0.00    -0.166 F 
ATOM     39  F   LIG    1       26.900 -21.435   5.090  0.00  0.00    -0.166 F 
ENDBRANCH  30  36
ENDBRANCH  23  26
ENDBRANCH   3  22
TORSDOF 4
ENDMDL
