MODEL 1
REMARK VINA RESULT:      -5.0      0.000      0.000
REMARK  Name = *****
REMARK                            x       y       z     vdW  Elec       q    Type
REMARK                         _______ _______ _______ _____ _____    ______ ____
ROOT
ATOM      1  C   LIG    1       25.867 -14.343   3.211  0.00  0.00    +0.268 C 
ENDROOT
BRANCH   1   2
ATOM      2  P   LIG    1       27.314 -13.963   4.249  0.00  0.00    +0.371 P 
ATOM      3  O   LIG    1       27.062 -13.454   5.634  0.00  0.00    -0.255 OA
BRANCH   2   4
ATOM      4  O   LIG    1       28.224 -12.926   3.427  0.00  0.00    -0.322 OA
ATOM      5  H   LIG    1       27.969 -12.853   2.489  0.00  0.00    +0.220 HD
ENDBRANCH   2   4
BRANCH   2   6
ATOM      6  O   LIG    1       28.288 -15.231   4.267  0.00  0.00    -0.322 OA
ATOM      7  H   LIG    1       28.213 -15.781   5.069  0.00  0.00    +0.220 HD
ENDBRANCH   2   6
ENDBRANCH   1   2
BRANCH   1   8
ATOM      8  P   LIG    1       24.649 -12.985   3.116  0.00  0.00    +0.371 P 
ATOM      9  O   LIG    1       24.825 -11.887   2.132  0.00  0.00    -0.255 OA
BRANCH   8  10
ATOM     10  O   LIG    1       24.459 -12.409   4.607  0.00  0.00    -0.322 OA
ATOM     11  H   LIG    1       23.859 -11.645   4.653  0.00  0.00    +0.220 HD
ENDBRANCH   8  10
BRANCH   8  12
ATOM     12  O   LIG    1       23.228 -13.726   2.952  0.00  0.00    -0.322 OA
ATOM     13  H   LIG    1       22.679 -13.687   3.759  0.00  0.00    +0.220 HD
ENDBRANCH   8  12
ENDBRANCH   1   8
BRANCH   1  14
ATOM     14  O   LIG    1       26.393 -14.472   1.844  0.00  0.00    -0.367 OA
ATOM     15  H   LIG    1       27.243 -13.983   1.837  0.00  0.00    +0.212 HD
ENDBRANCH   1  14
BRANCH   1  16
ATOM     16  C   LIG    1       25.208 -15.694   3.521  0.00  0.00    +0.076 C 
BRANCH  16  17
ATOM     17  C   LIG    1       26.091 -16.921   3.247  0.00  0.00    +0.088 C 
BRANCH  17  18
ATOM     18  N   LIG    1       25.351 -18.202   3.260  0.00  0.00    -0.305 NA
ATOM     19  C   LIG    1       23.994 -18.030   3.788  0.00  0.00    +0.105 C 
BRANCH  18  20
ATOM     20  C   LIG    1       26.059 -19.229   4.057  0.00  0.00    +0.084 C 
BRANCH  20  21
ATOM     21  C   LIG    1       25.144 -20.318   4.642  0.00  0.00    +0.015 C 
BRANCH  21  22
ATOM     22  C   LIG    1       25.644 -20.768   6.022  0.00  0.00    +0.001 C 
BRANCH  22  24
ATOM     23  C   LIG    1       23.156 -20.619   6.404  0.00  0.00    +0.004 C 
ATOM     24  C   LIG    1       24.521 -20.759   7.061  0.00  0.00    -0.003 C 
ENDBRANCH  22  24
ENDBRANCH  21  22
ENDBRANCH  20  21
ENDBRANCH  18  20
ENDBRANCH  17  18
ENDBRANCH  16  17
ENDBRANCH   1  16
TORSDOF 14
ENDMDL
MODEL 2
REMARK VINA RESULT:      -4.6      1.043      1.903
REMARK  Name = *****
REMARK                            x       y       z     vdW  Elec       q    Type
REMARK                         _______ _______ _______ _____ _____    ______ ____
ROOT
ATOM      1  C   LIG    1       26.329 -14.503   3.338  0.00  0.00    +0.268 C 
ENDROOT
BRANCH   1   2
ATOM      2  P   LIG    1       27.620 -13.317   3.830  0.00  0.00    +0.371 P 
ATOM      3  O   LIG    1       27.677 -12.907   5.268  0.00  0.00    -0.255 OA
BRANCH   2   4
ATOM      4  O   LIG    1       27.460 -12.028   2.885  0.00  0.00    -0.322 OA
ATOM      5  H   LIG    1       27.794 -12.173   1.981  0.00  0.00    +0.220 HD
ENDBRANCH   2   4
BRANCH   2   6
ATOM      6  O   LIG    1       29.039 -13.855   3.325  0.00  0.00    -0.322 OA
ATOM      7  H   LIG    1       29.642 -13.157   3.011  0.00  0.00    +0.220 HD
ENDBRANCH   2   6
ENDBRANCH   1   2
BRANCH   1   8
ATOM      8  P   LIG    1       24.636 -13.974   3.774  0.00  0.00    +0.371 P 
ATOM      9  O   LIG    1       23.681 -14.938   4.378  0.00  0.00    -0.255 OA
BRANCH   8  10
ATOM     10  O   LIG    1       24.007 -13.267   2.472  0.00  0.00    -0.322 OA
ATOM     11  H   LIG    1       23.902 -13.869   1.716  0.00  0.00    +0.220 HD
ENDBRANCH   8  10
BRANCH   8  12
ATOM     12  O   LIG    1       24.843 -12.666   4.692  0.00  0.00    -0.322 OA
ATOM     13  H   LIG    1       24.985 -11.851   4.172  0.00  0.00    +0.220 HD
ENDBRANCH   8  12
ENDBRANCH   1   8
BRANCH   1  14
ATOM     14  O   LIG    1       26.352 -14.515   1.869  0.00  0.00    -0.367 OA
ATOM     15  H   LIG    1       26.383 -13.574   1.594  0.00  0.00    +0.212 HD
ENDBRANCH   1  14
BRANCH   1  16
ATOM     16  C   LIG    1       26.612 -15.952   3.760  0.00  0.00    +0.076 C 
BRANCH  16  17
ATOM     17  C   LIG    1       25.767 -17.011   3.037  0.00  0.00    +0.088 C 
BRANCH  17  18
ATOM     18  N   LIG    1       25.300 -18.103   3.919  0.00  0.00    -0.305 NA
ATOM     19  C   LIG    1       26.073 -19.331   3.706  0.00  0.00    +0.105 C 
BRANCH  18  20
ATOM     20  C   LIG    1       23.862 -18.390   3.712  0.00  0.00    +0.084 C 
BRANCH  20  21
ATOM     21  C   LIG    1       23.439 -19.818   4.096  0.00  0.00    +0.015 C 
BRANCH  21  22
ATOM     22  C   LIG    1       22.655 -19.820   5.415  0.00  0.00    +0.001 C 
BRANCH  22  24
ATOM     23  C   LIG    1       24.340 -20.752   7.043  0.00  0.00    +0.004 C 
ATOM     24  C   LIG    1       23.038 -21.008   6.299  0.00  0.00    -0.003 C 
ENDBRANCH  22  24
ENDBRANCH  21  22
ENDBRANCH  20  21
ENDBRANCH  18  20
ENDBRANCH  17  18
ENDBRANCH  16  17
ENDBRANCH   1  16
TORSDOF 14
ENDMDL
MODEL 3
REMARK VINA RESULT:      -4.4      1.135      2.014
REMARK  Name = *****
REMARK                            x       y       z     vdW  Elec       q    Type
REMARK                         _______ _______ _______ _____ _____    ______ ____
ROOT
ATOM      1  C   LIG    1       25.889 -14.759   3.236  0.00  0.00    +0.268 C 
ENDROOT
BRANCH   1   2
ATOM      2  P   LIG    1       27.320 -14.233   4.231  0.00  0.00    +0.371 P 
ATOM      3  O   LIG    1       27.049 -13.581   5.550  0.00  0.00    -0.255 OA
BRANCH   2   4
ATOM      4  O   LIG    1       28.211 -13.272   3.302  0.00  0.00    -0.322 OA
ATOM      5  H   LIG    1       29.169 -13.417   3.409  0.00  0.00    +0.220 HD
ENDBRANCH   2   4
BRANCH   2   6
ATOM      6  O   LIG    1       28.323 -15.468   4.391  0.00  0.00    -0.322 OA
ATOM      7  H   LIG    1       27.881 -16.327   4.522  0.00  0.00    +0.220 HD
ENDBRANCH   2   6
ENDBRANCH   1   2
BRANCH   1   8
ATOM      8  P   LIG    1       24.302 -14.043   3.789  0.00  0.00    +0.371 P 
ATOM      9  O   LIG    1       23.343 -14.861   4.575  0.00  0.00    -0.255 OA
BRANCH   8  10
ATOM     10  O   LIG    1       23.594 -13.394   2.497  0.00  0.00    -0.322 OA
ATOM     11  H   LIG    1       22.683 -13.097   2.662  0.00  0.00    +0.220 HD
ENDBRANCH   8  10
BRANCH   8  12
ATOM     12  O   LIG    1       24.714 -12.686   4.554  0.00  0.00    -0.322 OA
ATOM     13  H   LIG    1       24.121 -12.470   5.300  0.00  0.00    +0.220 HD
ENDBRANCH   8  12
ENDBRANCH   1   8
BRANCH   1  14
ATOM     14  O   LIG    1       26.113 -14.187   1.900  0.00  0.00    -0.367 OA
ATOM     15  H   LIG    1       25.311 -13.660   1.697  0.00  0.00    +0.212 HD
ENDBRANCH   1  14
BRANCH   1  16
ATOM     16  C   LIG    1       25.798 -16.276   3.017  0.00  0.00    +0.076 C 
BRANCH  16  17
ATOM     17  C   LIG    1       24.687 -16.977   3.813  0.00  0.00    +0.088 C 
BRANCH  17  18
ATOM     18  N   LIG    1       24.521 -18.407   3.470  0.00  0.00    -0.305 NA
ATOM     19  C   LIG    1       23.272 -18.947   4.020  0.00  0.00    +0.105 C 
BRANCH  18  20
ATOM     20  C   LIG    1       25.659 -19.216   3.959  0.00  0.00    +0.084 C 
BRANCH  20  21
ATOM     21  C   LIG    1       25.254 -20.437   4.803  0.00  0.00    +0.015 C 
BRANCH  21  22
ATOM     22  C   LIG    1       26.089 -20.514   6.089  0.00  0.00    +0.001 C 
BRANCH  22  24
ATOM     23  C   LIG    1       28.511 -20.842   6.709  0.00  0.00    +0.004 C 
ATOM     24  C   LIG    1       27.528 -20.052   5.857  0.00  0.00    -0.003 C 
ENDBRANCH  22  24
ENDBRANCH  21  22
ENDBRANCH  20  21
ENDBRANCH  18  20
ENDBRANCH  17  18
ENDBRANCH  16  17
ENDBRANCH   1  16
TORSDOF 14
ENDMDL
MODEL 4
REMARK VINA RESULT:      -4.2      1.760      3.522
REMARK  Name = *****
REMARK                            x       y       z     vdW  Elec       q    Type
REMARK                         _______ _______ _______ _____ _____    ______ ____
ROOT
ATOM      1  C   LIG    1       25.323 -13.854   4.016  0.00  0.00    +0.268 C 
ENDROOT
BRANCH   1   2
ATOM      2  P   LIG    1       24.704 -12.599   2.852  0.00  0.00    +0.371 P 
ATOM      3  O   LIG    1       25.712 -11.747   2.147  0.00  0.00    -0.255 OA
BRANCH   2   4
ATOM      4  O   LIG    1       23.660 -11.684   3.658  0.00  0.00    -0.322 OA
ATOM      5  H   LIG    1       22.756 -12.048   3.664  0.00  0.00    +0.220 HD
ENDBRANCH   2   4
BRANCH   2   6
ATOM      6  O   LIG    1       23.711 -13.300   1.812  0.00  0.00    -0.322 OA
ATOM      7  H   LIG    1       23.446 -14.205   2.061  0.00  0.00    +0.220 HD
ENDBRANCH   2   6
ENDBRANCH   1   2
BRANCH   1   8
ATOM      8  P   LIG    1       26.580 -14.969   3.301  0.00  0.00    +0.371 P 
ATOM      9  O   LIG    1       26.311 -16.424   3.178  0.00  0.00    -0.255 OA
BRANCH   8  10
ATOM     10  O   LIG    1       27.962 -14.695   4.081  0.00  0.00    -0.322 OA
ATOM     11  H   LIG    1       28.747 -14.752   3.510  0.00  0.00    +0.220 HD
ENDBRANCH   8  10
BRANCH   8  12
ATOM     12  O   LIG    1       26.958 -14.299   1.884  0.00  0.00    -0.322 OA
ATOM     13  H   LIG    1       26.365 -14.575   1.159  0.00  0.00    +0.220 HD
ENDBRANCH   8  12
ENDBRANCH   1   8
BRANCH   1  14
ATOM     14  O   LIG    1       26.038 -13.101   5.056  0.00  0.00    -0.367 OA
ATOM     15  H   LIG    1       26.603 -13.755   5.520  0.00  0.00    +0.212 HD
ENDBRANCH   1  14
BRANCH   1  16
ATOM     16  C   LIG    1       24.220 -14.622   4.759  0.00  0.00    +0.076 C 
BRANCH  16  17
ATOM     17  C   LIG    1       23.624 -15.807   3.983  0.00  0.00    +0.088 C 
BRANCH  17  18
ATOM     18  N   LIG    1       22.325 -16.273   4.514  0.00  0.00    -0.305 NA
ATOM     19  C   LIG    1       22.018 -15.644   5.804  0.00  0.00    +0.105 C 
BRANCH  18  20
ATOM     20  C   LIG    1       22.300 -17.744   4.671  0.00  0.00    +0.084 C 
BRANCH  20  21
ATOM     21  C   LIG    1       23.350 -18.489   3.830  0.00  0.00    +0.015 C 
BRANCH  21  22
ATOM     22  C   LIG    1       23.705 -19.839   4.469  0.00  0.00    +0.001 C 
BRANCH  22  24
ATOM     23  C   LIG    1       23.397 -20.722   6.810  0.00  0.00    +0.004 C 
ATOM     24  C   LIG    1       22.699 -20.235   5.549  0.00  0.00    -0.003 C 
ENDBRANCH  22  24
ENDBRANCH  21  22
ENDBRANCH  20  21
ENDBRANCH  18  20
ENDBRANCH  17  18
ENDBRANCH  16  17
ENDBRANCH   1  16
TORSDOF 14
ENDMDL
MODEL 5
REMARK VINA RESULT:      -4.1      1.102      3.216
REMARK  Name = *****
REMARK                            x       y       z     vdW  Elec       q    Type
REMARK                         _______ _______ _______ _____ _____    ______ ____
ROOT
ATOM      1  C   LIG    1       25.401 -13.901   4.092  0.00  0.00    +0.268 C 
ENDROOT
BRANCH   1   2
ATOM      2  P   LIG    1       24.415 -12.596   3.293  0.00  0.00    +0.371 P 
ATOM      3  O   LIG    1       23.670 -11.647   4.177  0.00  0.00    -0.255 OA
BRANCH   2   4
ATOM      4  O   LIG    1       23.407 -13.324   2.275  0.00  0.00    -0.322 OA
ATOM      5  H   LIG    1       23.864 -13.772   1.540  0.00  0.00    +0.220 HD
ENDBRANCH   2   4
BRANCH   2   6
ATOM      6  O   LIG    1       25.340 -11.811   2.250  0.00  0.00    -0.322 OA
ATOM      7  H   LIG    1       25.765 -12.382   1.585  0.00  0.00    +0.220 HD
ENDBRANCH   2   6
ENDBRANCH   1   2
BRANCH   1   8
ATOM      8  P   LIG    1       27.009 -14.211   3.284  0.00  0.00    +0.371 P 
ATOM      9  O   LIG    1       27.088 -14.391   1.812  0.00  0.00    -0.255 OA
BRANCH   8  10
ATOM     10  O   LIG    1       27.706 -15.437   4.061  0.00  0.00    -0.322 OA
ATOM     11  H   LIG    1       28.551 -15.200   4.481  0.00  0.00    +0.220 HD
ENDBRANCH   8  10
BRANCH   8  12
ATOM     12  O   LIG    1       27.960 -13.017   3.802  0.00  0.00    -0.322 OA
ATOM     13  H   LIG    1       27.993 -12.947   4.776  0.00  0.00    +0.220 HD
ENDBRANCH   8  12
ENDBRANCH   1   8
BRANCH   1  14
ATOM     14  O   LIG    1       25.743 -13.371   5.420  0.00  0.00    -0.367 OA
ATOM     15  H   LIG    1       26.535 -13.872   5.711  0.00  0.00    +0.212 HD
ENDBRANCH   1  14
BRANCH   1  16
ATOM     16  C   LIG    1       24.627 -15.199   4.362  0.00  0.00    +0.076 C 
BRANCH  16  17
ATOM     17  C   LIG    1       24.801 -16.289   3.293  0.00  0.00    +0.088 C 
BRANCH  17  18
ATOM     18  N   LIG    1       24.826 -17.662   3.842  0.00  0.00    -0.305 NA
ATOM     19  C   LIG    1       26.011 -18.398   3.388  0.00  0.00    +0.105 C 
BRANCH  18  20
ATOM     20  C   LIG    1       23.610 -18.418   3.467  0.00  0.00    +0.084 C 
BRANCH  20  21
ATOM     21  C   LIG    1       22.540 -18.487   4.570  0.00  0.00    +0.015 C 
BRANCH  21  22
ATOM     22  C   LIG    1       22.372 -19.925   5.079  0.00  0.00    +0.001 C 
BRANCH  22  24
ATOM     23  C   LIG    1       23.298 -21.276   6.996  0.00  0.00    +0.004 C 
ATOM     24  C   LIG    1       23.635 -20.430   5.778  0.00  0.00    -0.003 C 
ENDBRANCH  22  24
ENDBRANCH  21  22
ENDBRANCH  20  21
ENDBRANCH  18  20
ENDBRANCH  17  18
ENDBRANCH  16  17
ENDBRANCH   1  16
TORSDOF 14
ENDMDL
MODEL 6
REMARK VINA RESULT:      -3.5      4.626      7.056
REMARK  Name = *****
REMARK                            x       y       z     vdW  Elec       q    Type
REMARK                         _______ _______ _______ _____ _____    ______ ____
ROOT
ATOM      1  C   LIG    1       24.343 -19.413   4.174  0.00  0.00    +0.268 C 
ENDROOT
BRANCH   1   2
ATOM      2  P   LIG    1       22.655 -19.713   4.787  0.00  0.00    +0.371 P 
ATOM      3  O   LIG    1       21.580 -18.765   4.357  0.00  0.00    -0.255 OA
BRANCH   2   4
ATOM      4  O   LIG    1       22.740 -19.776   6.389  0.00  0.00    -0.322 OA
ATOM      5  H   LIG    1       21.987 -19.342   6.831  0.00  0.00    +0.220 HD
ENDBRANCH   2   4
BRANCH   2   6
ATOM      6  O   LIG    1       22.250 -21.228   4.473  0.00  0.00    -0.322 OA
ATOM      7  H   LIG    1       21.295 -21.366   4.338  0.00  0.00    +0.220 HD
ENDBRANCH   2   6
ENDBRANCH   1   2
BRANCH   1   8
ATOM      8  P   LIG    1       25.652 -20.080   5.258  0.00  0.00    +0.371 P 
ATOM      9  O   LIG    1       25.492 -20.049   6.734  0.00  0.00    -0.255 OA
BRANCH   8  10
ATOM     10  O   LIG    1       27.039 -19.399   4.806  0.00  0.00    -0.322 OA
ATOM     11  H   LIG    1       26.924 -18.663   4.180  0.00  0.00    +0.220 HD
ENDBRANCH   8  10
BRANCH   8  12
ATOM     12  O   LIG    1       25.916 -21.571   4.705  0.00  0.00    -0.322 OA
ATOM     13  H   LIG    1       26.456 -22.114   5.310  0.00  0.00    +0.220 HD
ENDBRANCH   8  12
ENDBRANCH   1   8
BRANCH   1  14
ATOM     14  O   LIG    1       24.449 -20.193   2.932  0.00  0.00    -0.367 OA
ATOM     15  H   LIG    1       23.920 -21.005   3.081  0.00  0.00    +0.212 HD
ENDBRANCH   1  14
BRANCH   1  16
ATOM     16  C   LIG    1       24.613 -17.959   3.762  0.00  0.00    +0.076 C 
BRANCH  16  17
ATOM     17  C   LIG    1       26.027 -17.693   3.223  0.00  0.00    +0.088 C 
BRANCH  17  18
ATOM     18  N   LIG    1       26.398 -16.261   3.206  0.00  0.00    -0.305 NA
ATOM     19  C   LIG    1       27.559 -15.999   4.064  0.00  0.00    +0.105 C 
BRANCH  18  20
ATOM     20  C   LIG    1       25.270 -15.404   3.636  0.00  0.00    +0.084 C 
BRANCH  20  21
ATOM     21  C   LIG    1       25.533 -13.895   3.498  0.00  0.00    +0.015 C 
BRANCH  21  22
ATOM     22  C   LIG    1       24.522 -13.087   4.324  0.00  0.00    +0.001 C 
BRANCH  22  24
ATOM     23  C   LIG    1       24.420 -11.944   2.079  0.00  0.00    +0.004 C 
ATOM     24  C   LIG    1       23.841 -12.005   3.484  0.00  0.00    -0.003 C 
ENDBRANCH  22  24
ENDBRANCH  21  22
ENDBRANCH  20  21
ENDBRANCH  18  20
ENDBRANCH  17  18
ENDBRANCH  16  17
ENDBRANCH   1  16
TORSDOF 14
ENDMDL
MODEL 7
REMARK VINA RESULT:      -3.5      4.623      7.031
REMARK  Name = *****
REMARK                            x       y       z     vdW  Elec       q    Type
REMARK                         _______ _______ _______ _____ _____    ______ ____
ROOT
ATOM      1  C   LIG    1       24.380 -19.276   4.237  0.00  0.00    +0.268 C 
ENDROOT
BRANCH   1   2
ATOM      2  P   LIG    1       22.734 -19.703   4.889  0.00  0.00    +0.371 P 
ATOM      3  O   LIG    1       22.548 -19.685   6.374  0.00  0.00    -0.255 OA
BRANCH   2   4
ATOM      4  O   LIG    1       22.351 -21.143   4.292  0.00  0.00    -0.322 OA
ATOM      5  H   LIG    1       22.936 -21.857   4.607  0.00  0.00    +0.220 HD
ENDBRANCH   2   4
BRANCH   2   6
ATOM      6  O   LIG    1       21.636 -18.799   4.158  0.00  0.00    -0.322 OA
ATOM      7  H   LIG    1       21.948 -17.908   3.915  0.00  0.00    +0.220 HD
ENDBRANCH   2   6
ENDBRANCH   1   2
BRANCH   1   8
ATOM      8  P   LIG    1       25.761 -20.011   5.179  0.00  0.00    +0.371 P 
ATOM      9  O   LIG    1       27.108 -19.387   5.147  0.00  0.00    -0.255 OA
BRANCH   8  10
ATOM     10  O   LIG    1       25.830 -21.571   4.787  0.00  0.00    -0.322 OA
ATOM     11  H   LIG    1       26.658 -21.823   4.343  0.00  0.00    +0.220 HD
ENDBRANCH   8  10
BRANCH   8  12
ATOM     12  O   LIG    1       25.195 -20.158   6.681  0.00  0.00    -0.322 OA
ATOM     13  H   LIG    1       25.674 -20.825   7.209  0.00  0.00    +0.220 HD
ENDBRANCH   8  12
ENDBRANCH   1   8
BRANCH   1  14
ATOM     14  O   LIG    1       24.450 -19.909   2.913  0.00  0.00    -0.367 OA
ATOM     15  H   LIG    1       23.552 -19.823   2.528  0.00  0.00    +0.212 HD
ENDBRANCH   1  14
BRANCH   1  16
ATOM     16  C   LIG    1       24.585 -17.776   3.980  0.00  0.00    +0.076 C 
BRANCH  16  17
ATOM     17  C   LIG    1       25.854 -17.425   3.187  0.00  0.00    +0.088 C 
BRANCH  17  18
ATOM     18  N   LIG    1       26.059 -15.971   3.006  0.00  0.00    -0.305 NA
ATOM     19  C   LIG    1       27.314 -15.527   3.622  0.00  0.00    +0.105 C 
BRANCH  18  20
ATOM     20  C   LIG    1       24.935 -15.191   3.572  0.00  0.00    +0.084 C 
BRANCH  20  21
ATOM     21  C   LIG    1       25.366 -14.020   4.472  0.00  0.00    +0.015 C 
BRANCH  21  22
ATOM     22  C   LIG    1       24.406 -12.833   4.322  0.00  0.00    +0.001 C 
BRANCH  22  24
ATOM     23  C   LIG    1       24.752 -11.904   2.003  0.00  0.00    +0.004 C 
ATOM     24  C   LIG    1       23.847 -12.733   2.902  0.00  0.00    -0.003 C 
ENDBRANCH  22  24
ENDBRANCH  21  22
ENDBRANCH  20  21
ENDBRANCH  18  20
ENDBRANCH  17  18
ENDBRANCH  16  17
ENDBRANCH   1  16
TORSDOF 14
ENDMDL
MODEL 8
REMARK VINA RESULT:      -3.0      1.289      3.317
REMARK  Name = *****
REMARK                            x       y       z     vdW  Elec       q    Type
REMARK                         _______ _______ _______ _____ _____    ______ ____
ROOT
ATOM      1  C   LIG    1       25.513 -13.815   3.921  0.00  0.00    +0.268 C 
ENDROOT
BRANCH   1   2
ATOM      2  P   LIG    1       24.485 -12.691   2.924  0.00  0.00    +0.371 P 
ATOM      3  O   LIG    1       23.481 -13.303   1.999  0.00  0.00    -0.255 OA
BRANCH   2   4
ATOM      4  O   LIG    1       25.487 -11.734   2.111  0.00  0.00    -0.322 OA
ATOM      5  H   LIG    1       26.426 -11.963   2.242  0.00  0.00    +0.220 HD
ENDBRANCH   2   4
BRANCH   2   6
ATOM      6  O   LIG    1       23.802 -11.616   3.891  0.00  0.00    -0.322 OA
ATOM      7  H   LIG    1       22.921 -11.318   3.599  0.00  0.00    +0.220 HD
ENDBRANCH   2   6
ENDBRANCH   1   2
BRANCH   1   8
ATOM      8  P   LIG    1       27.261 -13.880   3.397  0.00  0.00    +0.371 P 
ATOM      9  O   LIG    1       28.221 -14.775   4.091  0.00  0.00    -0.255 OA
BRANCH   8  10
ATOM     10  O   LIG    1       27.802 -12.364   3.353  0.00  0.00    -0.322 OA
ATOM     11  H   LIG    1       27.366 -11.778   3.996  0.00  0.00    +0.220 HD
ENDBRANCH   8  10
BRANCH   8  12
ATOM     12  O   LIG    1       27.199 -14.166   1.812  0.00  0.00    -0.322 OA
ATOM     13  H   LIG    1       27.985 -13.843   1.332  0.00  0.00    +0.220 HD
ENDBRANCH   8  12
ENDBRANCH   1   8
BRANCH   1  14
ATOM     14  O   LIG    1       25.545 -13.222   5.266  0.00  0.00    -0.367 OA
ATOM     15  H   LIG    1       26.150 -13.787   5.793  0.00  0.00    +0.212 HD
ENDBRANCH   1  14
BRANCH   1  16
ATOM     16  C   LIG    1       24.911 -15.215   4.111  0.00  0.00    +0.076 C 
BRANCH  16  17
ATOM     17  C   LIG    1       25.477 -16.294   3.174  0.00  0.00    +0.088 C 
BRANCH  17  18
ATOM     18  N   LIG    1       25.761 -17.579   3.849  0.00  0.00    -0.305 NA
ATOM     19  C   LIG    1       27.204 -17.826   3.945  0.00  0.00    +0.105 C 
BRANCH  18  20
ATOM     20  C   LIG    1       25.118 -18.713   3.148  0.00  0.00    +0.084 C 
BRANCH  20  21
ATOM     21  C   LIG    1       24.837 -19.934   4.041  0.00  0.00    +0.015 C 
BRANCH  21  22
ATOM     22  C   LIG    1       23.529 -19.752   4.821  0.00  0.00    +0.001 C 
BRANCH  22  24
ATOM     23  C   LIG    1       22.071 -17.695   4.753  0.00  0.00    +0.004 C 
ATOM     24  C   LIG    1       22.497 -18.958   4.019  0.00  0.00    -0.003 C 
ENDBRANCH  22  24
ENDBRANCH  21  22
ENDBRANCH  20  21
ENDBRANCH  18  20
ENDBRANCH  17  18
ENDBRANCH  16  17
ENDBRANCH   1  16
TORSDOF 14
ENDMDL
MODEL 9
REMARK VINA RESULT:      -2.6      4.851      7.148
REMARK  Name = *****
REMARK                            x       y       z     vdW  Elec       q    Type
REMARK                         _______ _______ _______ _____ _____    ______ ____
ROOT
ATOM      1  C   LIG    1       24.348 -20.331   4.391  0.00  0.00    +0.268 C 
ENDROOT
BRANCH   1   2
ATOM      2  P   LIG    1       22.665 -19.822   4.867  0.00  0.00    +0.371 P 
ATOM      3  O   LIG    1       22.051 -18.675   4.129  0.00  0.00    -0.255 OA
BRANCH   2   4
ATOM      4  O   LIG    1       22.692 -19.526   6.445  0.00  0.00    -0.322 OA
ATOM      5  H   LIG    1       23.381 -18.886   6.703  0.00  0.00    +0.220 HD
ENDBRANCH   2   4
BRANCH   2   6
ATOM      6  O   LIG    1       21.710 -21.105   4.844  0.00  0.00    -0.322 OA
ATOM      7  H   LIG    1       21.406 -21.360   3.954  0.00  0.00    +0.220 HD
ENDBRANCH   2   6
ENDBRANCH   1   2
BRANCH   1   8
ATOM      8  P   LIG    1       25.405 -20.801   5.804  0.00  0.00    +0.371 P 
ATOM      9  O   LIG    1       24.837 -21.562   6.946  0.00  0.00    -0.255 OA
BRANCH   8  10
ATOM     10  O   LIG    1       26.153 -19.467   6.306  0.00  0.00    -0.322 OA
ATOM     11  H   LIG    1       26.873 -19.640   6.936  0.00  0.00    +0.220 HD
ENDBRANCH   8  10
BRANCH   8  12
ATOM     12  O   LIG    1       26.663 -21.555   5.136  0.00  0.00    -0.322 OA
ATOM     13  H   LIG    1       26.786 -22.465   5.468  0.00  0.00    +0.220 HD
ENDBRANCH   8  12
ENDBRANCH   1   8
BRANCH   1  14
ATOM     14  O   LIG    1       24.176 -21.571   3.621  0.00  0.00    -0.367 OA
ATOM     15  H   LIG    1       24.761 -21.483   2.839  0.00  0.00    +0.212 HD
ENDBRANCH   1  14
BRANCH   1  16
ATOM     16  C   LIG    1       25.053 -19.357   3.437  0.00  0.00    +0.076 C 
BRANCH  16  17
ATOM     17  C   LIG    1       24.974 -17.878   3.848  0.00  0.00    +0.088 C 
BRANCH  17  18
ATOM     18  N   LIG    1       26.039 -17.038   3.258  0.00  0.00    -0.305 NA
ATOM     19  C   LIG    1       27.281 -17.126   4.034  0.00  0.00    +0.105 C 
BRANCH  18  20
ATOM     20  C   LIG    1       25.622 -15.622   3.164  0.00  0.00    +0.084 C 
BRANCH  20  21
ATOM     21  C   LIG    1       26.777 -14.635   2.922  0.00  0.00    +0.015 C 
BRANCH  21  22
ATOM     22  C   LIG    1       26.535 -13.316   3.667  0.00  0.00    +0.001 C 
BRANCH  22  24
ATOM     23  C   LIG    1       24.214 -12.355   3.896  0.00  0.00    +0.004 C 
ATOM     24  C   LIG    1       25.225 -13.344   4.457  0.00  0.00    -0.003 C 
ENDBRANCH  22  24
ENDBRANCH  21  22
ENDBRANCH  20  21
ENDBRANCH  18  20
ENDBRANCH  17  18
ENDBRANCH  16  17
ENDBRANCH   1  16
TORSDOF 14
ENDMDL
