MODEL 1
REMARK VINA RESULT:      -6.8      0.000      0.000
REMARK  Name = *****
REMARK                            x       y       z     vdW  Elec       q    Type
REMARK                         _______ _______ _______ _____ _____    ______ ____
ROOT
ATOM      1  C   LIG    1       25.435 -30.038   8.263  0.00  0.00    +0.035 C 
ATOM      2  C   LIG    1       26.220 -29.085   9.164  0.00  0.00    +0.110 C 
ATOM      3  S   LIG    1       26.300 -27.359   8.639  0.00  0.00    -0.131 S 
ATOM      4  C   LIG    1       26.562 -27.799   6.910  0.00  0.00    +0.169 C 
ATOM      5  N   LIG    1       25.368 -28.494   6.476  0.00  0.00    -0.249 N 
ATOM      6  C   LIG    1       25.091 -27.681   5.426  0.00  0.00    +0.244 C 
ATOM      7  O   LIG    1       24.284 -27.695   4.527  0.00  0.00    -0.273 OA
ATOM      8  CA  LIG    1       26.276 -26.741   5.816  0.00  0.00    +0.191 C 
ATOM      9  CA  LIG    1       24.963 -29.680   7.033  0.00  0.00    +0.128 C 
ENDROOT
BRANCH   8  10
ATOM     10  N   LIG    1       26.025 -25.342   6.243  0.00  0.00    -0.296 N 
ATOM     11  H   LIG    1       26.465 -24.960   7.075  0.00  0.00    +0.150 HD
ATOM     12  C   LIG    1       25.387 -24.417   5.433  0.00  0.00    +0.270 C 
ATOM     13  O   LIG    1       24.900 -24.680   4.350  0.00  0.00    -0.268 OA
BRANCH  12  14
ATOM     14  C   LIG    1       25.393 -22.992   5.969  0.00  0.00    +0.208 C 
ATOM     15  N   LIG    1       26.383 -22.721   6.789  0.00  0.00    -0.075 NA
BRANCH  14  16
ATOM     16  C   LIG    1       24.367 -22.041   5.512  0.00  0.00    +0.197 C 
ATOM     17  N   LIG    1       24.634 -21.100   4.507  0.00  0.00    -0.202 NA
ATOM     18  C   LIG    1       23.576 -20.354   4.310  0.00  0.00    +0.176 C 
ATOM     19  S   LIG    1       22.245 -20.882   5.256  0.00  0.00    +0.049 S 
ATOM     20  N   LIG    1       23.134 -22.054   6.031  0.00  0.00    -0.185 NA
BRANCH  18  21
ATOM     21  N   LIG    1       23.540 -19.313   3.471  0.00  0.00    -0.336 NA
ATOM     22  H   LIG    1       23.683 -19.501   2.486  0.00  0.00    +0.144 HD
ATOM     23  H   LIG    1       22.912 -18.539   3.663  0.00  0.00    +0.144 HD
ENDBRANCH  18  21
ENDBRANCH  14  16
BRANCH  15  24
ATOM     24  O   LIG    1       26.396 -21.400   7.254  0.00  0.00    -0.376 OA
BRANCH  24  25
ATOM     25  C   LIG    1       27.727 -20.874   7.417  0.00  0.00    +0.228 C 
ATOM     26  C   LIG    1       28.822 -21.938   7.557  0.00  0.00    +0.070 C 
ATOM     27  C   LIG    1       27.701 -19.955   8.637  0.00  0.00    +0.070 C 
BRANCH  25  28
ATOM     28  C   LIG    1       28.035 -20.038   6.166  0.00  0.00    +0.351 C 
ATOM     29  O   LIG    1       28.916 -19.192   6.094  0.00  0.00    -0.246 OA
BRANCH  28  30
ATOM     30  O   LIG    1       27.264 -20.356   5.095  0.00  0.00    -0.478 OA
ATOM     31  H   LIG    1       26.382 -19.934   5.171  0.00  0.00    +0.295 HD
ENDBRANCH  28  30
ENDBRANCH  25  28
ENDBRANCH  24  25
ENDBRANCH  15  24
ENDBRANCH  12  14
ENDBRANCH   8  10
BRANCH   9  32
ATOM     32  C   LIG    1       23.990 -30.559   6.288  0.00  0.00    +0.352 C 
ATOM     33  O   LIG    1       23.999 -31.771   6.281  0.00  0.00    -0.244 OA
BRANCH  32  34
ATOM     34  OXT LIG    1       23.100 -29.878   5.566  0.00  0.00    -0.476 OA
ATOM     35  HXT LIG    1       23.437 -28.975   5.407  0.00  0.00    +0.295 HD
ENDBRANCH  32  34
ENDBRANCH   9  32
BRANCH   1  36
ATOM     36  C   LIG    1       25.217 -31.384   8.959  0.00  0.00    +0.420 C 
BRANCH  36  39
ATOM     37  C   LIG    1       25.175 -32.879  11.678  0.00  0.00    +0.223 C 
ATOM     38  N   LIG    1       24.348 -31.733  11.303  0.00  0.00    -0.138 NA
ATOM     39  N   LIG    1       24.240 -31.190  10.057  0.00  0.00    -0.106 NA
ATOM     40  C   LIG    1       23.090 -30.352  10.042  0.00  0.00    +0.363 C 
ATOM     41  C   LIG    1       22.526 -30.265  11.362  0.00  0.00    +0.144 C 
ATOM     42  C   LIG    1       23.390 -31.125  12.151  0.00  0.00    +0.179 C 
BRANCH  41  43
ATOM     43  N   LIG    1       21.421 -29.492  11.709  0.00  0.00    -0.262 N 
ATOM     44  H   LIG    1       20.563 -29.624  11.191  0.00  0.00    +0.157 HD
ATOM     45  C   LIG    1       21.412 -28.514  12.677  0.00  0.00    +0.304 C 
ATOM     46  N   LIG    1       20.197 -27.889  12.798  0.00  0.00    -0.298 N 
ATOM     47  H   LIG    1       19.356 -28.332  12.459  0.00  0.00    +0.150 HD
ATOM     48  O   LIG    1       22.381 -28.174  13.352  0.00  0.00    -0.253 OA
BRANCH  46  49
ATOM     49  C   LIG    1       20.028 -26.793  13.747  0.00  0.00    +0.120 C 
BRANCH  49  50
ATOM     50  C   LIG    1       18.672 -26.834  14.468  0.00  0.00    +0.096 C 
BRANCH  50  51
ATOM     51  N   LIG    1       17.825 -25.705  14.093  0.00  0.00    -0.329 NA
ATOM     52  H   LIG    1       17.864 -25.569  13.082  0.00  0.00    +0.118 HD
ATOM     53  H   LIG    1       16.849 -25.917  14.301  0.00  0.00    +0.118 HD
ENDBRANCH  50  51
ENDBRANCH  49  50
ENDBRANCH  46  49
ENDBRANCH  41  43
BRANCH  42  54
ATOM     54  N   LIG    1       23.371 -31.325  13.493  0.00  0.00    -0.339 NA
ATOM     55  H   LIG    1       24.137 -31.849  13.944  0.00  0.00    +0.144 HD
ATOM     56  H   LIG    1       22.580 -31.239  14.118  0.00  0.00    +0.144 HD
ENDBRANCH  42  54
ENDBRANCH  36  39
ENDBRANCH   1  36
TORSDOF 17
ENDMDL
MODEL 2
REMARK VINA RESULT:      -6.7      1.647      2.844
REMARK  Name = *****
REMARK                            x       y       z     vdW  Elec       q    Type
REMARK                         _______ _______ _______ _____ _____    ______ ____
ROOT
ATOM      1  C   LIG    1       25.514 -29.808   8.145  0.00  0.00    +0.035 C 
ATOM      2  C   LIG    1       26.157 -28.790   9.088  0.00  0.00    +0.110 C 
ATOM      3  S   LIG    1       26.121 -27.065   8.557  0.00  0.00    -0.131 S 
ATOM      4  C   LIG    1       26.527 -27.482   6.851  0.00  0.00    +0.169 C 
ATOM      5  N   LIG    1       25.426 -28.278   6.348  0.00  0.00    -0.249 N 
ATOM      6  C   LIG    1       25.146 -27.493   5.278  0.00  0.00    +0.244 C 
ATOM      7  O   LIG    1       24.401 -27.577   4.331  0.00  0.00    -0.273 OA
ATOM      8  CA  LIG    1       26.219 -26.454   5.734  0.00  0.00    +0.191 C 
ATOM      9  CA  LIG    1       25.091 -29.494   6.887  0.00  0.00    +0.128 C 
ENDROOT
BRANCH   8  10
ATOM     10  N   LIG    1       25.824 -25.082   6.135  0.00  0.00    -0.296 N 
ATOM     11  H   LIG    1       26.472 -24.303   6.056  0.00  0.00    +0.150 HD
ATOM     12  C   LIG    1       24.511 -24.732   6.410  0.00  0.00    +0.270 C 
ATOM     13  O   LIG    1       23.587 -25.521   6.435  0.00  0.00    -0.268 OA
BRANCH  12  14
ATOM     14  C   LIG    1       24.281 -23.241   6.617  0.00  0.00    +0.208 C 
ATOM     15  N   LIG    1       23.119 -22.803   6.189  0.00  0.00    -0.075 NA
BRANCH  14  16
ATOM     16  C   LIG    1       25.308 -22.437   7.301  0.00  0.00    +0.197 C 
ATOM     17  N   LIG    1       26.634 -22.401   6.847  0.00  0.00    -0.202 NA
ATOM     18  C   LIG    1       27.351 -21.648   7.642  0.00  0.00    +0.176 C 
ATOM     19  S   LIG    1       26.386 -20.904   8.849  0.00  0.00    +0.049 S 
ATOM     20  N   LIG    1       25.004 -21.697   8.373  0.00  0.00    -0.185 NA
BRANCH  18  21
ATOM     21  N   LIG    1       28.673 -21.479   7.522  0.00  0.00    -0.336 NA
ATOM     22  H   LIG    1       29.030 -21.225   6.608  0.00  0.00    +0.144 HD
ATOM     23  H   LIG    1       29.200 -21.095   8.300  0.00  0.00    +0.144 HD
ENDBRANCH  18  21
ENDBRANCH  14  16
BRANCH  15  24
ATOM     24  O   LIG    1       22.906 -21.437   6.411  0.00  0.00    -0.376 OA
BRANCH  24  25
ATOM     25  C   LIG    1       22.688 -20.697   5.194  0.00  0.00    +0.228 C 
ATOM     26  C   LIG    1       22.517 -19.186   5.386  0.00  0.00    +0.070 C 
ATOM     27  C   LIG    1       21.462 -21.303   4.513  0.00  0.00    +0.070 C 
BRANCH  25  28
ATOM     28  C   LIG    1       23.919 -20.926   4.304  0.00  0.00    +0.351 C 
ATOM     29  O   LIG    1       25.001 -20.376   4.457  0.00  0.00    -0.246 OA
BRANCH  28  30
ATOM     30  O   LIG    1       23.725 -21.856   3.334  0.00  0.00    -0.478 OA
ATOM     31  H   LIG    1       24.578 -22.095   2.913  0.00  0.00    +0.295 HD
ENDBRANCH  28  30
ENDBRANCH  25  28
ENDBRANCH  24  25
ENDBRANCH  15  24
ENDBRANCH  12  14
ENDBRANCH   8  10
BRANCH   9  32
ATOM     32  C   LIG    1       24.244 -30.454   6.089  0.00  0.00    +0.352 C 
ATOM     33  O   LIG    1       24.524 -31.609   5.852  0.00  0.00    -0.244 OA
BRANCH  32  34
ATOM     34  OXT LIG    1       23.133 -29.906   5.600  0.00  0.00    -0.476 OA
ATOM     35  HXT LIG    1       22.433 -29.930   6.282  0.00  0.00    +0.295 HD
ENDBRANCH  32  34
ENDBRANCH   9  32
BRANCH   1  36
ATOM     36  C   LIG    1       25.369 -31.167   8.836  0.00  0.00    +0.420 C 
BRANCH  36  39
ATOM     37  C   LIG    1       25.381 -32.729  11.517  0.00  0.00    +0.223 C 
ATOM     38  N   LIG    1       24.519 -31.599  11.173  0.00  0.00    -0.138 NA
ATOM     39  N   LIG    1       24.391 -31.028   9.941  0.00  0.00    -0.106 NA
ATOM     40  C   LIG    1       23.217 -30.224   9.950  0.00  0.00    +0.363 C 
ATOM     41  C   LIG    1       22.656 -30.187  11.274  0.00  0.00    +0.144 C 
ATOM     42  C   LIG    1       23.547 -31.040  12.038  0.00  0.00    +0.179 C 
BRANCH  41  43
ATOM     43  N   LIG    1       21.530 -29.455  11.643  0.00  0.00    -0.262 N 
ATOM     44  H   LIG    1       20.679 -29.584  11.111  0.00  0.00    +0.157 HD
ATOM     45  C   LIG    1       21.489 -28.520  12.651  0.00  0.00    +0.304 C 
ATOM     46  N   LIG    1       20.259 -27.929  12.787  0.00  0.00    -0.298 N 
ATOM     47  H   LIG    1       19.431 -28.375  12.422  0.00  0.00    +0.150 HD
ATOM     48  O   LIG    1       22.444 -28.187  13.350  0.00  0.00    -0.253 OA
BRANCH  46  49
ATOM     49  C   LIG    1       20.056 -26.879  13.781  0.00  0.00    +0.120 C 
BRANCH  49  50
ATOM     50  C   LIG    1       18.651 -26.911  14.403  0.00  0.00    +0.096 C 
BRANCH  50  51
ATOM     51  N   LIG    1       17.883 -25.714  14.068  0.00  0.00    -0.329 NA
ATOM     52  H   LIG    1       17.207 -25.524  14.809  0.00  0.00    +0.118 HD
ATOM     53  H   LIG    1       18.498 -24.900  14.046  0.00  0.00    +0.118 HD
ENDBRANCH  50  51
ENDBRANCH  49  50
ENDBRANCH  46  49
ENDBRANCH  41  43
BRANCH  42  54
ATOM     54  N   LIG    1       23.538 -31.273  13.375  0.00  0.00    -0.339 NA
ATOM     55  H   LIG    1       23.696 -30.494  14.032  0.00  0.00    +0.144 HD
ATOM     56  H   LIG    1       23.633 -32.163  13.846  0.00  0.00    +0.144 HD
ENDBRANCH  42  54
ENDBRANCH  36  39
ENDBRANCH   1  36
TORSDOF 17
ENDMDL
MODEL 3
REMARK VINA RESULT:      -6.6      2.412      3.416
REMARK  Name = *****
REMARK                            x       y       z     vdW  Elec       q    Type
REMARK                         _______ _______ _______ _____ _____    ______ ____
ROOT
ATOM      1  C   LIG    1       25.548 -29.725   8.173  0.00  0.00    +0.035 C 
ATOM      2  C   LIG    1       26.209 -28.696   9.091  0.00  0.00    +0.110 C 
ATOM      3  S   LIG    1       26.163 -26.977   8.540  0.00  0.00    -0.131 S 
ATOM      4  C   LIG    1       26.536 -27.415   6.832  0.00  0.00    +0.169 C 
ATOM      5  N   LIG    1       25.427 -28.216   6.360  0.00  0.00    -0.249 N 
ATOM      6  C   LIG    1       25.126 -27.444   5.286  0.00  0.00    +0.244 C 
ATOM      7  O   LIG    1       24.363 -27.540   4.354  0.00  0.00    -0.273 OA
ATOM      8  CA  LIG    1       26.208 -26.400   5.710  0.00  0.00    +0.191 C 
ATOM      9  CA  LIG    1       25.101 -29.425   6.919  0.00  0.00    +0.128 C 
ENDROOT
BRANCH   8  10
ATOM     10  N   LIG    1       25.820 -25.023   6.101  0.00  0.00    -0.296 N 
ATOM     11  H   LIG    1       26.462 -24.243   5.987  0.00  0.00    +0.150 HD
ATOM     12  C   LIG    1       24.516 -24.674   6.415  0.00  0.00    +0.270 C 
ATOM     13  O   LIG    1       23.597 -25.467   6.485  0.00  0.00    -0.268 OA
BRANCH  12  14
ATOM     14  C   LIG    1       24.286 -23.181   6.606  0.00  0.00    +0.208 C 
ATOM     15  N   LIG    1       23.118 -22.750   6.187  0.00  0.00    -0.075 NA
BRANCH  14  16
ATOM     16  C   LIG    1       25.320 -22.367   7.266  0.00  0.00    +0.197 C 
ATOM     17  N   LIG    1       26.643 -22.342   6.801  0.00  0.00    -0.202 NA
ATOM     18  C   LIG    1       27.368 -21.576   7.577  0.00  0.00    +0.176 C 
ATOM     19  S   LIG    1       26.414 -20.809   8.779  0.00  0.00    +0.049 S 
ATOM     20  N   LIG    1       25.027 -21.608   8.328  0.00  0.00    -0.185 NA
BRANCH  18  21
ATOM     21  N   LIG    1       28.689 -21.412   7.443  0.00  0.00    -0.336 NA
ATOM     22  H   LIG    1       29.194 -22.106   6.904  0.00  0.00    +0.144 HD
ATOM     23  H   LIG    1       29.071 -20.473   7.381  0.00  0.00    +0.144 HD
ENDBRANCH  18  21
ENDBRANCH  14  16
BRANCH  15  24
ATOM     24  O   LIG    1       22.906 -21.382   6.393  0.00  0.00    -0.376 OA
BRANCH  24  25
ATOM     25  C   LIG    1       22.672 -20.658   5.170  0.00  0.00    +0.228 C 
ATOM     26  C   LIG    1       22.480 -19.148   5.346  0.00  0.00    +0.070 C 
ATOM     27  C   LIG    1       21.450 -21.289   4.502  0.00  0.00    +0.070 C 
BRANCH  25  28
ATOM     28  C   LIG    1       23.901 -20.879   4.275  0.00  0.00    +0.351 C 
ATOM     29  O   LIG    1       24.963 -20.284   4.394  0.00  0.00    -0.246 OA
BRANCH  28  30
ATOM     30  O   LIG    1       23.731 -21.854   3.347  0.00  0.00    -0.478 OA
ATOM     31  H   LIG    1       24.506 -22.455   3.335  0.00  0.00    +0.295 HD
ENDBRANCH  28  30
ENDBRANCH  25  28
ENDBRANCH  24  25
ENDBRANCH  15  24
ENDBRANCH  12  14
ENDBRANCH   8  10
BRANCH   9  32
ATOM     32  C   LIG    1       24.240 -30.395   6.149  0.00  0.00    +0.352 C 
ATOM     33  O   LIG    1       24.492 -31.566   5.964  0.00  0.00    -0.244 OA
BRANCH  32  34
ATOM     34  OXT LIG    1       23.150 -29.838   5.622  0.00  0.00    -0.476 OA
ATOM     35  HXT LIG    1       23.245 -29.799   4.650  0.00  0.00    +0.295 HD
ENDBRANCH  32  34
ENDBRANCH   9  32
BRANCH   1  36
ATOM     36  C   LIG    1       25.416 -31.076   8.882  0.00  0.00    +0.420 C 
BRANCH  36  39
ATOM     37  C   LIG    1       25.615 -31.250  11.974  0.00  0.00    +0.223 C 
ATOM     38  N   LIG    1       24.428 -30.897  11.199  0.00  0.00    -0.138 NA
ATOM     39  N   LIG    1       24.291 -30.991   9.845  0.00  0.00    -0.106 NA
ATOM     40  C   LIG    1       22.905 -30.904   9.536  0.00  0.00    +0.363 C 
ATOM     41  C   LIG    1       22.152 -30.617  10.728  0.00  0.00    +0.144 C 
ATOM     42  C   LIG    1       23.170 -30.572  11.762  0.00  0.00    +0.179 C 
BRANCH  41  43
ATOM     43  N   LIG    1       20.774 -30.423  10.773  0.00  0.00    -0.262 N 
ATOM     44  H   LIG    1       20.422 -29.476  10.721  0.00  0.00    +0.157 HD
ATOM     45  C   LIG    1       19.839 -31.419  10.937  0.00  0.00    +0.304 C 
ATOM     46  N   LIG    1       18.552 -30.947  10.971  0.00  0.00    -0.298 N 
ATOM     47  H   LIG    1       18.325 -30.043  10.585  0.00  0.00    +0.150 HD
ATOM     48  O   LIG    1       20.092 -32.612  11.087  0.00  0.00    -0.253 OA
BRANCH  46  49
ATOM     49  C   LIG    1       17.440 -31.868  11.186  0.00  0.00    +0.120 C 
BRANCH  49  50
ATOM     50  C   LIG    1       16.711 -31.621  12.516  0.00  0.00    +0.096 C 
BRANCH  50  51
ATOM     51  N   LIG    1       16.542 -30.196  12.785  0.00  0.00    -0.329 NA
ATOM     52  H   LIG    1       16.664 -29.668  11.920  0.00  0.00    +0.118 HD
ATOM     53  H   LIG    1       15.585 -30.009  13.085  0.00  0.00    +0.118 HD
ENDBRANCH  50  51
ENDBRANCH  49  50
ENDBRANCH  46  49
ENDBRANCH  41  43
BRANCH  42  54
ATOM     54  N   LIG    1       23.020 -30.235  13.068  0.00  0.00    -0.339 NA
ATOM     55  H   LIG    1       23.568 -29.456  13.463  0.00  0.00    +0.144 HD
ATOM     56  H   LIG    1       22.610 -30.793  13.806  0.00  0.00    +0.144 HD
ENDBRANCH  42  54
ENDBRANCH  36  39
ENDBRANCH   1  36
TORSDOF 17
ENDMDL
MODEL 4
REMARK VINA RESULT:      -6.4      1.436      2.702
REMARK  Name = *****
REMARK                            x       y       z     vdW  Elec       q    Type
REMARK                         _______ _______ _______ _____ _____    ______ ____
ROOT
ATOM      1  C   LIG    1       25.641 -29.827   8.528  0.00  0.00    +0.035 C 
ATOM      2  C   LIG    1       26.291 -28.712   9.348  0.00  0.00    +0.110 C 
ATOM      3  S   LIG    1       26.198 -27.045   8.659  0.00  0.00    -0.131 S 
ATOM      4  C   LIG    1       26.560 -27.614   6.987  0.00  0.00    +0.169 C 
ATOM      5  N   LIG    1       25.463 -28.476   6.599  0.00  0.00    -0.249 N 
ATOM      6  C   LIG    1       25.130 -27.801   5.469  0.00  0.00    +0.244 C 
ATOM      7  O   LIG    1       24.358 -27.990   4.560  0.00  0.00    -0.273 OA
ATOM      8  CA  LIG    1       26.194 -26.703   5.790  0.00  0.00    +0.191 C 
ATOM      9  CA  LIG    1       25.172 -29.641   7.260  0.00  0.00    +0.128 C 
ENDROOT
BRANCH   8  10
ATOM     10  N   LIG    1       25.780 -25.307   6.073  0.00  0.00    -0.296 N 
ATOM     11  H   LIG    1       26.084 -24.829   6.917  0.00  0.00    +0.150 HD
ATOM     12  C   LIG    1       25.169 -24.501   5.126  0.00  0.00    +0.270 C 
ATOM     13  O   LIG    1       24.838 -24.882   4.020  0.00  0.00    -0.268 OA
BRANCH  12  14
ATOM     14  C   LIG    1       24.994 -23.048   5.545  0.00  0.00    +0.208 C 
ATOM     15  N   LIG    1       24.218 -22.342   4.755  0.00  0.00    -0.075 NA
BRANCH  14  16
ATOM     16  C   LIG    1       25.634 -22.568   6.781  0.00  0.00    +0.197 C 
ATOM     17  N   LIG    1       26.960 -22.113   6.792  0.00  0.00    -0.202 NA
ATOM     18  C   LIG    1       27.301 -21.778   8.010  0.00  0.00    +0.176 C 
ATOM     19  S   LIG    1       25.977 -21.904   9.094  0.00  0.00    +0.049 S 
ATOM     20  N   LIG    1       24.962 -22.533   7.937  0.00  0.00    -0.185 NA
BRANCH  18  21
ATOM     21  N   LIG    1       28.530 -21.382   8.362  0.00  0.00    -0.336 NA
ATOM     22  H   LIG    1       29.096 -20.931   7.653  0.00  0.00    +0.144 HD
ATOM     23  H   LIG    1       28.695 -21.049   9.306  0.00  0.00    +0.144 HD
ENDBRANCH  18  21
ENDBRANCH  14  16
BRANCH  15  24
ATOM     24  O   LIG    1       24.040 -21.015   5.165  0.00  0.00    -0.376 OA
BRANCH  24  25
ATOM     25  C   LIG    1       23.942 -20.093   4.062  0.00  0.00    +0.228 C 
ATOM     26  C   LIG    1       22.880 -19.002   4.232  0.00  0.00    +0.070 C 
ATOM     27  C   LIG    1       23.676 -20.923   2.806  0.00  0.00    +0.070 C 
BRANCH  25  28
ATOM     28  C   LIG    1       25.310 -19.407   3.928  0.00  0.00    +0.351 C 
ATOM     29  O   LIG    1       25.484 -18.285   3.473  0.00  0.00    -0.246 OA
BRANCH  28  30
ATOM     30  O   LIG    1       26.339 -20.144   4.418  0.00  0.00    -0.478 OA
ATOM     31  H   LIG    1       26.362 -21.026   3.991  0.00  0.00    +0.295 HD
ENDBRANCH  28  30
ENDBRANCH  25  28
ENDBRANCH  24  25
ENDBRANCH  15  24
ENDBRANCH  12  14
ENDBRANCH   8  10
BRANCH   9  32
ATOM     32  C   LIG    1       24.323 -30.689   6.585  0.00  0.00    +0.352 C 
ATOM     33  O   LIG    1       23.353 -31.231   7.072  0.00  0.00    -0.244 OA
BRANCH  32  34
ATOM     34  OXT LIG    1       24.758 -31.030   5.373  0.00  0.00    -0.476 OA
ATOM     35  HXT LIG    1       24.648 -30.272   4.765  0.00  0.00    +0.295 HD
ENDBRANCH  32  34
ENDBRANCH   9  32
BRANCH   1  36
ATOM     36  C   LIG    1       25.550 -31.117   9.348  0.00  0.00    +0.420 C 
BRANCH  36  39
ATOM     37  C   LIG    1       25.159 -32.809  11.919  0.00  0.00    +0.223 C 
ATOM     38  N   LIG    1       24.427 -31.597  11.557  0.00  0.00    -0.138 NA
ATOM     39  N   LIG    1       24.473 -30.955  10.355  0.00  0.00    -0.106 NA
ATOM     40  C   LIG    1       23.369 -30.060  10.291  0.00  0.00    +0.363 C 
ATOM     41  C   LIG    1       22.675 -30.045  11.552  0.00  0.00    +0.144 C 
ATOM     42  C   LIG    1       23.413 -31.006  12.350  0.00  0.00    +0.179 C 
BRANCH  41  43
ATOM     43  N   LIG    1       21.575 -29.244  11.847  0.00  0.00    -0.262 N 
ATOM     44  H   LIG    1       20.770 -29.292  11.236  0.00  0.00    +0.157 HD
ATOM     45  C   LIG    1       21.509 -28.342  12.885  0.00  0.00    +0.304 C 
ATOM     46  N   LIG    1       20.316 -27.666  12.933  0.00  0.00    -0.298 N 
ATOM     47  H   LIG    1       19.496 -28.037  12.477  0.00  0.00    +0.150 HD
ATOM     48  O   LIG    1       22.416 -28.105  13.678  0.00  0.00    -0.253 OA
BRANCH  46  49
ATOM     49  C   LIG    1       20.098 -26.638  13.946  0.00  0.00    +0.120 C 
BRANCH  49  50
ATOM     50  C   LIG    1       18.713 -26.735  14.605  0.00  0.00    +0.096 C 
BRANCH  50  51
ATOM     51  N   LIG    1       17.762 -25.802  14.006  0.00  0.00    -0.329 NA
ATOM     52  H   LIG    1       17.807 -25.874  12.989  0.00  0.00    +0.118 HD
ATOM     53  H   LIG    1       16.809 -26.069  14.256  0.00  0.00    +0.118 HD
ENDBRANCH  50  51
ENDBRANCH  49  50
ENDBRANCH  46  49
ENDBRANCH  41  43
BRANCH  42  54
ATOM     54  N   LIG    1       23.245 -31.306  13.663  0.00  0.00    -0.339 NA
ATOM     55  H   LIG    1       22.784 -30.628  14.289  0.00  0.00    +0.144 HD
ATOM     56  H   LIG    1       23.722 -32.020  14.199  0.00  0.00    +0.144 HD
ENDBRANCH  42  54
ENDBRANCH  36  39
ENDBRANCH   1  36
TORSDOF 17
ENDMDL
MODEL 5
REMARK VINA RESULT:      -6.3      1.735      2.032
REMARK  Name = *****
REMARK                            x       y       z     vdW  Elec       q    Type
REMARK                         _______ _______ _______ _____ _____    ______ ____
ROOT
ATOM      1  C   LIG    1       25.391 -30.323   8.311  0.00  0.00    +0.035 C 
ATOM      2  C   LIG    1       26.122 -29.369   9.257  0.00  0.00    +0.110 C 
ATOM      3  S   LIG    1       26.195 -27.636   8.758  0.00  0.00    -0.131 S 
ATOM      4  C   LIG    1       26.537 -28.047   7.036  0.00  0.00    +0.169 C 
ATOM      5  N   LIG    1       25.374 -28.756   6.543  0.00  0.00    -0.249 N 
ATOM      6  C   LIG    1       25.127 -27.933   5.493  0.00  0.00    +0.244 C 
ATOM      7  O   LIG    1       24.360 -27.949   4.561  0.00  0.00    -0.273 OA
ATOM      8  CA  LIG    1       26.279 -26.980   5.945  0.00  0.00    +0.191 C 
ATOM      9  CA  LIG    1       24.966 -29.956   7.067  0.00  0.00    +0.128 C 
ENDROOT
BRANCH   8  10
ATOM     10  N   LIG    1       25.987 -25.591   6.378  0.00  0.00    -0.296 N 
ATOM     11  H   LIG    1       26.359 -25.223   7.249  0.00  0.00    +0.150 HD
ATOM     12  C   LIG    1       25.407 -24.653   5.540  0.00  0.00    +0.270 C 
ATOM     13  O   LIG    1       25.006 -24.897   4.418  0.00  0.00    -0.268 OA
BRANCH  12  14
ATOM     14  C   LIG    1       25.363 -23.239   6.103  0.00  0.00    +0.208 C 
ATOM     15  N   LIG    1       26.265 -22.990   7.025  0.00  0.00    -0.075 NA
BRANCH  14  16
ATOM     16  C   LIG    1       24.391 -22.274   5.563  0.00  0.00    +0.197 C 
ATOM     17  N   LIG    1       24.732 -21.389   4.530  0.00  0.00    -0.202 NA
ATOM     18  C   LIG    1       23.711 -20.616   4.257  0.00  0.00    +0.176 C 
ATOM     19  S   LIG    1       22.326 -21.054   5.169  0.00  0.00    +0.049 S 
ATOM     20  N   LIG    1       23.139 -22.220   6.031  0.00  0.00    -0.185 NA
BRANCH  18  21
ATOM     21  N   LIG    1       23.748 -19.613   3.372  0.00  0.00    -0.336 NA
ATOM     22  H   LIG    1       23.250 -19.742   2.499  0.00  0.00    +0.144 HD
ATOM     23  H   LIG    1       23.768 -18.655   3.706  0.00  0.00    +0.144 HD
ENDBRANCH  18  21
ENDBRANCH  14  16
BRANCH  15  24
ATOM     24  O   LIG    1       26.234 -21.679   7.515  0.00  0.00    -0.376 OA
BRANCH  24  25
ATOM     25  C   LIG    1       27.475 -20.974   7.315  0.00  0.00    +0.228 C 
ATOM     26  C   LIG    1       27.525 -20.114   6.048  0.00  0.00    +0.070 C 
ATOM     27  C   LIG    1       28.589 -22.020   7.310  0.00  0.00    +0.070 C 
BRANCH  25  28
ATOM     28  C   LIG    1       27.664 -20.047   8.526  0.00  0.00    +0.351 C 
ATOM     29  O   LIG    1       28.651 -19.353   8.724  0.00  0.00    -0.246 OA
BRANCH  28  30
ATOM     30  O   LIG    1       26.593 -20.016   9.360  0.00  0.00    -0.478 OA
ATOM     31  H   LIG    1       26.402 -19.095   9.637  0.00  0.00    +0.295 HD
ENDBRANCH  28  30
ENDBRANCH  25  28
ENDBRANCH  24  25
ENDBRANCH  15  24
ENDBRANCH  12  14
ENDBRANCH   8  10
BRANCH   9  32
ATOM     32  C   LIG    1       24.040 -30.841   6.271  0.00  0.00    +0.352 C 
ATOM     33  O   LIG    1       24.117 -32.048   6.189  0.00  0.00    -0.244 OA
BRANCH  32  34
ATOM     34  OXT LIG    1       23.110 -30.168   5.593  0.00  0.00    -0.476 OA
ATOM     35  HXT LIG    1       22.885 -30.659   4.779  0.00  0.00    +0.295 HD
ENDBRANCH  32  34
ENDBRANCH   9  32
BRANCH   1  36
ATOM     36  C   LIG    1       25.167 -31.681   8.980  0.00  0.00    +0.420 C 
BRANCH  36  39
ATOM     37  C   LIG    1       25.130 -31.966  12.070  0.00  0.00    +0.223 C 
ATOM     38  N   LIG    1       24.018 -31.535  11.224  0.00  0.00    -0.138 NA
ATOM     39  N   LIG    1       23.978 -31.578   9.861  0.00  0.00    -0.106 NA
ATOM     40  C   LIG    1       22.624 -31.419   9.456  0.00  0.00    +0.363 C 
ATOM     41  C   LIG    1       21.798 -31.139  10.600  0.00  0.00    +0.144 C 
ATOM     42  C   LIG    1       22.737 -31.173  11.706  0.00  0.00    +0.179 C 
BRANCH  41  43
ATOM     43  N   LIG    1       20.429 -30.884  10.553  0.00  0.00    -0.262 N 
ATOM     44  H   LIG    1       20.095 -30.186   9.903  0.00  0.00    +0.157 HD
ATOM     45  C   LIG    1       19.486 -31.476  11.362  0.00  0.00    +0.304 C 
ATOM     46  N   LIG    1       18.213 -31.025  11.120  0.00  0.00    -0.298 N 
ATOM     47  H   LIG    1       17.982 -30.584  10.243  0.00  0.00    +0.150 HD
ATOM     48  O   LIG    1       19.723 -32.291  12.250  0.00  0.00    -0.253 OA
BRANCH  46  49
ATOM     49  C   LIG    1       17.098 -31.516  11.925  0.00  0.00    +0.120 C 
BRANCH  49  50
ATOM     50  C   LIG    1       16.713 -30.553  13.059  0.00  0.00    +0.096 C 
BRANCH  50  51
ATOM     51  N   LIG    1       17.866 -29.797  13.543  0.00  0.00    -0.329 NA
ATOM     52  H   LIG    1       18.660 -30.427  13.666  0.00  0.00    +0.118 HD
ATOM     53  H   LIG    1       18.161 -29.122  12.837  0.00  0.00    +0.118 HD
ENDBRANCH  50  51
ENDBRANCH  49  50
ENDBRANCH  46  49
ENDBRANCH  41  43
BRANCH  42  54
ATOM     54  N   LIG    1       22.505 -30.873  13.009  0.00  0.00    -0.339 NA
ATOM     55  H   LIG    1       21.631 -31.186  13.459  0.00  0.00    +0.144 HD
ATOM     56  H   LIG    1       22.964 -30.167  13.571  0.00  0.00    +0.144 HD
ENDBRANCH  42  54
ENDBRANCH  36  39
ENDBRANCH   1  36
TORSDOF 17
ENDMDL
MODEL 6
REMARK VINA RESULT:      -5.6      4.517      7.224
REMARK  Name = *****
REMARK                            x       y       z     vdW  Elec       q    Type
REMARK                         _______ _______ _______ _____ _____    ______ ____
ROOT
ATOM      1  C   LIG    1       23.893 -31.146  13.784  0.00  0.00    +0.035 C 
ATOM      2  C   LIG    1       25.322 -30.967  13.271  0.00  0.00    +0.110 C 
ATOM      3  S   LIG    1       25.557 -31.070  11.484  0.00  0.00    -0.131 S 
ATOM      4  C   LIG    1       24.436 -32.472  11.322  0.00  0.00    +0.169 C 
ATOM      5  N   LIG    1       23.126 -32.000  11.720  0.00  0.00    -0.249 N 
ATOM      6  C   LIG    1       22.485 -32.343  10.574  0.00  0.00    +0.244 C 
ATOM      7  O   LIG    1       21.334 -32.342  10.209  0.00  0.00    -0.273 OA
ATOM      8  CA  LIG    1       23.835 -32.795   9.933  0.00  0.00    +0.191 C 
ATOM      9  CA  LIG    1       22.860 -31.544  12.986  0.00  0.00    +0.128 C 
ENDROOT
BRANCH   8  10
ATOM     10  N   LIG    1       24.386 -32.089   8.750  0.00  0.00    -0.296 N 
ATOM     11  H   LIG    1       24.970 -32.572   8.074  0.00  0.00    +0.150 HD
ATOM     12  C   LIG    1       23.961 -30.826   8.368  0.00  0.00    +0.270 C 
ATOM     13  O   LIG    1       23.175 -30.151   9.004  0.00  0.00    -0.268 OA
BRANCH  12  14
ATOM     14  C   LIG    1       24.504 -30.351   7.027  0.00  0.00    +0.208 C 
ATOM     15  N   LIG    1       24.523 -29.047   6.877  0.00  0.00    -0.075 NA
BRANCH  14  16
ATOM     16  C   LIG    1       24.999 -31.340   6.054  0.00  0.00    +0.197 C 
ATOM     17  N   LIG    1       24.142 -31.949   5.127  0.00  0.00    -0.202 NA
ATOM     18  C   LIG    1       24.815 -32.809   4.404  0.00  0.00    +0.176 C 
ATOM     19  S   LIG    1       26.489 -32.776   4.779  0.00  0.00    +0.049 S 
ATOM     20  N   LIG    1       26.292 -31.678   6.012  0.00  0.00    -0.185 NA
BRANCH  18  21
ATOM     21  N   LIG    1       24.262 -33.609   3.486  0.00  0.00    -0.336 NA
ATOM     22  H   LIG    1       23.321 -33.941   3.661  0.00  0.00    +0.144 HD
ATOM     23  H   LIG    1       24.481 -33.468   2.505  0.00  0.00    +0.144 HD
ENDBRANCH  18  21
ENDBRANCH  14  16
BRANCH  15  24
ATOM     24  O   LIG    1       25.051 -28.620   5.652  0.00  0.00    -0.376 OA
BRANCH  24  25
ATOM     25  C   LIG    1       25.772 -27.377   5.753  0.00  0.00    +0.228 C 
ATOM     26  C   LIG    1       27.039 -27.300   4.894  0.00  0.00    +0.070 C 
ATOM     27  C   LIG    1       26.101 -27.167   7.231  0.00  0.00    +0.070 C 
BRANCH  25  28
ATOM     28  C   LIG    1       24.817 -26.266   5.290  0.00  0.00    +0.351 C 
ATOM     29  O   LIG    1       25.122 -25.357   4.531  0.00  0.00    -0.246 OA
BRANCH  28  30
ATOM     30  O   LIG    1       23.552 -26.405   5.762  0.00  0.00    -0.478 OA
ATOM     31  H   LIG    1       22.910 -26.426   5.020  0.00  0.00    +0.295 HD
ENDBRANCH  28  30
ENDBRANCH  25  28
ENDBRANCH  24  25
ENDBRANCH  15  24
ENDBRANCH  12  14
ENDBRANCH   8  10
BRANCH   9  32
ATOM     32  C   LIG    1       21.433 -31.469  13.467  0.00  0.00    +0.352 C 
ATOM     33  O   LIG    1       20.958 -32.130  14.366  0.00  0.00    -0.244 OA
BRANCH  32  34
ATOM     34  OXT LIG    1       20.680 -30.617  12.774  0.00  0.00    -0.476 OA
ATOM     35  HXT LIG    1       20.334 -29.928  13.375  0.00  0.00    +0.295 HD
ENDBRANCH  32  34
ENDBRANCH   9  32
BRANCH   1  36
ATOM     36  C   LIG    1       23.798 -30.763  15.264  0.00  0.00    +0.420 C 
BRANCH  36  39
ATOM     37  C   LIG    1       25.584 -28.229  15.377  0.00  0.00    +0.223 C 
ATOM     38  N   LIG    1       24.131 -28.261  15.228  0.00  0.00    -0.138 NA
ATOM     39  N   LIG    1       23.331 -29.358  15.354  0.00  0.00    -0.106 NA
ATOM     40  C   LIG    1       21.989 -28.910  15.496  0.00  0.00    +0.363 C 
ATOM     41  C   LIG    1       21.925 -27.483  15.325  0.00  0.00    +0.144 C 
ATOM     42  C   LIG    1       23.311 -27.112  15.106  0.00  0.00    +0.179 C 
BRANCH  41  43
ATOM     43  N   LIG    1       20.757 -26.727  15.356  0.00  0.00    -0.262 N 
ATOM     44  H   LIG    1       20.666 -26.015  16.069  0.00  0.00    +0.157 HD
ATOM     45  C   LIG    1       19.679 -26.901  14.519  0.00  0.00    +0.304 C 
ATOM     46  N   LIG    1       18.648 -26.035  14.783  0.00  0.00    -0.298 N 
ATOM     47  H   LIG    1       18.813 -25.179  15.290  0.00  0.00    +0.150 HD
ATOM     48  O   LIG    1       19.589 -27.761  13.645  0.00  0.00    -0.253 OA
BRANCH  46  49
ATOM     49  C   LIG    1       17.408 -26.117  14.017  0.00  0.00    +0.120 C 
BRANCH  49  50
ATOM     50  C   LIG    1       16.270 -26.794  14.797  0.00  0.00    +0.096 C 
BRANCH  50  51
ATOM     51  N   LIG    1       16.171 -28.218  14.485  0.00  0.00    -0.329 NA
ATOM     52  H   LIG    1       15.394 -28.628  15.003  0.00  0.00    +0.118 HD
ATOM     53  H   LIG    1       15.938 -28.343  13.499  0.00  0.00    +0.118 HD
ENDBRANCH  50  51
ENDBRANCH  49  50
ENDBRANCH  46  49
ENDBRANCH  41  43
BRANCH  42  54
ATOM     54  N   LIG    1       23.809 -25.890  14.787  0.00  0.00    -0.339 NA
ATOM     55  H   LIG    1       24.759 -25.628  15.093  0.00  0.00    +0.144 HD
ATOM     56  H   LIG    1       23.294 -25.075  14.481  0.00  0.00    +0.144 HD
ENDBRANCH  42  54
ENDBRANCH  36  39
ENDBRANCH   1  36
TORSDOF 17
ENDMDL
MODEL 7
REMARK VINA RESULT:      -5.0      4.330      7.420
REMARK  Name = *****
REMARK                            x       y       z     vdW  Elec       q    Type
REMARK                         _______ _______ _______ _____ _____    ______ ____
ROOT
ATOM      1  C   LIG    1       23.747 -29.653  14.018  0.00  0.00    +0.035 C 
ATOM      2  C   LIG    1       24.670 -28.573  13.451  0.00  0.00    +0.110 C 
ATOM      3  S   LIG    1       25.276 -28.830  11.770  0.00  0.00    -0.131 S 
ATOM      4  C   LIG    1       25.582 -30.585  12.047  0.00  0.00    +0.169 C 
ATOM      5  N   LIG    1       24.293 -31.191  12.310  0.00  0.00    -0.249 N 
ATOM      6  C   LIG    1       24.359 -32.124  11.326  0.00  0.00    +0.244 C 
ATOM      7  O   LIG    1       23.675 -33.063  10.996  0.00  0.00    -0.273 OA
ATOM      8  CA  LIG    1       25.711 -31.526  10.824  0.00  0.00    +0.191 C 
ATOM      9  CA  LIG    1       23.521 -30.843  13.389  0.00  0.00    +0.128 C 
ENDROOT
BRANCH   8  10
ATOM     10  N   LIG    1       25.815 -30.913   9.477  0.00  0.00    -0.296 N 
ATOM     11  H   LIG    1       26.701 -30.884   8.979  0.00  0.00    +0.150 HD
ATOM     12  C   LIG    1       24.704 -30.565   8.726  0.00  0.00    +0.270 C 
ATOM     13  O   LIG    1       23.559 -30.643   9.128  0.00  0.00    -0.268 OA
BRANCH  12  14
ATOM     14  C   LIG    1       25.012 -30.128   7.300  0.00  0.00    +0.208 C 
ATOM     15  N   LIG    1       24.810 -28.851   7.065  0.00  0.00    -0.075 NA
BRANCH  14  16
ATOM     16  C   LIG    1       25.541 -31.110   6.340  0.00  0.00    +0.197 C 
ATOM     17  N   LIG    1       25.124 -31.125   5.001  0.00  0.00    -0.202 NA
ATOM     18  C   LIG    1       25.711 -32.110   4.368  0.00  0.00    +0.176 C 
ATOM     19  S   LIG    1       26.844 -32.919   5.371  0.00  0.00    +0.049 S 
ATOM     20  N   LIG    1       26.455 -32.013   6.710  0.00  0.00    -0.185 NA
BRANCH  18  21
ATOM     21  N   LIG    1       25.459 -32.437   3.096  0.00  0.00    -0.336 NA
ATOM     22  H   LIG    1       24.692 -31.963   2.634  0.00  0.00    +0.144 HD
ATOM     23  H   LIG    1       26.229 -32.685   2.483  0.00  0.00    +0.144 HD
ENDBRANCH  18  21
ENDBRANCH  14  16
BRANCH  15  24
ATOM     24  O   LIG    1       25.124 -28.455   5.759  0.00  0.00    -0.376 OA
BRANCH  24  25
ATOM     25  C   LIG    1       25.830 -27.200   5.707  0.00  0.00    +0.228 C 
ATOM     26  C   LIG    1       27.058 -27.195   4.790  0.00  0.00    +0.070 C 
ATOM     27  C   LIG    1       26.218 -26.843   7.141  0.00  0.00    +0.070 C 
BRANCH  25  28
ATOM     28  C   LIG    1       24.840 -26.150   5.179  0.00  0.00    +0.351 C 
ATOM     29  O   LIG    1       25.096 -25.327   4.311  0.00  0.00    -0.246 OA
BRANCH  28  30
ATOM     30  O   LIG    1       23.603 -26.243   5.731  0.00  0.00    -0.478 OA
ATOM     31  H   LIG    1       23.119 -25.395   5.630  0.00  0.00    +0.295 HD
ENDBRANCH  28  30
ENDBRANCH  25  28
ENDBRANCH  24  25
ENDBRANCH  15  24
ENDBRANCH  12  14
ENDBRANCH   8  10
BRANCH   9  32
ATOM     32  C   LIG    1       22.423 -31.769  13.850  0.00  0.00    +0.352 C 
ATOM     33  O   LIG    1       22.448 -32.442  14.858  0.00  0.00    -0.244 OA
BRANCH  32  34
ATOM     34  OXT LIG    1       21.392 -31.834  13.009  0.00  0.00    -0.476 OA
ATOM     35  HXT LIG    1       20.574 -32.014  13.514  0.00  0.00    +0.295 HD
ENDBRANCH  32  34
ENDBRANCH   9  32
BRANCH   1  36
ATOM     36  C   LIG    1       23.097 -29.179  15.320  0.00  0.00    +0.420 C 
BRANCH  36  39
ATOM     37  C   LIG    1       22.183 -26.348  14.437  0.00  0.00    +0.223 C 
ATOM     38  N   LIG    1       21.360 -27.556  14.470  0.00  0.00    -0.138 NA
ATOM     39  N   LIG    1       21.708 -28.754  15.020  0.00  0.00    -0.106 NA
ATOM     40  C   LIG    1       20.525 -29.531  15.165  0.00  0.00    +0.363 C 
ATOM     41  C   LIG    1       19.410 -28.846  14.567  0.00  0.00    +0.144 C 
ATOM     42  C   LIG    1       19.997 -27.607  14.090  0.00  0.00    +0.179 C 
BRANCH  41  43
ATOM     43  N   LIG    1       18.112 -29.347  14.493  0.00  0.00    -0.262 N 
ATOM     44  H   LIG    1       17.424 -28.991  15.143  0.00  0.00    +0.157 HD
ATOM     45  C   LIG    1       17.694 -30.334  13.631  0.00  0.00    +0.304 C 
ATOM     46  N   LIG    1       16.369 -30.655  13.785  0.00  0.00    -0.298 N 
ATOM     47  H   LIG    1       15.732 -30.010  14.228  0.00  0.00    +0.150 HD
ATOM     48  O   LIG    1       18.410 -30.925  12.826  0.00  0.00    -0.253 OA
BRANCH  46  49
ATOM     49  C   LIG    1       15.775 -31.718  12.980  0.00  0.00    +0.120 C 
BRANCH  49  50
ATOM     50  C   LIG    1       16.314 -33.111  13.343  0.00  0.00    +0.096 C 
BRANCH  50  51
ATOM     51  N   LIG    1       17.031 -33.722  12.227  0.00  0.00    -0.329 NA
ATOM     52  H   LIG    1       17.695 -33.051  11.839  0.00  0.00    +0.118 HD
ATOM     53  H   LIG    1       17.597 -34.502  12.562  0.00  0.00    +0.118 HD
ENDBRANCH  50  51
ENDBRANCH  49  50
ENDBRANCH  46  49
ENDBRANCH  41  43
BRANCH  42  54
ATOM     54  N   LIG    1       19.407 -26.632  13.352  0.00  0.00    -0.339 NA
ATOM     55  H   LIG    1       19.094 -25.762  13.810  0.00  0.00    +0.144 HD
ATOM     56  H   LIG    1       19.000 -26.717  12.430  0.00  0.00    +0.144 HD
ENDBRANCH  42  54
ENDBRANCH  36  39
ENDBRANCH   1  36
TORSDOF 17
ENDMDL
MODEL 8
REMARK VINA RESULT:      -4.8      4.101     10.917
REMARK  Name = *****
REMARK                            x       y       z     vdW  Elec       q    Type
REMARK                         _______ _______ _______ _____ _____    ______ ____
ROOT
ATOM      1  C   LIG    1       26.374 -20.844   7.022  0.00  0.00    +0.035 C 
ATOM      2  C   LIG    1       26.657 -21.572   8.337  0.00  0.00    +0.110 C 
ATOM      3  S   LIG    1       26.407 -23.360   8.338  0.00  0.00    -0.131 S 
ATOM      4  C   LIG    1       24.882 -23.244   7.384  0.00  0.00    +0.169 C 
ATOM      5  N   LIG    1       25.246 -22.699   6.092  0.00  0.00    -0.249 N 
ATOM      6  C   LIG    1       24.726 -23.708   5.349  0.00  0.00    +0.244 C 
ATOM      7  O   LIG    1       24.567 -23.901   4.167  0.00  0.00    -0.273 OA
ATOM      8  CA  LIG    1       24.363 -24.501   6.645  0.00  0.00    +0.191 C 
ATOM      9  CA  LIG    1       25.791 -21.449   5.947  0.00  0.00    +0.128 C 
ENDROOT
BRANCH   8  10
ATOM     10  N   LIG    1       25.008 -25.804   6.941  0.00  0.00    -0.296 N 
ATOM     11  H   LIG    1       25.662 -25.904   7.712  0.00  0.00    +0.150 HD
ATOM     12  C   LIG    1       24.595 -26.992   6.359  0.00  0.00    +0.270 C 
ATOM     13  O   LIG    1       23.739 -27.067   5.498  0.00  0.00    -0.268 OA
BRANCH  12  14
ATOM     14  C   LIG    1       25.251 -28.241   6.931  0.00  0.00    +0.208 C 
ATOM     15  N   LIG    1       26.064 -28.019   7.938  0.00  0.00    -0.075 NA
BRANCH  14  16
ATOM     16  C   LIG    1       24.904 -29.560   6.376  0.00  0.00    +0.197 C 
ATOM     17  N   LIG    1       25.641 -30.133   5.329  0.00  0.00    -0.202 NA
ATOM     18  C   LIG    1       25.112 -31.283   4.997  0.00  0.00    +0.176 C 
ATOM     19  S   LIG    1       23.811 -31.704   6.033  0.00  0.00    +0.049 S 
ATOM     20  N   LIG    1       23.880 -30.267   6.866  0.00  0.00    -0.185 NA
BRANCH  18  21
ATOM     21  N   LIG    1       25.539 -32.036   3.976  0.00  0.00    -0.336 NA
ATOM     22  H   LIG    1       25.547 -33.041   4.108  0.00  0.00    +0.144 HD
ATOM     23  H   LIG    1       25.350 -31.740   3.024  0.00  0.00    +0.144 HD
ENDBRANCH  18  21
ENDBRANCH  14  16
BRANCH  15  24
ATOM     24  O   LIG    1       26.640 -29.177   8.474  0.00  0.00    -0.376 OA
BRANCH  24  25
ATOM     25  C   LIG    1       26.442 -29.297   9.896  0.00  0.00    +0.228 C 
ATOM     26  C   LIG    1       25.066 -29.833  10.308  0.00  0.00    +0.070 C 
ATOM     27  C   LIG    1       26.694 -27.917  10.502  0.00  0.00    +0.070 C 
BRANCH  25  28
ATOM     28  C   LIG    1       27.506 -30.275  10.416  0.00  0.00    +0.351 C 
ATOM     29  O   LIG    1       28.420 -29.973  11.171  0.00  0.00    -0.246 OA
BRANCH  28  30
ATOM     30  O   LIG    1       27.318 -31.554  10.002  0.00  0.00    -0.478 OA
ATOM     31  H   LIG    1       28.067 -32.120  10.288  0.00  0.00    +0.295 HD
ENDBRANCH  28  30
ENDBRANCH  25  28
ENDBRANCH  24  25
ENDBRANCH  15  24
ENDBRANCH  12  14
ENDBRANCH   8  10
BRANCH   9  32
ATOM     32  C   LIG    1       25.757 -20.773   4.599  0.00  0.00    +0.352 C 
ATOM     33  O   LIG    1       24.812 -20.765   3.840  0.00  0.00    -0.244 OA
BRANCH  32  34
ATOM     34  OXT LIG    1       26.908 -20.193   4.264  0.00  0.00    -0.476 OA
ATOM     35  HXT LIG    1       27.404 -20.782   3.661  0.00  0.00    +0.295 HD
ENDBRANCH  32  34
ENDBRANCH   9  32
BRANCH   1  36
ATOM     36  C   LIG    1       26.885 -19.402   7.083  0.00  0.00    +0.420 C 
BRANCH  36  39
ATOM     37  C   LIG    1       29.400 -20.251   5.475  0.00  0.00    +0.223 C 
ATOM     38  N   LIG    1       29.384 -19.633   6.800  0.00  0.00    -0.138 NA
ATOM     39  N   LIG    1       28.283 -19.422   7.578  0.00  0.00    -0.106 NA
ATOM     40  C   LIG    1       28.727 -19.144   8.900  0.00  0.00    +0.363 C 
ATOM     41  C   LIG    1       30.162 -19.052   8.929  0.00  0.00    +0.144 C 
ATOM     42  C   LIG    1       30.541 -19.322   7.554  0.00  0.00    +0.179 C 
BRANCH  41  43
ATOM     43  N   LIG    1       30.920 -18.746  10.057  0.00  0.00    -0.262 N 
ATOM     44  H   LIG    1       31.429 -19.494  10.508  0.00  0.00    +0.157 HD
ATOM     45  C   LIG    1       30.996 -17.505  10.646  0.00  0.00    +0.304 C 
ATOM     46  N   LIG    1       31.796 -17.488  11.760  0.00  0.00    -0.298 N 
ATOM     47  H   LIG    1       32.490 -18.206  11.906  0.00  0.00    +0.150 HD
ATOM     48  O   LIG    1       30.389 -16.504  10.274  0.00  0.00    -0.253 OA
BRANCH  46  49
ATOM     49  C   LIG    1       31.948 -16.259  12.534  0.00  0.00    +0.120 C 
BRANCH  49  50
ATOM     50  C   LIG    1       32.695 -16.478  13.859  0.00  0.00    +0.096 C 
BRANCH  50  51
ATOM     51  N   LIG    1       32.409 -15.420  14.824  0.00  0.00    -0.329 NA
ATOM     52  H   LIG    1       33.081 -14.661  14.708  0.00  0.00    +0.118 HD
ATOM     53  H   LIG    1       31.496 -15.008  14.628  0.00  0.00    +0.118 HD
ENDBRANCH  50  51
ENDBRANCH  49  50
ENDBRANCH  46  49
ENDBRANCH  41  43
BRANCH  42  54
ATOM     54  N   LIG    1       31.779 -19.260   7.000  0.00  0.00    -0.339 NA
ATOM     55  H   LIG    1       32.055 -18.429   6.454  0.00  0.00    +0.144 HD
ATOM     56  H   LIG    1       32.420 -20.025   6.836  0.00  0.00    +0.144 HD
ENDBRANCH  42  54
ENDBRANCH  36  39
ENDBRANCH   1  36
TORSDOF 17
ENDMDL
MODEL 9
REMARK VINA RESULT:      -4.5      3.709     11.070
REMARK  Name = *****
REMARK                            x       y       z     vdW  Elec       q    Type
REMARK                         _______ _______ _______ _____ _____    ______ ____
ROOT
ATOM      1  C   LIG    1       26.256 -21.103   7.064  0.00  0.00    +0.035 C 
ATOM      2  C   LIG    1       26.587 -21.911   8.319  0.00  0.00    +0.110 C 
ATOM      3  S   LIG    1       26.370 -23.701   8.207  0.00  0.00    -0.131 S 
ATOM      4  C   LIG    1       24.818 -23.551   7.301  0.00  0.00    +0.169 C 
ATOM      5  N   LIG    1       25.137 -22.915   6.040  0.00  0.00    -0.249 N 
ATOM      6  C   LIG    1       24.616 -23.882   5.244  0.00  0.00    +0.244 C 
ATOM      7  O   LIG    1       24.430 -23.999   4.057  0.00  0.00    -0.273 OA
ATOM      8  CA  LIG    1       24.303 -24.767   6.493  0.00  0.00    +0.191 C 
ATOM      9  CA  LIG    1       25.656 -21.647   5.966  0.00  0.00    +0.128 C 
ENDROOT
BRANCH   8  10
ATOM     10  N   LIG    1       24.979 -26.074   6.685  0.00  0.00    -0.296 N 
ATOM     11  H   LIG    1       25.674 -26.204   7.414  0.00  0.00    +0.150 HD
ATOM     12  C   LIG    1       24.551 -27.235   6.062  0.00  0.00    +0.270 C 
ATOM     13  O   LIG    1       23.653 -27.278   5.244  0.00  0.00    -0.268 OA
BRANCH  12  14
ATOM     14  C   LIG    1       25.253 -28.503   6.531  0.00  0.00    +0.208 C 
ATOM     15  N   LIG    1       25.544 -29.352   5.571  0.00  0.00    -0.075 NA
BRANCH  14  16
ATOM     16  C   LIG    1       25.589 -28.661   7.955  0.00  0.00    +0.197 C 
ATOM     17  N   LIG    1       24.904 -29.568   8.775  0.00  0.00    -0.202 NA
ATOM     18  C   LIG    1       25.365 -29.492   9.998  0.00  0.00    +0.176 C 
ATOM     19  S   LIG    1       26.697 -28.415  10.105  0.00  0.00    +0.049 S 
ATOM     20  N   LIG    1       26.577 -27.952   8.513  0.00  0.00    -0.185 NA
BRANCH  18  21
ATOM     21  N   LIG    1       24.860 -30.175  11.032  0.00  0.00    -0.336 NA
ATOM     22  H   LIG    1       24.218 -29.687  11.645  0.00  0.00    +0.144 HD
ATOM     23  H   LIG    1       24.671 -31.167  10.930  0.00  0.00    +0.144 HD
ENDBRANCH  18  21
ENDBRANCH  14  16
BRANCH  15  24
ATOM     24  O   LIG    1       26.215 -30.500   6.010  0.00  0.00    -0.376 OA
BRANCH  24  25
ATOM     25  C   LIG    1       25.666 -31.715   5.462  0.00  0.00    +0.228 C 
ATOM     26  C   LIG    1       26.494 -32.974   5.742  0.00  0.00    +0.070 C 
ATOM     27  C   LIG    1       25.499 -31.494   3.959  0.00  0.00    +0.070 C 
BRANCH  25  28
ATOM     28  C   LIG    1       24.281 -31.907   6.098  0.00  0.00    +0.351 C 
ATOM     29  O   LIG    1       24.034 -32.690   7.004  0.00  0.00    -0.246 OA
BRANCH  28  30
ATOM     30  O   LIG    1       23.332 -31.076   5.596  0.00  0.00    -0.478 OA
ATOM     31  H   LIG    1       23.194 -30.312   6.196  0.00  0.00    +0.295 HD
ENDBRANCH  28  30
ENDBRANCH  25  28
ENDBRANCH  24  25
ENDBRANCH  15  24
ENDBRANCH  12  14
ENDBRANCH   8  10
BRANCH   9  32
ATOM     32  C   LIG    1       25.573 -20.883   4.668  0.00  0.00    +0.352 C 
ATOM     33  O   LIG    1       24.587 -20.788   3.969  0.00  0.00    -0.244 OA
BRANCH  32  34
ATOM     34  OXT LIG    1       26.728 -20.330   4.299  0.00  0.00    -0.476 OA
ATOM     35  HXT LIG    1       26.629 -19.358   4.281  0.00  0.00    +0.295 HD
ENDBRANCH  32  34
ENDBRANCH   9  32
BRANCH   1  36
ATOM     36  C   LIG    1       26.742 -19.659   7.208  0.00  0.00    +0.420 C 
BRANCH  36  39
ATOM     37  C   LIG    1       29.181 -20.750   5.631  0.00  0.00    +0.223 C 
ATOM     38  N   LIG    1       29.222 -20.008   6.890  0.00  0.00    -0.138 NA
ATOM     39  N   LIG    1       28.151 -19.684   7.669  0.00  0.00    -0.106 NA
ATOM     40  C   LIG    1       28.639 -19.298   8.949  0.00  0.00    +0.363 C 
ATOM     41  C   LIG    1       30.077 -19.256   8.935  0.00  0.00    +0.144 C 
ATOM     42  C   LIG    1       30.409 -19.670   7.584  0.00  0.00    +0.179 C 
BRANCH  41  43
ATOM     43  N   LIG    1       30.875 -18.873  10.010  0.00  0.00    -0.262 N 
ATOM     44  H   LIG    1       31.451 -19.577  10.453  0.00  0.00    +0.157 HD
ATOM     45  C   LIG    1       30.910 -17.612  10.560  0.00  0.00    +0.304 C 
ATOM     46  N   LIG    1       31.767 -17.515  11.627  0.00  0.00    -0.298 N 
ATOM     47  H   LIG    1       32.508 -18.187  11.753  0.00  0.00    +0.150 HD
ATOM     48  O   LIG    1       30.227 -16.659  10.193  0.00  0.00    -0.253 OA
BRANCH  46  49
ATOM     49  C   LIG    1       31.887 -16.256  12.356  0.00  0.00    +0.120 C 
BRANCH  49  50
ATOM     50  C   LIG    1       32.626 -16.412  13.694  0.00  0.00    +0.096 C 
BRANCH  50  51
ATOM     51  N   LIG    1       32.258 -15.364  14.642  0.00  0.00    -0.329 NA
ATOM     52  H   LIG    1       32.819 -14.529  14.464  0.00  0.00    +0.118 HD
ATOM     53  H   LIG    1       31.290 -15.079  14.488  0.00  0.00    +0.118 HD
ENDBRANCH  50  51
ENDBRANCH  49  50
ENDBRANCH  46  49
ENDBRANCH  41  43
BRANCH  42  54
ATOM     54  N   LIG    1       31.633 -19.707   6.998  0.00  0.00    -0.339 NA
ATOM     55  H   LIG    1       32.444 -19.287   7.478  0.00  0.00    +0.144 HD
ATOM     56  H   LIG    1       31.846 -19.885   6.025  0.00  0.00    +0.144 HD
ENDBRANCH  42  54
ENDBRANCH  36  39
ENDBRANCH   1  36
TORSDOF 17
ENDMDL
