MODEL 1
REMARK VINA RESULT:      14.0      0.000      0.000
REMARK  Name = *****
REMARK                            x       y       z     vdW  Elec       q    Type
REMARK                         _______ _______ _______ _____ _____    ______ ____
ROOT
ATOM      1  C   LIG    1       23.663 -11.596   1.812  0.00  0.00    +0.086 C 
ATOM      2  C   LIG    1       23.831 -12.202   3.169  0.00  0.00    +0.103 C 
ATOM      3  O   LIG    1       24.105 -13.555   3.158  0.00  0.00    -0.464 OA
ATOM      4  C   LIG    1       24.732 -14.089   4.355  0.00  0.00    +0.235 C 
ATOM      5  N   LIG    1       24.066 -13.535   5.527  0.00  0.00    -0.243 N 
ATOM      6  C   LIG    1       23.651 -14.399   6.612  0.00  0.00    +0.208 C 
ATOM      7  C   LIG    1       22.282 -14.924   6.220  0.00  0.00    +0.237 C 
ATOM      8  O   LIG    1       21.304 -14.717   6.944  0.00  0.00    -0.274 OA
ATOM      9  N   LIG    1       22.194 -15.699   5.060  0.00  0.00    -0.273 N 
ATOM     10  C   LIG    1       20.857 -16.173   4.721  0.00  0.00    +0.138 C 
ATOM     11  C   LIG    1       23.327 -16.298   4.423  0.00  0.00    +0.045 A 
ATOM     12  C   LIG    1       23.209 -17.657   4.047  0.00  0.00    +0.025 A 
ATOM     13  C   LIG    1       24.266 -18.368   3.479  0.00  0.00    +0.022 A 
ATOM     14  C   LIG    1       25.468 -17.724   3.263  0.00  0.00    +0.042 A 
ATOM     15 CL   LIG    1       26.784 -18.579   2.561  0.00  0.00    -0.084 Cl
ATOM     16  C   LIG    1       25.608 -16.379   3.600  0.00  0.00    +0.031 A 
ATOM     17  C   LIG    1       23.744 -12.202   5.585  0.00  0.00    +0.246 C 
ATOM     18  O   LIG    1       23.387 -11.611   6.599  0.00  0.00    -0.270 OA
ATOM     19  C   LIG    1       24.554 -15.624   4.186  0.00  0.00    +0.042 A 
ATOM     20  C   LIG    1       23.738 -11.492   4.299  0.00  0.00    +0.108 C 
ENDROOT
BRANCH   4  21
ATOM     21  C   LIG    1       26.238 -13.667   4.400  0.00  0.00    +0.019 A 
ATOM     22  C   LIG    1       27.005 -13.599   3.220  0.00  0.00    +0.009 A 
ATOM     23  C   LIG    1       28.345 -13.200   3.251  0.00  0.00    +0.001 A 
ATOM     24  C   LIG    1       28.943 -12.852   4.459  0.00  0.00    +0.000 A 
ATOM     25  C   LIG    1       28.204 -12.899   5.637  0.00  0.00    +0.001 A 
ATOM     26  C   LIG    1       26.866 -13.298   5.609  0.00  0.00    +0.009 A 
ENDBRANCH   4  21
TORSDOF 1
ENDMDL
MODEL 2
REMARK VINA RESULT:      15.3      4.078      6.916
REMARK  Name = *****
REMARK                            x       y       z     vdW  Elec       q    Type
REMARK                         _______ _______ _______ _____ _____    ______ ____
ROOT
ATOM      1  C   LIG    1       23.871 -21.531   1.824  0.00  0.00    +0.086 C 
ATOM      2  C   LIG    1       24.106 -20.931   3.173  0.00  0.00    +0.103 C 
ATOM      3  O   LIG    1       24.808 -19.742   3.153  0.00  0.00    -0.464 OA
ATOM      4  C   LIG    1       24.660 -18.893   4.322  0.00  0.00    +0.235 C 
ATOM      5  N   LIG    1       24.743 -19.717   5.521  0.00  0.00    -0.243 N 
ATOM      6  C   LIG    1       25.592 -19.322   6.626  0.00  0.00    +0.208 C 
ATOM      7  C   LIG    1       26.973 -19.858   6.295  0.00  0.00    +0.237 C 
ATOM      8  O   LIG    1       27.536 -20.646   7.062  0.00  0.00    -0.274 OA
ATOM      9  N   LIG    1       27.597 -19.375   5.142  0.00  0.00    -0.273 N 
ATOM     10  C   LIG    1       28.917 -19.926   4.864  0.00  0.00    +0.138 C 
ATOM     11  C   LIG    1       27.178 -18.189   4.457  0.00  0.00    +0.045 A 
ATOM     12  C   LIG    1       28.189 -17.269   4.089  0.00  0.00    +0.025 A 
ATOM     13  C   LIG    1       27.899 -16.050   3.476  0.00  0.00    +0.022 A 
ATOM     14  C   LIG    1       26.584 -15.730   3.207  0.00  0.00    +0.042 A 
ATOM     15 CL   LIG    1       26.202 -14.235   2.449  0.00  0.00    -0.084 Cl
ATOM     16  C   LIG    1       25.567 -16.627   3.534  0.00  0.00    +0.031 A 
ATOM     17  C   LIG    1       24.088 -20.922   5.591  0.00  0.00    +0.246 C 
ATOM     18  O   LIG    1       23.923 -21.571   6.618  0.00  0.00    -0.270 OA
ATOM     19  C   LIG    1       25.825 -17.876   4.164  0.00  0.00    +0.042 A 
ATOM     20  C   LIG    1       23.661 -21.489   4.305  0.00  0.00    +0.108 C 
ENDROOT
BRANCH   4  21
ATOM     21  C   LIG    1       23.257 -18.199   4.300  0.00  0.00    +0.019 A 
ATOM     22  C   LIG    1       22.122 -18.878   3.814  0.00  0.00    +0.009 A 
ATOM     23  C   LIG    1       20.863 -18.271   3.813  0.00  0.00    +0.001 A 
ATOM     24  C   LIG    1       20.710 -16.977   4.304  0.00  0.00    +0.000 A 
ATOM     25  C   LIG    1       21.812 -16.289   4.801  0.00  0.00    +0.001 A 
ATOM     26  C   LIG    1       23.072 -16.893   4.802  0.00  0.00    +0.009 A 
ENDBRANCH   4  21
TORSDOF 1
ENDMDL
