MODEL 1
REMARK VINA RESULT:      -7.4      0.000      0.000
REMARK  Name = *****
REMARK                            x       y       z     vdW  Elec       q    Type
REMARK                         _______ _______ _______ _____ _____    ______ ____
ROOT
ATOM      1  C   LIG    1       27.067 -20.414   6.966  0.00  0.00    -0.000 C 
ATOM      2  C   LIG    1       25.873 -20.416   6.345  0.00  0.00    -0.066 C 
ATOM      3  C   LIG    1       24.644 -21.217   6.792  0.00  0.00    +0.021 C 
ATOM      4  C   LIG    1       24.780 -22.228   7.935  0.00  0.00    +0.009 C 
ATOM      5  C   LIG    1       23.681 -23.250   7.673  0.00  0.00    +0.005 C 
ATOM      6  C   LIG    1       23.669 -23.442   6.145  0.00  0.00    +0.002 C 
ATOM      7  C   LIG    1       23.940 -21.987   5.610  0.00  0.00    -0.022 C 
ATOM      8  C   LIG    1       22.560 -21.306   5.362  0.00  0.00    +0.012 C 
ATOM      9  C   LIG    1       24.738 -21.899   4.294  0.00  0.00    +0.008 C 
ATOM     10  C   LIG    1       25.168 -20.478   3.919  0.00  0.00    +0.005 C 
ATOM     11  C   LIG    1       25.544 -19.596   5.108  0.00  0.00    +0.031 C 
ENDROOT
BRANCH   1  19
ATOM     12  C   LIG    1       30.071 -22.059   7.518  0.00  0.00    +0.015 C 
ATOM     13  C   LIG    1       29.982 -20.778   7.921  0.00  0.00    -0.023 C 
ATOM     14  C   LIG    1       30.499 -20.221   9.227  0.00  0.00    +0.147 C 
ATOM     15  C   LIG    1       31.632 -19.227   8.954  0.00  0.00    +0.067 C 
ATOM     16  C   LIG    1       31.245 -18.168   7.912  0.00  0.00    +0.122 C 
ATOM     17  C   LIG    1       30.579 -18.766   6.658  0.00  0.00    +0.067 C 
ATOM     18  C   LIG    1       29.481 -19.754   7.019  0.00  0.00    -0.040 C 
ATOM     19  C   LIG    1       28.216 -19.615   6.587  0.00  0.00    +0.004 C 
BRANCH  14  20
ATOM     20  O   LIG    1       30.981 -21.251  10.084  0.00  0.00    -0.387 OA
ATOM     21  H   LIG    1       31.635 -21.751   9.567  0.00  0.00    +0.210 HD
ENDBRANCH  14  20
BRANCH  16  22
ATOM     22  O   LIG    1       30.389 -17.189   8.510  0.00  0.00    -0.391 OA
ATOM     23  H   LIG    1       29.661 -17.000   7.893  0.00  0.00    +0.210 HD
ENDBRANCH  16  22
ENDBRANCH   1  19
BRANCH   6  24
ATOM     24  C   LIG    1       24.555 -24.661   5.706  0.00  0.00    +0.012 C 
ATOM     25  C   LIG    1       24.909 -24.726   4.213  0.00  0.00    +0.012 C 
BRANCH  24  26
ATOM     26  C   LIG    1       24.066 -25.976   6.293  0.00  0.00    -0.025 C 
ATOM     27  C   LIG    1       24.422 -27.214   5.904  0.00  0.00    +0.000 C 
BRANCH  27  28
ATOM     28  C   LIG    1       23.926 -28.493   6.520  0.00  0.00    +0.140 C 
BRANCH  28  29
ATOM     29  C   LIG    1       25.005 -29.276   7.231  0.00  0.00    +0.022 C 
ATOM     30  C   LIG    1       25.767 -28.723   8.416  0.00  0.00    +0.007 C 
ATOM     31  C   LIG    1       24.777 -29.836   8.619  0.00  0.00    +0.007 C 
ENDBRANCH  28  29
BRANCH  28  32
ATOM     32  O   LIG    1       23.344 -29.281   5.487  0.00  0.00    -0.388 OA
ATOM     33  H   LIG    1       22.592 -28.766   5.153  0.00  0.00    +0.210 HD
ENDBRANCH  28  32
ENDBRANCH  27  28
ENDBRANCH  24  26
ENDBRANCH   6  24
TORSDOF 8
ENDMDL
MODEL 2
REMARK VINA RESULT:      -7.4      5.705      9.320
REMARK  Name = *****
REMARK                            x       y       z     vdW  Elec       q    Type
REMARK                         _______ _______ _______ _____ _____    ______ ____
ROOT
ATOM      1  C   LIG    1       26.755 -29.393   9.829  0.00  0.00    -0.000 C 
ATOM      2  C   LIG    1       25.816 -30.356   9.883  0.00  0.00    -0.066 C 
ATOM      3  C   LIG    1       25.899 -31.716   9.179  0.00  0.00    +0.021 C 
ATOM      4  C   LIG    1       27.046 -31.987   8.200  0.00  0.00    +0.009 C 
ATOM      5  C   LIG    1       26.492 -33.035   7.244  0.00  0.00    +0.005 C 
ATOM      6  C   LIG    1       25.029 -32.622   7.002  0.00  0.00    +0.002 C 
ATOM      7  C   LIG    1       24.575 -32.105   8.418  0.00  0.00    -0.022 C 
ATOM      8  C   LIG    1       23.931 -33.303   9.178  0.00  0.00    +0.012 C 
ATOM      9  C   LIG    1       23.544 -30.959   8.410  0.00  0.00    +0.008 C 
ATOM     10  C   LIG    1       23.291 -30.339   9.787  0.00  0.00    +0.005 C 
ATOM     11  C   LIG    1       24.526 -30.257  10.681  0.00  0.00    +0.031 C 
ENDROOT
BRANCH   1  19
ATOM     12  C   LIG    1       28.674 -29.427  12.719  0.00  0.00    +0.015 C 
ATOM     13  C   LIG    1       27.436 -28.907  12.802  0.00  0.00    -0.023 C 
ATOM     14  C   LIG    1       26.451 -29.138  13.923  0.00  0.00    +0.147 C 
ATOM     15  C   LIG    1       26.194 -27.823  14.668  0.00  0.00    +0.067 C 
ATOM     16  C   LIG    1       25.829 -26.673  13.718  0.00  0.00    +0.122 C 
ATOM     17  C   LIG    1       26.771 -26.568  12.504  0.00  0.00    +0.067 C 
ATOM     18  C   LIG    1       26.985 -27.918  11.836  0.00  0.00    -0.040 C 
ATOM     19  C   LIG    1       26.714 -28.130  10.538  0.00  0.00    +0.004 C 
BRANCH  14  20
ATOM     20  O   LIG    1       26.924 -30.111  14.848  0.00  0.00    -0.387 OA
ATOM     21  H   LIG    1       27.619 -30.610  14.385  0.00  0.00    +0.210 HD
ENDBRANCH  14  20
BRANCH  16  22
ATOM     22  O   LIG    1       24.473 -26.813  13.285  0.00  0.00    -0.391 OA
ATOM     23  H   LIG    1       24.165 -25.951  12.958  0.00  0.00    +0.210 HD
ENDBRANCH  16  22
ENDBRANCH   1  19
BRANCH   6  24
ATOM     24  C   LIG    1       24.879 -31.737   5.714  0.00  0.00    +0.012 C 
ATOM     25  C   LIG    1       25.292 -32.404   4.394  0.00  0.00    +0.012 C 
BRANCH  24  26
ATOM     26  C   LIG    1       25.429 -30.332   5.908  0.00  0.00    -0.025 C 
ATOM     27  C   LIG    1       24.760 -29.176   5.749  0.00  0.00    +0.000 C 
BRANCH  27  28
ATOM     28  C   LIG    1       25.336 -27.803   5.963  0.00  0.00    +0.140 C 
BRANCH  28  29
ATOM     29  C   LIG    1       24.462 -26.694   5.426  0.00  0.00    +0.022 C 
ATOM     30  C   LIG    1       24.097 -25.474   6.243  0.00  0.00    +0.007 C 
ATOM     31  C   LIG    1       25.043 -25.339   5.082  0.00  0.00    +0.007 C 
ENDBRANCH  28  29
BRANCH  28  32
ATOM     32  O   LIG    1       26.618 -27.764   5.347  0.00  0.00    -0.388 OA
ATOM     33  H   LIG    1       26.483 -28.067   4.435  0.00  0.00    +0.210 HD
ENDBRANCH  28  32
ENDBRANCH  27  28
ENDBRANCH  24  26
ENDBRANCH   6  24
TORSDOF 8
ENDMDL
MODEL 3
REMARK VINA RESULT:      -7.0      3.327      8.855
REMARK  Name = *****
REMARK                            x       y       z     vdW  Elec       q    Type
REMARK                         _______ _______ _______ _____ _____    ______ ____
ROOT
ATOM      1  C   LIG    1       24.632 -24.437   6.648  0.00  0.00    -0.000 C 
ATOM      2  C   LIG    1       24.478 -23.205   7.168  0.00  0.00    -0.066 C 
ATOM      3  C   LIG    1       23.358 -22.222   6.803  0.00  0.00    +0.021 C 
ATOM      4  C   LIG    1       22.409 -22.559   5.650  0.00  0.00    +0.009 C 
ATOM      5  C   LIG    1       21.930 -21.205   5.142  0.00  0.00    +0.005 C 
ATOM      6  C   LIG    1       23.169 -20.294   5.202  0.00  0.00    +0.002 C 
ATOM      7  C   LIG    1       23.880 -20.761   6.527  0.00  0.00    -0.022 C 
ATOM      8  C   LIG    1       23.369 -19.853   7.686  0.00  0.00    +0.012 C 
ATOM      9  C   LIG    1       25.419 -20.676   6.522  0.00  0.00    +0.008 C 
ATOM     10  C   LIG    1       26.083 -21.337   7.734  0.00  0.00    +0.005 C 
ATOM     11  C   LIG    1       25.382 -22.600   8.230  0.00  0.00    +0.031 C 
ENDROOT
BRANCH   1  19
ATOM     12  C   LIG    1       24.884 -27.072   4.404  0.00  0.00    +0.015 C 
ATOM     13  C   LIG    1       24.864 -27.373   5.716  0.00  0.00    -0.023 C 
ATOM     14  C   LIG    1       24.094 -28.505   6.354  0.00  0.00    +0.147 C 
ATOM     15  C   LIG    1       25.069 -29.528   6.945  0.00  0.00    +0.067 C 
ATOM     16  C   LIG    1       26.124 -28.877   7.851  0.00  0.00    +0.122 C 
ATOM     17  C   LIG    1       26.778 -27.631   7.223  0.00  0.00    +0.067 C 
ATOM     18  C   LIG    1       25.741 -26.680   6.646  0.00  0.00    -0.040 C 
ATOM     19  C   LIG    1       25.650 -25.395   7.029  0.00  0.00    +0.004 C 
BRANCH  14  20
ATOM     20  O   LIG    1       23.246 -29.159   5.416  0.00  0.00    -0.387 OA
ATOM     21  H   LIG    1       23.787 -29.313   4.622  0.00  0.00    +0.210 HD
ENDBRANCH  14  20
BRANCH  16  22
ATOM     22  O   LIG    1       25.540 -28.547   9.115  0.00  0.00    -0.391 OA
ATOM     23  H   LIG    1       25.218 -29.367   9.528  0.00  0.00    +0.210 HD
ENDBRANCH  16  22
ENDBRANCH   1  19
BRANCH   6  24
ATOM     24  C   LIG    1       23.928 -20.253   3.829  0.00  0.00    +0.012 C 
ATOM     25  C   LIG    1       24.341 -21.616   3.253  0.00  0.00    +0.012 C 
BRANCH  24  26
ATOM     26  C   LIG    1       25.027 -19.202   3.804  0.00  0.00    -0.025 C 
ATOM     27  C   LIG    1       24.866 -17.871   3.689  0.00  0.00    +0.000 C 
BRANCH  27  28
ATOM     28  C   LIG    1       25.980 -16.860   3.682  0.00  0.00    +0.140 C 
BRANCH  28  29
ATOM     29  C   LIG    1       25.559 -15.507   3.157  0.00  0.00    +0.022 C 
ATOM     30  C   LIG    1       24.767 -14.520   3.986  0.00  0.00    +0.007 C 
ATOM     31  C   LIG    1       26.207 -14.236   3.664  0.00  0.00    +0.007 C 
ENDBRANCH  28  29
BRANCH  28  32
ATOM     32  O   LIG    1       27.045 -17.385   2.897  0.00  0.00    -0.388 OA
ATOM     33  H   LIG    1       26.961 -16.967   2.024  0.00  0.00    +0.210 HD
ENDBRANCH  28  32
ENDBRANCH  27  28
ENDBRANCH  24  26
ENDBRANCH   6  24
TORSDOF 8
ENDMDL
MODEL 4
REMARK VINA RESULT:      -6.9      1.732      8.022
REMARK  Name = *****
REMARK                            x       y       z     vdW  Elec       q    Type
REMARK                         _______ _______ _______ _____ _____    ______ ____
ROOT
ATOM      1  C   LIG    1       24.993 -24.435   6.580  0.00  0.00    -0.000 C 
ATOM      2  C   LIG    1       24.662 -23.301   7.226  0.00  0.00    -0.066 C 
ATOM      3  C   LIG    1       23.674 -22.246   6.712  0.00  0.00    +0.021 C 
ATOM      4  C   LIG    1       23.114 -22.368   5.291  0.00  0.00    +0.009 C 
ATOM      5  C   LIG    1       22.770 -20.939   4.892  0.00  0.00    +0.005 C 
ATOM      6  C   LIG    1       23.913 -20.079   5.461  0.00  0.00    +0.002 C 
ATOM      7  C   LIG    1       24.215 -20.772   6.842  0.00  0.00    -0.022 C 
ATOM      8  C   LIG    1       23.364 -20.052   7.931  0.00  0.00    +0.012 C 
ATOM      9  C   LIG    1       25.685 -20.723   7.304  0.00  0.00    +0.008 C 
ATOM     10  C   LIG    1       25.980 -21.587   8.534  0.00  0.00    +0.005 C 
ATOM     11  C   LIG    1       25.198 -22.897   8.589  0.00  0.00    +0.031 C 
ENDROOT
BRANCH   1  19
ATOM     12  C   LIG    1       25.227 -27.150   4.433  0.00  0.00    +0.015 C 
ATOM     13  C   LIG    1       25.051 -27.407   5.742  0.00  0.00    -0.023 C 
ATOM     14  C   LIG    1       24.123 -28.447   6.325  0.00  0.00    +0.147 C 
ATOM     15  C   LIG    1       24.940 -29.533   7.034  0.00  0.00    +0.067 C 
ATOM     16  C   LIG    1       25.955 -28.948   8.027  0.00  0.00    +0.122 C 
ATOM     17  C   LIG    1       26.776 -27.784   7.440  0.00  0.00    +0.067 C 
ATOM     18  C   LIG    1       25.891 -26.765   6.740  0.00  0.00    -0.040 C 
ATOM     19  C   LIG    1       25.878 -25.466   7.083  0.00  0.00    +0.004 C 
BRANCH  14  20
ATOM     20  O   LIG    1       23.317 -29.054   5.321  0.00  0.00    -0.387 OA
ATOM     21  H   LIG    1       23.930 -29.492   4.706  0.00  0.00    +0.210 HD
ENDBRANCH  14  20
BRANCH  16  22
ATOM     22  O   LIG    1       25.282 -28.530   9.218  0.00  0.00    -0.391 OA
ATOM     23  H   LIG    1       24.419 -28.157   8.969  0.00  0.00    +0.210 HD
ENDBRANCH  16  22
ENDBRANCH   1  19
BRANCH   6  24
ATOM     24  C   LIG    1       25.041 -19.833   4.397  0.00  0.00    +0.012 C 
ATOM     25  C   LIG    1       24.838 -20.518   3.038  0.00  0.00    +0.012 C 
BRANCH  24  26
ATOM     26  C   LIG    1       26.436 -19.998   4.981  0.00  0.00    -0.025 C 
ATOM     27  C   LIG    1       27.452 -19.120   4.901  0.00  0.00    +0.000 C 
BRANCH  27  28
ATOM     28  C   LIG    1       28.816 -19.313   5.504  0.00  0.00    +0.140 C 
BRANCH  28  29
ATOM     29  C   LIG    1       28.779 -19.649   6.977  0.00  0.00    +0.022 C 
ATOM     30  C   LIG    1       29.335 -20.941   7.533  0.00  0.00    +0.007 C 
ATOM     31  C   LIG    1       30.042 -19.645   7.811  0.00  0.00    +0.007 C 
ENDBRANCH  28  29
BRANCH  28  32
ATOM     32  O   LIG    1       29.565 -18.122   5.288  0.00  0.00    -0.388 OA
ATOM     33  H   LIG    1       29.420 -17.572   6.075  0.00  0.00    +0.210 HD
ENDBRANCH  28  32
ENDBRANCH  27  28
ENDBRANCH  24  26
ENDBRANCH   6  24
TORSDOF 8
ENDMDL
MODEL 5
REMARK VINA RESULT:      -6.9      7.457     11.240
REMARK  Name = *****
REMARK                            x       y       z     vdW  Elec       q    Type
REMARK                         _______ _______ _______ _____ _____    ______ ____
ROOT
ATOM      1  C   LIG    1       23.909 -31.005  10.253  0.00  0.00    -0.000 C 
ATOM      2  C   LIG    1       23.645 -31.316  11.536  0.00  0.00    -0.066 C 
ATOM      3  C   LIG    1       22.457 -30.786  12.349  0.00  0.00    +0.021 C 
ATOM      4  C   LIG    1       21.563 -29.695  11.750  0.00  0.00    +0.009 C 
ATOM      5  C   LIG    1       20.986 -28.969  12.959  0.00  0.00    +0.005 C 
ATOM      6  C   LIG    1       22.146 -28.889  13.968  0.00  0.00    +0.002 C 
ATOM      7  C   LIG    1       22.864 -30.278  13.784  0.00  0.00    -0.022 C 
ATOM      8  C   LIG    1       22.256 -31.268  14.823  0.00  0.00    +0.012 C 
ATOM      9  C   LIG    1       24.390 -30.271  13.995  0.00  0.00    +0.008 C 
ATOM     10  C   LIG    1       25.080 -31.580  13.599  0.00  0.00    +0.005 C 
ATOM     11  C   LIG    1       24.474 -32.271  12.379  0.00  0.00    +0.031 C 
ENDROOT
BRANCH   1  19
ATOM     12  C   LIG    1       24.863 -28.880   7.682  0.00  0.00    +0.015 C 
ATOM     13  C   LIG    1       24.702 -30.182   7.383  0.00  0.00    -0.023 C 
ATOM     14  C   LIG    1       24.025 -30.732   6.150  0.00  0.00    +0.147 C 
ATOM     15  C   LIG    1       25.048 -31.477   5.285  0.00  0.00    +0.067 C 
ATOM     16  C   LIG    1       25.855 -32.506   6.088  0.00  0.00    +0.122 C 
ATOM     17  C   LIG    1       26.400 -31.947   7.416  0.00  0.00    +0.067 C 
ATOM     18  C   LIG    1       25.327 -31.210   8.201  0.00  0.00    -0.040 C 
ATOM     19  C   LIG    1       24.994 -31.547   9.458  0.00  0.00    +0.004 C 
BRANCH  14  20
ATOM     20  O   LIG    1       23.425 -29.700   5.375  0.00  0.00    -0.387 OA
ATOM     21  H   LIG    1       23.453 -28.897   5.923  0.00  0.00    +0.210 HD
ENDBRANCH  14  20
BRANCH  16  22
ATOM     22  O   LIG    1       25.057 -33.669   6.328  0.00  0.00    -0.391 OA
ATOM     23  H   LIG    1       24.977 -33.793   7.290  0.00  0.00    +0.210 HD
ENDBRANCH  16  22
ENDBRANCH   1  19
BRANCH   6  24
ATOM     24  C   LIG    1       22.928 -27.534  13.848  0.00  0.00    +0.012 C 
ATOM     25  C   LIG    1       22.105 -26.325  13.380  0.00  0.00    +0.012 C 
BRANCH  24  26
ATOM     26  C   LIG    1       24.264 -27.695  13.139  0.00  0.00    -0.025 C 
ATOM     27  C   LIG    1       25.338 -26.892  13.250  0.00  0.00    +0.000 C 
BRANCH  27  28
ATOM     28  C   LIG    1       26.649 -27.093  12.541  0.00  0.00    +0.140 C 
BRANCH  28  29
ATOM     29  C   LIG    1       26.771 -28.443  11.875  0.00  0.00    +0.022 C 
ATOM     30  C   LIG    1       27.025 -28.602  10.392  0.00  0.00    +0.007 C 
ATOM     31  C   LIG    1       28.107 -28.950  11.375  0.00  0.00    +0.007 C 
ENDBRANCH  28  29
BRANCH  28  32
ATOM     32  O   LIG    1       27.694 -26.915  13.491  0.00  0.00    -0.388 OA
ATOM     33  H   LIG    1       27.285 -27.045  14.362  0.00  0.00    +0.210 HD
ENDBRANCH  28  32
ENDBRANCH  27  28
ENDBRANCH  24  26
ENDBRANCH   6  24
TORSDOF 8
ENDMDL
MODEL 6
REMARK VINA RESULT:      -6.8      6.761     10.761
REMARK  Name = *****
REMARK                            x       y       z     vdW  Elec       q    Type
REMARK                         _______ _______ _______ _____ _____    ______ ____
ROOT
ATOM      1  C   LIG    1       24.155 -27.174  13.269  0.00  0.00    -0.000 C 
ATOM      2  C   LIG    1       25.271 -27.913  13.419  0.00  0.00    -0.066 C 
ATOM      3  C   LIG    1       26.372 -28.078  12.365  0.00  0.00    +0.021 C 
ATOM      4  C   LIG    1       26.160 -27.505  10.959  0.00  0.00    +0.009 C 
ATOM      5  C   LIG    1       27.032 -28.371  10.059  0.00  0.00    +0.005 C 
ATOM      6  C   LIG    1       26.875 -29.801  10.606  0.00  0.00    +0.002 C 
ATOM      7  C   LIG    1       26.821 -29.575  12.162  0.00  0.00    -0.022 C 
ATOM      8  C   LIG    1       28.273 -29.709  12.713  0.00  0.00    +0.012 C 
ATOM      9  C   LIG    1       25.939 -30.564  12.949  0.00  0.00    +0.008 C 
ATOM     10  C   LIG    1       25.738 -30.186  14.420  0.00  0.00    +0.005 C 
ATOM     11  C   LIG    1       25.630 -28.685  14.678  0.00  0.00    +0.031 C 
ENDROOT
BRANCH   1  19
ATOM     12  C   LIG    1       22.333 -30.050  13.940  0.00  0.00    +0.015 C 
ATOM     13  C   LIG    1       21.646 -28.905  13.770  0.00  0.00    -0.023 C 
ATOM     14  C   LIG    1       20.365 -28.747  12.986  0.00  0.00    +0.147 C 
ATOM     15  C   LIG    1       19.222 -28.364  13.932  0.00  0.00    +0.067 C 
ATOM     16  C   LIG    1       19.578 -27.170  14.828  0.00  0.00    +0.122 C 
ATOM     17  C   LIG    1       20.963 -27.300  15.490  0.00  0.00    +0.067 C 
ATOM     18  C   LIG    1       22.033 -27.699  14.486  0.00  0.00    -0.040 C 
ATOM     19  C   LIG    1       23.138 -26.964  14.280  0.00  0.00    +0.004 C 
BRANCH  14  20
ATOM     20  O   LIG    1       20.018 -29.945  12.299  0.00  0.00    -0.387 OA
ATOM     21  H   LIG    1       19.942 -30.636  12.979  0.00  0.00    +0.210 HD
ENDBRANCH  14  20
BRANCH  16  22
ATOM     22  O   LIG    1       19.499 -25.957  14.074  0.00  0.00    -0.391 OA
ATOM     23  H   LIG    1       18.798 -25.402  14.457  0.00  0.00    +0.210 HD
ENDBRANCH  16  22
ENDBRANCH   1  19
BRANCH   6  24
ATOM     24  C   LIG    1       25.751 -30.593   9.848  0.00  0.00    +0.012 C 
ATOM     25  C   LIG    1       25.727 -32.110  10.085  0.00  0.00    +0.012 C 
BRANCH  24  26
ATOM     26  C   LIG    1       25.637 -30.184   8.388  0.00  0.00    -0.025 C 
ATOM     27  C   LIG    1       24.556 -29.660   7.780  0.00  0.00    +0.000 C 
BRANCH  27  28
ATOM     28  C   LIG    1       24.485 -29.255   6.334  0.00  0.00    +0.140 C 
BRANCH  28  29
ATOM     29  C   LIG    1       24.552 -27.760   6.125  0.00  0.00    +0.022 C 
ATOM     30  C   LIG    1       25.632 -26.897   6.741  0.00  0.00    +0.007 C 
ATOM     31  C   LIG    1       25.626 -27.139   5.258  0.00  0.00    +0.007 C 
ENDBRANCH  28  29
BRANCH  28  32
ATOM     32  O   LIG    1       23.277 -29.775   5.790  0.00  0.00    -0.388 OA
ATOM     33  H   LIG    1       23.401 -30.737   5.743  0.00  0.00    +0.210 HD
ENDBRANCH  28  32
ENDBRANCH  27  28
ENDBRANCH  24  26
ENDBRANCH   6  24
TORSDOF 8
ENDMDL
MODEL 7
REMARK VINA RESULT:      -6.8      4.492     11.850
REMARK  Name = *****
REMARK                            x       y       z     vdW  Elec       q    Type
REMARK                         _______ _______ _______ _____ _____    ______ ____
ROOT
ATOM      1  C   LIG    1       23.624 -31.052  11.931  0.00  0.00    -0.000 C 
ATOM      2  C   LIG    1       24.563 -31.565  11.114  0.00  0.00    -0.066 C 
ATOM      3  C   LIG    1       25.655 -30.757  10.403  0.00  0.00    +0.021 C 
ATOM      4  C   LIG    1       25.622 -29.227  10.468  0.00  0.00    +0.009 C 
ATOM      5  C   LIG    1       26.344 -28.775   9.205  0.00  0.00    +0.005 C 
ATOM      6  C   LIG    1       25.882 -29.753   8.109  0.00  0.00    +0.002 C 
ATOM      7  C   LIG    1       25.807 -31.125   8.878  0.00  0.00    -0.022 C 
ATOM      8  C   LIG    1       27.178 -31.845   8.701  0.00  0.00    +0.012 C 
ATOM      9  C   LIG    1       24.713 -32.098   8.396  0.00  0.00    +0.008 C 
ATOM     10  C   LIG    1       24.526 -33.322   9.298  0.00  0.00    +0.005 C 
ATOM     11  C   LIG    1       24.707 -33.042  10.789  0.00  0.00    +0.031 C 
ENDROOT
BRANCH   1  19
ATOM     12  C   LIG    1       21.173 -32.351   9.848  0.00  0.00    +0.015 C 
ATOM     13  C   LIG    1       20.769 -31.750  10.982  0.00  0.00    -0.023 C 
ATOM     14  C   LIG    1       19.600 -30.803  11.116  0.00  0.00    +0.147 C 
ATOM     15  C   LIG    1       18.521 -31.434  12.003  0.00  0.00    +0.067 C 
ATOM     16  C   LIG    1       19.085 -31.952  13.334  0.00  0.00    +0.122 C 
ATOM     17  C   LIG    1       20.368 -32.787  13.165  0.00  0.00    +0.067 C 
ATOM     18  C   LIG    1       21.375 -32.098  12.257  0.00  0.00    -0.040 C 
ATOM     19  C   LIG    1       22.626 -31.813  12.655  0.00  0.00    +0.004 C 
BRANCH  14  20
ATOM     20  O   LIG    1       19.033 -30.485   9.850  0.00  0.00    -0.387 OA
ATOM     21  H   LIG    1       18.068 -30.498   9.973  0.00  0.00    +0.210 HD
ENDBRANCH  14  20
BRANCH  16  22
ATOM     22  O   LIG    1       19.320 -30.854  14.221  0.00  0.00    -0.391 OA
ATOM     23  H   LIG    1       19.863 -31.170  14.963  0.00  0.00    +0.210 HD
ENDBRANCH  16  22
ENDBRANCH   1  19
BRANCH   6  24
ATOM     24  C   LIG    1       24.658 -29.189   7.305  0.00  0.00    +0.012 C 
ATOM     25  C   LIG    1       24.159 -30.066   6.146  0.00  0.00    +0.012 C 
BRANCH  24  26
ATOM     26  C   LIG    1       24.821 -27.718   6.954  0.00  0.00    -0.025 C 
ATOM     27  C   LIG    1       25.594 -27.204   5.980  0.00  0.00    +0.000 C 
BRANCH  27  28
ATOM     28  C   LIG    1       25.719 -25.740   5.654  0.00  0.00    +0.140 C 
BRANCH  28  29
ATOM     29  C   LIG    1       25.511 -24.839   6.849  0.00  0.00    +0.022 C 
ATOM     30  C   LIG    1       25.929 -23.385   6.856  0.00  0.00    +0.007 C 
ATOM     31  C   LIG    1       24.469 -23.740   6.827  0.00  0.00    +0.007 C 
ENDBRANCH  28  29
BRANCH  28  32
ATOM     32  O   LIG    1       24.774 -25.435   4.635  0.00  0.00    -0.388 OA
ATOM     33  H   LIG    1       23.905 -25.666   5.002  0.00  0.00    +0.210 HD
ENDBRANCH  28  32
ENDBRANCH  27  28
ENDBRANCH  24  26
ENDBRANCH   6  24
TORSDOF 8
ENDMDL
MODEL 8
REMARK VINA RESULT:      -6.4      5.555     11.715
REMARK  Name = *****
REMARK                            x       y       z     vdW  Elec       q    Type
REMARK                         _______ _______ _______ _____ _____    ______ ____
ROOT
ATOM      1  C   LIG    1       23.260 -28.870  13.824  0.00  0.00    -0.000 C 
ATOM      2  C   LIG    1       24.520 -29.328  13.939  0.00  0.00    -0.066 C 
ATOM      3  C   LIG    1       25.771 -28.620  13.404  0.00  0.00    +0.021 C 
ATOM      4  C   LIG    1       25.614 -27.373  12.528  0.00  0.00    +0.009 C 
ATOM      5  C   LIG    1       26.873 -27.347  11.671  0.00  0.00    +0.005 C 
ATOM      6  C   LIG    1       27.136 -28.818  11.303  0.00  0.00    +0.002 C 
ATOM      7  C   LIG    1       26.743 -29.583  12.621  0.00  0.00    -0.022 C 
ATOM      8  C   LIG    1       28.034 -29.746  13.479  0.00  0.00    +0.012 C 
ATOM      9  C   LIG    1       26.145 -30.989  12.422  0.00  0.00    +0.008 C 
ATOM     10  C   LIG    1       25.577 -31.611  13.701  0.00  0.00    +0.005 C 
ATOM     11  C   LIG    1       24.908 -30.616  14.647  0.00  0.00    +0.031 C 
ENDROOT
BRANCH   1  19
ATOM     12  C   LIG    1       22.413 -31.797  12.165  0.00  0.00    +0.015 C 
ATOM     13  C   LIG    1       21.422 -30.925  12.430  0.00  0.00    -0.023 C 
ATOM     14  C   LIG    1       20.310 -30.531  11.486  0.00  0.00    +0.147 C 
ATOM     15  C   LIG    1       18.965 -31.009  12.042  0.00  0.00    +0.067 C 
ATOM     16  C   LIG    1       18.749 -30.585  13.502  0.00  0.00    +0.122 C 
ATOM     17  C   LIG    1       19.969 -30.865  14.401  0.00  0.00    +0.067 C 
ATOM     18  C   LIG    1       21.262 -30.376  13.767  0.00  0.00    -0.040 C 
ATOM     19  C   LIG    1       22.078 -29.501  14.378  0.00  0.00    +0.004 C 
BRANCH  14  20
ATOM     20  O   LIG    1       20.501 -31.086  10.189  0.00  0.00    -0.387 OA
ATOM     21  H   LIG    1       21.220 -30.577   9.779  0.00  0.00    +0.210 HD
ENDBRANCH  14  20
BRANCH  16  22
ATOM     22  O   LIG    1       18.398 -29.200  13.557  0.00  0.00    -0.391 OA
ATOM     23  H   LIG    1       17.904 -28.975  12.750  0.00  0.00    +0.210 HD
ENDBRANCH  16  22
ENDBRANCH   1  19
BRANCH   6  24
ATOM     24  C   LIG    1       26.507 -29.191   9.914  0.00  0.00    +0.012 C 
ATOM     25  C   LIG    1       26.811 -30.607   9.401  0.00  0.00    +0.012 C 
BRANCH  24  26
ATOM     26  C   LIG    1       26.696 -28.094   8.877  0.00  0.00    -0.025 C 
ATOM     27  C   LIG    1       25.846 -27.768   7.886  0.00  0.00    +0.000 C 
BRANCH  27  28
ATOM     28  C   LIG    1       26.061 -26.665   6.887  0.00  0.00    +0.140 C 
BRANCH  28  29
ATOM     29  C   LIG    1       24.836 -26.358   6.057  0.00  0.00    +0.022 C 
ATOM     30  C   LIG    1       23.930 -25.181   6.344  0.00  0.00    +0.007 C 
ATOM     31  C   LIG    1       24.804 -25.168   5.121  0.00  0.00    +0.007 C 
ENDBRANCH  28  29
BRANCH  28  32
ATOM     32  O   LIG    1       27.146 -27.040   6.045  0.00  0.00    -0.388 OA
ATOM     33  H   LIG    1       27.350 -27.962   6.271  0.00  0.00    +0.210 HD
ENDBRANCH  28  32
ENDBRANCH  27  28
ENDBRANCH  24  26
ENDBRANCH   6  24
TORSDOF 8
ENDMDL
MODEL 9
REMARK VINA RESULT:      -6.3      1.644      8.632
REMARK  Name = *****
REMARK                            x       y       z     vdW  Elec       q    Type
REMARK                         _______ _______ _______ _____ _____    ______ ____
ROOT
ATOM      1  C   LIG    1       24.284 -24.618   5.844  0.00  0.00    -0.000 C 
ATOM      2  C   LIG    1       23.665 -23.437   6.030  0.00  0.00    -0.066 C 
ATOM      3  C   LIG    1       24.098 -22.103   5.409  0.00  0.00    +0.021 C 
ATOM      4  C   LIG    1       25.419 -22.026   4.638  0.00  0.00    +0.009 C 
ATOM      5  C   LIG    1       25.848 -20.569   4.761  0.00  0.00    +0.005 C 
ATOM      6  C   LIG    1       25.491 -20.168   6.203  0.00  0.00    +0.002 C 
ATOM      7  C   LIG    1       24.128 -20.916   6.446  0.00  0.00    -0.022 C 
ATOM      8  C   LIG    1       22.975 -19.936   6.071  0.00  0.00    +0.012 C 
ATOM      9  C   LIG    1       23.875 -21.390   7.890  0.00  0.00    +0.008 C 
ATOM     10  C   LIG    1       22.651 -22.296   8.044  0.00  0.00    +0.005 C 
ATOM     11  C   LIG    1       22.413 -23.244   6.870  0.00  0.00    +0.031 C 
ENDROOT
BRANCH   1  19
ATOM     12  C   LIG    1       26.941 -26.704   6.636  0.00  0.00    +0.015 C 
ATOM     13  C   LIG    1       25.913 -27.240   5.953  0.00  0.00    -0.023 C 
ATOM     14  C   LIG    1       26.024 -28.192   4.786  0.00  0.00    +0.147 C 
ATOM     15  C   LIG    1       25.446 -29.557   5.172  0.00  0.00    +0.067 C 
ATOM     16  C   LIG    1       24.040 -29.447   5.781  0.00  0.00    +0.122 C 
ATOM     17  C   LIG    1       23.931 -28.357   6.863  0.00  0.00    +0.067 C 
ATOM     18  C   LIG    1       24.545 -27.043   6.404  0.00  0.00    -0.040 C 
ATOM     19  C   LIG    1       23.849 -25.894   6.377  0.00  0.00    +0.004 C 
BRANCH  14  20
ATOM     20  O   LIG    1       27.375 -28.361   4.371  0.00  0.00    -0.387 OA
ATOM     21  H   LIG    1       27.911 -28.361   5.183  0.00  0.00    +0.210 HD
ENDBRANCH  14  20
BRANCH  16  22
ATOM     22  O   LIG    1       23.080 -29.218   4.745  0.00  0.00    -0.391 OA
ATOM     23  H   LIG    1       22.358 -29.862   4.847  0.00  0.00    +0.210 HD
ENDBRANCH  16  22
ENDBRANCH   1  19
BRANCH   6  24
ATOM     24  C   LIG    1       26.712 -20.343   7.174  0.00  0.00    +0.012 C 
ATOM     25  C   LIG    1       26.405 -20.180   8.670  0.00  0.00    +0.012 C 
BRANCH  24  26
ATOM     26  C   LIG    1       27.944 -19.588   6.700  0.00  0.00    -0.025 C 
ATOM     27  C   LIG    1       29.228 -19.906   6.948  0.00  0.00    +0.000 C 
BRANCH  27  28
ATOM     28  C   LIG    1       30.423 -19.140   6.449  0.00  0.00    +0.140 C 
BRANCH  28  29
ATOM     29  C   LIG    1       31.188 -18.438   7.546  0.00  0.00    +0.022 C 
ATOM     30  C   LIG    1       30.525 -17.932   8.809  0.00  0.00    +0.007 C 
ATOM     31  C   LIG    1       31.448 -19.116   8.875  0.00  0.00    +0.007 C 
ENDBRANCH  28  29
BRANCH  28  32
ATOM     32  O   LIG    1       29.970 -18.198   5.483  0.00  0.00    -0.388 OA
ATOM     33  H   LIG    1       29.001 -18.200   5.546  0.00  0.00    +0.210 HD
ENDBRANCH  28  32
ENDBRANCH  27  28
ENDBRANCH  24  26
ENDBRANCH   6  24
TORSDOF 8
ENDMDL
