MODEL 1
REMARK VINA RESULT:      -8.4      0.000      0.000
REMARK  Name = *****
REMARK                            x       y       z     vdW  Elec       q    Type
REMARK                         _______ _______ _______ _____ _____    ______ ____
ROOT
ATOM      1  C   LIG    1       25.512 -22.295   5.937  0.00  0.00    +0.051 C 
ATOM      2  C   LIG    1       25.195 -21.728   7.338  0.00  0.00    +0.068 C 
ATOM      3  C   LIG    1       23.995 -20.857   7.064  0.00  0.00    +0.140 C 
ATOM      4  O   LIG    1       23.224 -20.465   7.936  0.00  0.00    -0.297 OA
ATOM      5  C   LIG    1       23.862 -20.458   5.623  0.00  0.00    +0.106 C 
ATOM      6  C   LIG    1       24.969 -21.245   4.930  0.00  0.00    +0.129 C 
ENDROOT
BRANCH   1   8
ATOM      7  C   LIG    1       25.596 -24.865   5.722  0.00  0.00    -0.000 C 
ATOM      8  C   LIG    1       24.965 -23.681   5.581  0.00  0.00    -0.022 C 
BRANCH   7   9
ATOM      9  C   LIG    1       25.198 -26.197   5.104  0.00  0.00    +0.137 C 
BRANCH   9  10
ATOM     10  O   LIG    1       26.367 -26.881   4.661  0.00  0.00    -0.388 OA
ATOM     11  H   LIG    1       26.825 -26.272   4.057  0.00  0.00    +0.210 HD
ENDBRANCH   9  10
BRANCH   9  12
ATOM     12  C   LIG    1       24.372 -27.201   5.954  0.00  0.00    +0.035 C 
BRANCH  12  13
ATOM     13  C   LIG    1       25.138 -28.172   6.864  0.00  0.00    +0.003 C 
BRANCH  13  14
ATOM     14  C   LIG    1       24.397 -29.433   7.321  0.00  0.00    -0.000 C 
BRANCH  14  16
ATOM     15  C   LIG    1       25.514 -30.769   5.334  0.00  0.00    +0.004 C 
ATOM     16  C   LIG    1       24.380 -30.615   6.338  0.00  0.00    -0.003 C 
ENDBRANCH  14  16
ENDBRANCH  13  14
ENDBRANCH  12  13
ENDBRANCH   9  12
ENDBRANCH   7   9
ENDBRANCH   1   8
BRANCH   6  17
ATOM     17  O   LIG    1       26.026 -20.388   4.503  0.00  0.00    -0.391 OA
ATOM     18  H   LIG    1       26.076 -19.632   5.113  0.00  0.00    +0.210 HD
ENDBRANCH   6  17
BRANCH   2  19
ATOM     19  C   LIG    1       26.328 -20.890   7.993  0.00  0.00    +0.038 C 
BRANCH  19  20
ATOM     20  C   LIG    1       27.726 -21.453   7.935  0.00  0.00    -0.030 C 
ATOM     21  C   LIG    1       28.803 -21.011   7.264  0.00  0.00    -0.031 C 
BRANCH  21  22
ATOM     22  C   LIG    1       28.928 -19.854   6.315  0.00  0.00    +0.027 C 
BRANCH  22  23
ATOM     23  C   LIG    1       30.106 -18.908   6.573  0.00  0.00    +0.015 C 
BRANCH  23  24
ATOM     24  C   LIG    1       30.195 -18.406   8.014  0.00  0.00    +0.121 C 
BRANCH  24  25
ATOM     25  C   LIG    1       31.596 -18.442   8.549  0.00  0.00    +0.305 C 
ATOM     26  O   LIG    1       32.078 -19.425   9.147  0.00  0.00    -0.251 OA
BRANCH  25  27
ATOM     27  O   LIG    1       32.319 -17.338   8.318  0.00  0.00    -0.481 OA
ATOM     28  H   LIG    1       32.095 -16.916   7.462  0.00  0.00    +0.295 HD
ENDBRANCH  25  27
ENDBRANCH  24  25
ENDBRANCH  23  24
ENDBRANCH  22  23
ENDBRANCH  21  22
ENDBRANCH  19  20
ENDBRANCH   2  19
TORSDOF 15
ENDMDL
MODEL 2
REMARK VINA RESULT:      -8.4      2.080      9.322
REMARK  Name = *****
REMARK                            x       y       z     vdW  Elec       q    Type
REMARK                         _______ _______ _______ _____ _____    ______ ____
ROOT
ATOM      1  C   LIG    1       27.230 -21.876   7.848  0.00  0.00    +0.051 C 
ATOM      2  C   LIG    1       26.456 -22.682   6.781  0.00  0.00    +0.068 C 
ATOM      3  C   LIG    1       25.458 -21.669   6.280  0.00  0.00    +0.140 C 
ATOM      4  O   LIG    1       24.855 -21.777   5.216  0.00  0.00    -0.297 OA
ATOM      5  C   LIG    1       25.224 -20.537   7.237  0.00  0.00    +0.106 C 
ATOM      6  C   LIG    1       26.243 -20.785   8.344  0.00  0.00    +0.129 C 
ENDROOT
BRANCH   1   8
ATOM      7  C   LIG    1       28.746 -19.946   7.051  0.00  0.00    -0.000 C 
ATOM      8  C   LIG    1       28.554 -21.225   7.436  0.00  0.00    -0.022 C 
BRANCH   7   9
ATOM      9  C   LIG    1       29.971 -19.369   6.360  0.00  0.00    +0.137 C 
BRANCH   9  10
ATOM     10  O   LIG    1       29.618 -18.153   5.707  0.00  0.00    -0.388 OA
ATOM     11  H   LIG    1       28.706 -17.953   5.979  0.00  0.00    +0.210 HD
ENDBRANCH   9  10
BRANCH   9  12
ATOM     12  C   LIG    1       31.245 -19.086   7.202  0.00  0.00    +0.035 C 
BRANCH  12  13
ATOM     13  C   LIG    1       31.075 -18.890   8.717  0.00  0.00    +0.003 C 
BRANCH  13  14
ATOM     14  C   LIG    1       30.528 -17.540   9.190  0.00  0.00    -0.000 C 
BRANCH  14  16
ATOM     15  C   LIG    1       31.313 -16.521  11.497  0.00  0.00    +0.004 C 
ATOM     16  C   LIG    1       30.330 -17.371  10.705  0.00  0.00    -0.003 C 
ENDBRANCH  14  16
ENDBRANCH  13  14
ENDBRANCH  12  13
ENDBRANCH   9  12
ENDBRANCH   7   9
ENDBRANCH   1   8
BRANCH   6  17
ATOM     17  O   LIG    1       25.609 -21.214   9.547  0.00  0.00    -0.391 OA
ATOM     18  H   LIG    1       24.788 -20.705   9.661  0.00  0.00    +0.210 HD
ENDBRANCH   6  17
BRANCH   2  19
ATOM     19  C   LIG    1       25.720 -23.947   7.303  0.00  0.00    +0.038 C 
BRANCH  19  20
ATOM     20  C   LIG    1       24.543 -24.443   6.499  0.00  0.00    -0.030 C 
ATOM     21  C   LIG    1       24.485 -25.412   5.570  0.00  0.00    -0.031 C 
BRANCH  21  22
ATOM     22  C   LIG    1       25.588 -26.259   5.003  0.00  0.00    +0.027 C 
BRANCH  22  23
ATOM     23  C   LIG    1       25.423 -27.773   5.182  0.00  0.00    +0.015 C 
BRANCH  23  24
ATOM     24  C   LIG    1       24.902 -28.181   6.560  0.00  0.00    +0.121 C 
BRANCH  24  25
ATOM     25  C   LIG    1       23.992 -29.372   6.498  0.00  0.00    +0.305 C 
ATOM     26  O   LIG    1       23.903 -30.218   7.411  0.00  0.00    -0.251 OA
BRANCH  25  27
ATOM     27  O   LIG    1       23.247 -29.459   5.387  0.00  0.00    -0.481 OA
ATOM     28  H   LIG    1       22.356 -29.831   5.562  0.00  0.00    +0.295 HD
ENDBRANCH  25  27
ENDBRANCH  24  25
ENDBRANCH  23  24
ENDBRANCH  22  23
ENDBRANCH  21  22
ENDBRANCH  19  20
ENDBRANCH   2  19
TORSDOF 15
ENDMDL
MODEL 3
REMARK VINA RESULT:      -8.2      1.824      2.281
REMARK  Name = *****
REMARK                            x       y       z     vdW  Elec       q    Type
REMARK                         _______ _______ _______ _____ _____    ______ ____
ROOT
ATOM      1  C   LIG    1       26.431 -22.514   6.757  0.00  0.00    +0.051 C 
ATOM      2  C   LIG    1       27.107 -21.766   7.927  0.00  0.00    +0.068 C 
ATOM      3  C   LIG    1       25.985 -20.902   8.444  0.00  0.00    +0.140 C 
ATOM      4  O   LIG    1       25.982 -20.382   9.557  0.00  0.00    -0.297 OA
ATOM      5  C   LIG    1       24.888 -20.685   7.442  0.00  0.00    +0.106 C 
ATOM      6  C   LIG    1       25.283 -21.584   6.276  0.00  0.00    +0.129 C 
ENDROOT
BRANCH   1   8
ATOM      7  C   LIG    1       25.416 -24.797   6.112  0.00  0.00    -0.000 C 
ATOM      8  C   LIG    1       25.879 -23.918   7.025  0.00  0.00    -0.022 C 
BRANCH   7   9
ATOM      9  C   LIG    1       24.597 -26.051   6.377  0.00  0.00    +0.137 C 
BRANCH   9  10
ATOM     10  O   LIG    1       23.678 -26.251   5.307  0.00  0.00    -0.388 OA
ATOM     11  H   LIG    1       23.794 -27.171   5.017  0.00  0.00    +0.210 HD
ENDBRANCH   9  10
BRANCH   9  12
ATOM     12  C   LIG    1       25.338 -27.396   6.606  0.00  0.00    +0.035 C 
BRANCH  12  13
ATOM     13  C   LIG    1       24.502 -28.685   6.610  0.00  0.00    +0.003 C 
BRANCH  13  14
ATOM     14  C   LIG    1       24.836 -29.731   7.678  0.00  0.00    -0.000 C 
BRANCH  14  16
ATOM     15  C   LIG    1       26.762 -30.124   9.442  0.00  0.00    +0.004 C 
ATOM     16  C   LIG    1       25.651 -29.244   8.887  0.00  0.00    -0.003 C 
ENDBRANCH  14  16
ENDBRANCH  13  14
ENDBRANCH  12  13
ENDBRANCH   9  12
ENDBRANCH   7   9
ENDBRANCH   1   8
BRANCH   6  17
ATOM     17  O   LIG    1       25.717 -20.818   5.154  0.00  0.00    -0.391 OA
ATOM     18  H   LIG    1       26.406 -20.200   5.451  0.00  0.00    +0.210 HD
ENDBRANCH   6  17
BRANCH   2  19
ATOM     19  C   LIG    1       28.327 -20.884   7.541  0.00  0.00    +0.038 C 
BRANCH  19  20
ATOM     20  C   LIG    1       29.665 -21.256   8.133  0.00  0.00    -0.030 C 
ATOM     21  C   LIG    1       30.819 -20.570   8.147  0.00  0.00    -0.031 C 
BRANCH  21  22
ATOM     22  C   LIG    1       31.149 -19.244   7.524  0.00  0.00    +0.027 C 
BRANCH  22  23
ATOM     23  C   LIG    1       31.568 -18.137   8.498  0.00  0.00    +0.015 C 
BRANCH  23  24
ATOM     24  C   LIG    1       30.394 -17.434   9.181  0.00  0.00    +0.121 C 
BRANCH  24  25
ATOM     25  C   LIG    1       30.483 -17.492  10.677  0.00  0.00    +0.305 C 
ATOM     26  O   LIG    1       30.757 -18.530  11.310  0.00  0.00    -0.251 OA
BRANCH  25  27
ATOM     27  O   LIG    1       30.267 -16.326  11.302  0.00  0.00    -0.481 OA
ATOM     28  H   LIG    1       30.062 -16.444  12.254  0.00  0.00    +0.295 HD
ENDBRANCH  25  27
ENDBRANCH  24  25
ENDBRANCH  23  24
ENDBRANCH  22  23
ENDBRANCH  21  22
ENDBRANCH  19  20
ENDBRANCH   2  19
TORSDOF 15
ENDMDL
MODEL 4
REMARK VINA RESULT:      -8.0      2.092      9.022
REMARK  Name = *****
REMARK                            x       y       z     vdW  Elec       q    Type
REMARK                         _______ _______ _______ _____ _____    ______ ____
ROOT
ATOM      1  C   LIG    1       25.786 -21.437   6.698  0.00  0.00    +0.051 C 
ATOM      2  C   LIG    1       25.295 -21.987   5.341  0.00  0.00    +0.068 C 
ATOM      3  C   LIG    1       24.125 -21.086   5.037  0.00  0.00    +0.140 C 
ATOM      4  O   LIG    1       23.636 -20.957   3.918  0.00  0.00    -0.297 OA
ATOM      5  C   LIG    1       23.569 -20.399   6.251  0.00  0.00    +0.106 C 
ATOM      6  C   LIG    1       24.540 -20.787   7.360  0.00  0.00    +0.129 C 
ENDROOT
BRANCH   1   8
ATOM      7  C   LIG    1       27.621 -19.980   5.616  0.00  0.00    -0.000 C 
ATOM      8  C   LIG    1       26.946 -20.437   6.692  0.00  0.00    -0.022 C 
BRANCH   7   9
ATOM      9  C   LIG    1       28.948 -19.237   5.611  0.00  0.00    +0.137 C 
BRANCH   9  10
ATOM     10  O   LIG    1       28.830 -18.063   4.813  0.00  0.00    -0.388 OA
ATOM     11  H   LIG    1       29.027 -18.334   3.900  0.00  0.00    +0.210 HD
ENDBRANCH   9  10
BRANCH   9  12
ATOM     12  C   LIG    1       29.574 -18.812   6.967  0.00  0.00    +0.035 C 
BRANCH  12  13
ATOM     13  C   LIG    1       31.037 -19.194   7.234  0.00  0.00    +0.003 C 
BRANCH  13  14
ATOM     14  C   LIG    1       31.756 -18.459   8.369  0.00  0.00    -0.000 C 
BRANCH  14  16
ATOM     15  C   LIG    1       30.432 -17.045  10.164  0.00  0.00    +0.004 C 
ATOM     16  C   LIG    1       31.015 -18.377   9.713  0.00  0.00    -0.003 C 
ENDBRANCH  14  16
ENDBRANCH  13  14
ENDBRANCH  12  13
ENDBRANCH   9  12
ENDBRANCH   7   9
ENDBRANCH   1   8
BRANCH   6  17
ATOM     17  O   LIG    1       23.943 -21.703   8.276  0.00  0.00    -0.391 OA
ATOM     18  H   LIG    1       24.226 -22.603   8.040  0.00  0.00    +0.210 HD
ENDBRANCH   6  17
BRANCH   2  19
ATOM     19  C   LIG    1       24.839 -23.473   5.346  0.00  0.00    +0.038 C 
BRANCH  19  20
ATOM     20  C   LIG    1       25.434 -24.375   6.399  0.00  0.00    -0.030 C 
ATOM     21  C   LIG    1       25.933 -25.617   6.284  0.00  0.00    -0.031 C 
BRANCH  21  22
ATOM     22  C   LIG    1       25.995 -26.513   5.080  0.00  0.00    +0.027 C 
BRANCH  22  23
ATOM     23  C   LIG    1       25.594 -27.973   5.318  0.00  0.00    +0.015 C 
BRANCH  23  24
ATOM     24  C   LIG    1       24.781 -28.193   6.593  0.00  0.00    +0.121 C 
BRANCH  24  25
ATOM     25  C   LIG    1       23.937 -29.432   6.529  0.00  0.00    +0.305 C 
ATOM     26  O   LIG    1       23.869 -30.267   7.453  0.00  0.00    -0.251 OA
BRANCH  25  27
ATOM     27  O   LIG    1       23.229 -29.576   5.400  0.00  0.00    -0.481 OA
ATOM     28  H   LIG    1       23.800 -29.707   4.614  0.00  0.00    +0.295 HD
ENDBRANCH  25  27
ENDBRANCH  24  25
ENDBRANCH  23  24
ENDBRANCH  22  23
ENDBRANCH  21  22
ENDBRANCH  19  20
ENDBRANCH   2  19
TORSDOF 15
ENDMDL
MODEL 5
REMARK VINA RESULT:      -7.7      2.259      7.982
REMARK  Name = *****
REMARK                            x       y       z     vdW  Elec       q    Type
REMARK                         _______ _______ _______ _____ _____    ______ ____
ROOT
ATOM      1  C   LIG    1       27.280 -20.962   6.102  0.00  0.00    +0.051 C 
ATOM      2  C   LIG    1       26.319 -21.511   7.179  0.00  0.00    +0.068 C 
ATOM      3  C   LIG    1       26.673 -20.671   8.380  0.00  0.00    +0.140 C 
ATOM      4  O   LIG    1       25.948 -20.547   9.363  0.00  0.00    -0.297 OA
ATOM      5  C   LIG    1       28.033 -20.040   8.288  0.00  0.00    +0.106 C 
ATOM      6  C   LIG    1       28.499 -20.396   6.881  0.00  0.00    +0.129 C 
ENDROOT
BRANCH   1   8
ATOM      7  C   LIG    1       25.459 -19.679   4.799  0.00  0.00    -0.000 C 
ATOM      8  C   LIG    1       26.747 -19.899   5.137  0.00  0.00    -0.022 C 
BRANCH   7   9
ATOM      9  C   LIG    1       24.944 -18.848   3.634  0.00  0.00    +0.137 C 
BRANCH   9  10
ATOM     10  O   LIG    1       25.361 -19.441   2.408  0.00  0.00    -0.388 OA
ATOM     11  H   LIG    1       26.152 -18.953   2.125  0.00  0.00    +0.210 HD
ENDBRANCH   9  10
BRANCH   9  12
ATOM     12  C   LIG    1       23.418 -18.581   3.522  0.00  0.00    +0.035 C 
BRANCH  12  13
ATOM     13  C   LIG    1       22.528 -18.988   4.705  0.00  0.00    +0.003 C 
BRANCH  13  14
ATOM     14  C   LIG    1       22.041 -20.440   4.746  0.00  0.00    -0.000 C 
BRANCH  14  16
ATOM     15  C   LIG    1       23.165 -20.780   7.113  0.00  0.00    +0.004 C 
ATOM     16  C   LIG    1       22.708 -21.360   5.782  0.00  0.00    -0.003 C 
ENDBRANCH  14  16
ENDBRANCH  13  14
ENDBRANCH  12  13
ENDBRANCH   9  12
ENDBRANCH   7   9
ENDBRANCH   1   8
BRANCH   6  17
ATOM     17  O   LIG    1       29.548 -21.361   6.910  0.00  0.00    -0.391 OA
ATOM     18  H   LIG    1       29.846 -21.520   5.998  0.00  0.00    +0.210 HD
ENDBRANCH   6  17
BRANCH   2  19
ATOM     19  C   LIG    1       26.482 -23.020   7.515  0.00  0.00    +0.038 C 
BRANCH  19  20
ATOM     20  C   LIG    1       25.304 -23.921   7.238  0.00  0.00    -0.030 C 
ATOM     21  C   LIG    1       25.272 -25.154   6.706  0.00  0.00    -0.031 C 
BRANCH  21  22
ATOM     22  C   LIG    1       26.396 -25.990   6.165  0.00  0.00    +0.027 C 
BRANCH  22  23
ATOM     23  C   LIG    1       25.995 -27.064   5.147  0.00  0.00    +0.015 C 
BRANCH  23  24
ATOM     24  C   LIG    1       24.554 -27.551   5.294  0.00  0.00    +0.121 C 
BRANCH  24  25
ATOM     25  C   LIG    1       24.463 -29.043   5.419  0.00  0.00    +0.305 C 
ATOM     26  O   LIG    1       25.459 -29.791   5.463  0.00  0.00    -0.251 OA
BRANCH  25  27
ATOM     27  O   LIG    1       23.217 -29.529   5.504  0.00  0.00    -0.481 OA
ATOM     28  H   LIG    1       22.641 -28.983   6.081  0.00  0.00    +0.295 HD
ENDBRANCH  25  27
ENDBRANCH  24  25
ENDBRANCH  23  24
ENDBRANCH  22  23
ENDBRANCH  21  22
ENDBRANCH  19  20
ENDBRANCH   2  19
TORSDOF 15
ENDMDL
MODEL 6
REMARK VINA RESULT:      -7.6      1.365      1.886
REMARK  Name = *****
REMARK                            x       y       z     vdW  Elec       q    Type
REMARK                         _______ _______ _______ _____ _____    ______ ____
ROOT
ATOM      1  C   LIG    1       25.437 -22.073   5.949  0.00  0.00    +0.051 C 
ATOM      2  C   LIG    1       26.276 -21.794   7.216  0.00  0.00    +0.068 C 
ATOM      3  C   LIG    1       25.212 -21.574   8.261  0.00  0.00    +0.140 C 
ATOM      4  O   LIG    1       25.421 -21.635   9.469  0.00  0.00    -0.297 OA
ATOM      5  C   LIG    1       23.874 -21.211   7.684  0.00  0.00    +0.106 C 
ATOM      6  C   LIG    1       24.082 -21.349   6.180  0.00  0.00    +0.129 C 
ENDROOT
BRANCH   1   8
ATOM      7  C   LIG    1       25.659 -24.633   6.180  0.00  0.00    -0.000 C 
ATOM      8  C   LIG    1       25.182 -23.533   5.562  0.00  0.00    -0.022 C 
BRANCH   7   9
ATOM      9  C   LIG    1       25.669 -26.056   5.644  0.00  0.00    +0.137 C 
BRANCH   9  10
ATOM     10  O   LIG    1       26.962 -26.624   5.834  0.00  0.00    -0.388 OA
ATOM     11  H   LIG    1       27.479 -26.394   5.044  0.00  0.00    +0.210 HD
ENDBRANCH   9  10
BRANCH   9  12
ATOM     12  C   LIG    1       24.633 -27.073   6.196  0.00  0.00    +0.035 C 
BRANCH  12  13
ATOM     13  C   LIG    1       24.352 -28.334   5.366  0.00  0.00    +0.003 C 
BRANCH  13  14
ATOM     14  C   LIG    1       24.341 -29.673   6.110  0.00  0.00    -0.000 C 
BRANCH  14  16
ATOM     15  C   LIG    1       24.010 -30.000   8.711  0.00  0.00    +0.004 C 
ATOM     16  C   LIG    1       24.919 -29.673   7.534  0.00  0.00    -0.003 C 
ENDBRANCH  14  16
ENDBRANCH  13  14
ENDBRANCH  12  13
ENDBRANCH   9  12
ENDBRANCH   7   9
ENDBRANCH   1   8
BRANCH   6  17
ATOM     17  O   LIG    1       24.095 -20.076   5.538  0.00  0.00    -0.391 OA
ATOM     18  H   LIG    1       23.722 -19.418   6.150  0.00  0.00    +0.210 HD
ENDBRANCH   6  17
BRANCH   2  19
ATOM     19  C   LIG    1       27.214 -20.557   7.138  0.00  0.00    +0.038 C 
BRANCH  19  20
ATOM     20  C   LIG    1       27.596 -20.064   5.764  0.00  0.00    -0.030 C 
ATOM     21  C   LIG    1       28.585 -19.235   5.393  0.00  0.00    -0.031 C 
BRANCH  21  22
ATOM     22  C   LIG    1       29.579 -18.495   6.241  0.00  0.00    +0.027 C 
BRANCH  22  23
ATOM     23  C   LIG    1       30.824 -19.290   6.653  0.00  0.00    +0.015 C 
BRANCH  23  24
ATOM     24  C   LIG    1       31.491 -18.780   7.931  0.00  0.00    +0.121 C 
BRANCH  24  25
ATOM     25  C   LIG    1       30.938 -19.430   9.164  0.00  0.00    +0.305 C 
ATOM     26  O   LIG    1       30.907 -18.874  10.280  0.00  0.00    -0.251 OA
BRANCH  25  27
ATOM     27  O   LIG    1       30.448 -20.665   8.983  0.00  0.00    -0.481 OA
ATOM     28  H   LIG    1       29.668 -20.844   9.549  0.00  0.00    +0.295 HD
ENDBRANCH  25  27
ENDBRANCH  24  25
ENDBRANCH  23  24
ENDBRANCH  22  23
ENDBRANCH  21  22
ENDBRANCH  19  20
ENDBRANCH   2  19
TORSDOF 15
ENDMDL
MODEL 7
REMARK VINA RESULT:      -7.3      2.831      9.021
REMARK  Name = *****
REMARK                            x       y       z     vdW  Elec       q    Type
REMARK                         _______ _______ _______ _____ _____    ______ ____
ROOT
ATOM      1  C   LIG    1       25.514 -24.987   6.914  0.00  0.00    +0.051 C 
ATOM      2  C   LIG    1       26.216 -26.343   6.686  0.00  0.00    +0.068 C 
ATOM      3  C   LIG    1       26.177 -26.474   5.185  0.00  0.00    +0.140 C 
ATOM      4  O   LIG    1       26.896 -27.239   4.548  0.00  0.00    -0.297 OA
ATOM      5  C   LIG    1       25.128 -25.617   4.537  0.00  0.00    +0.106 C 
ATOM      6  C   LIG    1       24.571 -24.796   5.695  0.00  0.00    +0.129 C 
ENDROOT
BRANCH   1   8
ATOM      7  C   LIG    1       26.298 -22.810   8.056  0.00  0.00    -0.000 C 
ATOM      8  C   LIG    1       26.391 -23.743   7.086  0.00  0.00    -0.022 C 
BRANCH   7   9
ATOM      9  C   LIG    1       26.947 -21.434   8.073  0.00  0.00    +0.137 C 
BRANCH   9  10
ATOM     10  O   LIG    1       28.281 -21.534   7.583  0.00  0.00    -0.388 OA
ATOM     11  H   LIG    1       28.551 -20.631   7.344  0.00  0.00    +0.210 HD
ENDBRANCH   9  10
BRANCH   9  12
ATOM     12  C   LIG    1       26.260 -20.272   7.307  0.00  0.00    +0.035 C 
BRANCH  12  13
ATOM     13  C   LIG    1       25.952 -20.477   5.816  0.00  0.00    +0.003 C 
BRANCH  13  14
ATOM     14  C   LIG    1       24.485 -20.673   5.425  0.00  0.00    -0.000 C 
BRANCH  14  16
ATOM     15  C   LIG    1       23.026 -21.868   7.275  0.00  0.00    +0.004 C 
ATOM     16  C   LIG    1       23.454 -20.593   6.562  0.00  0.00    -0.003 C 
ENDBRANCH  14  16
ENDBRANCH  13  14
ENDBRANCH  12  13
ENDBRANCH   9  12
ENDBRANCH   7   9
ENDBRANCH   1   8
BRANCH   6  17
ATOM     17  O   LIG    1       23.248 -25.208   6.034  0.00  0.00    -0.391 OA
ATOM     18  H   LIG    1       22.772 -25.423   5.214  0.00  0.00    +0.210 HD
ENDBRANCH   6  17
BRANCH   2  19
ATOM     19  C   LIG    1       25.531 -27.571   7.348  0.00  0.00    +0.038 C 
BRANCH  19  20
ATOM     20  C   LIG    1       26.230 -28.202   8.526  0.00  0.00    -0.030 C 
ATOM     21  C   LIG    1       25.916 -29.308   9.221  0.00  0.00    -0.031 C 
BRANCH  21  22
ATOM     22  C   LIG    1       24.734 -30.223   9.076  0.00  0.00    +0.027 C 
BRANCH  22  23
ATOM     23  C   LIG    1       24.965 -31.478   8.227  0.00  0.00    +0.015 C 
BRANCH  23  24
ATOM     24  C   LIG    1       24.015 -31.607   7.037  0.00  0.00    +0.121 C 
BRANCH  24  25
ATOM     25  C   LIG    1       24.292 -30.590   5.970  0.00  0.00    +0.305 C 
ATOM     26  O   LIG    1       25.400 -30.462   5.412  0.00  0.00    -0.251 OA
BRANCH  25  27
ATOM     27  O   LIG    1       23.244 -29.827   5.630  0.00  0.00    -0.481 OA
ATOM     28  H   LIG    1       23.491 -29.103   5.016  0.00  0.00    +0.295 HD
ENDBRANCH  25  27
ENDBRANCH  24  25
ENDBRANCH  23  24
ENDBRANCH  22  23
ENDBRANCH  21  22
ENDBRANCH  19  20
ENDBRANCH   2  19
TORSDOF 15
ENDMDL
MODEL 8
REMARK VINA RESULT:      -7.2      2.661      4.359
REMARK  Name = *****
REMARK                            x       y       z     vdW  Elec       q    Type
REMARK                         _______ _______ _______ _____ _____    ______ ____
ROOT
ATOM      1  C   LIG    1       26.035 -26.471   6.649  0.00  0.00    +0.051 C 
ATOM      2  C   LIG    1       25.363 -25.151   7.087  0.00  0.00    +0.068 C 
ATOM      3  C   LIG    1       24.037 -25.217   6.373  0.00  0.00    +0.140 C 
ATOM      4  O   LIG    1       23.062 -24.536   6.681  0.00  0.00    -0.297 OA
ATOM      5  C   LIG    1       24.035 -26.157   5.201  0.00  0.00    +0.106 C 
ATOM      6  C   LIG    1       25.403 -26.824   5.274  0.00  0.00    +0.129 C 
ENDROOT
BRANCH   1   8
ATOM      7  C   LIG    1       25.189 -28.788   7.406  0.00  0.00    -0.000 C 
ATOM      8  C   LIG    1       25.932 -27.677   7.588  0.00  0.00    -0.022 C 
BRANCH   7   9
ATOM      9  C   LIG    1       24.841 -29.841   8.446  0.00  0.00    +0.137 C 
BRANCH   9  10
ATOM     10  O   LIG    1       23.825 -30.698   7.932  0.00  0.00    -0.388 OA
ATOM     11  H   LIG    1       23.344 -31.043   8.703  0.00  0.00    +0.210 HD
ENDBRANCH   9  10
BRANCH   9  12
ATOM     12  C   LIG    1       25.971 -30.750   9.002  0.00  0.00    +0.035 C 
BRANCH  12  13
ATOM     13  C   LIG    1       26.720 -30.278  10.258  0.00  0.00    +0.003 C 
BRANCH  13  14
ATOM     14  C   LIG    1       26.094 -29.129  11.054  0.00  0.00    -0.000 C 
BRANCH  14  16
ATOM     15  C   LIG    1       26.686 -26.941  12.411  0.00  0.00    +0.004 C 
ATOM     16  C   LIG    1       26.955 -27.869  11.234  0.00  0.00    -0.003 C 
ENDBRANCH  14  16
ENDBRANCH  13  14
ENDBRANCH  12  13
ENDBRANCH   9  12
ENDBRANCH   7   9
ENDBRANCH   1   8
BRANCH   6  17
ATOM     17  O   LIG    1       26.255 -26.379   4.220  0.00  0.00    -0.391 OA
ATOM     18  H   LIG    1       27.071 -26.025   4.612  0.00  0.00    +0.210 HD
ENDBRANCH   6  17
BRANCH   2  19
ATOM     19  C   LIG    1       26.120 -23.852   6.693  0.00  0.00    +0.038 C 
BRANCH  19  20
ATOM     20  C   LIG    1       25.892 -22.632   7.550  0.00  0.00    -0.030 C 
ATOM     21  C   LIG    1       26.570 -21.473   7.594  0.00  0.00    -0.031 C 
BRANCH  21  22
ATOM     22  C   LIG    1       27.805 -21.061   6.844  0.00  0.00    +0.027 C 
BRANCH  22  23
ATOM     23  C   LIG    1       28.817 -20.228   7.638  0.00  0.00    +0.015 C 
BRANCH  23  24
ATOM     24  C   LIG    1       29.979 -21.042   8.209  0.00  0.00    +0.121 C 
BRANCH  24  25
ATOM     25  C   LIG    1       31.265 -20.272   8.225  0.00  0.00    +0.305 C 
ATOM     26  O   LIG    1       31.956 -20.108   9.250  0.00  0.00    -0.251 OA
BRANCH  25  27
ATOM     27  O   LIG    1       31.645 -19.779   7.038  0.00  0.00    -0.481 OA
ATOM     28  H   LIG    1       32.202 -18.977   7.126  0.00  0.00    +0.295 HD
ENDBRANCH  25  27
ENDBRANCH  24  25
ENDBRANCH  23  24
ENDBRANCH  22  23
ENDBRANCH  21  22
ENDBRANCH  19  20
ENDBRANCH   2  19
TORSDOF 15
ENDMDL
MODEL 9
REMARK VINA RESULT:      -7.2      3.659      7.040
REMARK  Name = *****
REMARK                            x       y       z     vdW  Elec       q    Type
REMARK                         _______ _______ _______ _____ _____    ______ ____
ROOT
ATOM      1  C   LIG    1       25.469 -20.592   7.116  0.00  0.00    +0.051 C 
ATOM      2  C   LIG    1       26.500 -21.560   6.494  0.00  0.00    +0.068 C 
ATOM      3  C   LIG    1       26.224 -22.841   7.239  0.00  0.00    +0.140 C 
ATOM      4  O   LIG    1       26.589 -23.947   6.851  0.00  0.00    -0.297 OA
ATOM      5  C   LIG    1       25.507 -22.632   8.542  0.00  0.00    +0.106 C 
ATOM      6  C   LIG    1       25.192 -21.140   8.543  0.00  0.00    +0.129 C 
ENDROOT
BRANCH   1   8
ATOM      7  C   LIG    1       23.975 -20.142   5.061  0.00  0.00    -0.000 C 
ATOM      8  C   LIG    1       24.144 -20.381   6.378  0.00  0.00    -0.022 C 
BRANCH   7   9
ATOM      9  C   LIG    1       22.717 -19.637   4.372  0.00  0.00    +0.137 C 
BRANCH   9  10
ATOM     10  O   LIG    1       21.622 -20.485   4.705  0.00  0.00    -0.388 OA
ATOM     11  H   LIG    1       21.114 -20.018   5.390  0.00  0.00    +0.210 HD
ENDBRANCH   9  10
BRANCH   9  12
ATOM     12  C   LIG    1       22.260 -18.174   4.624  0.00  0.00    +0.035 C 
BRANCH  12  13
ATOM     13  C   LIG    1       23.224 -17.043   4.234  0.00  0.00    +0.003 C 
BRANCH  13  14
ATOM     14  C   LIG    1       22.782 -15.610   4.545  0.00  0.00    -0.000 C 
BRANCH  14  16
ATOM     15  C   LIG    1       25.141 -14.803   3.671  0.00  0.00    +0.004 C 
ATOM     16  C   LIG    1       23.862 -14.521   4.448  0.00  0.00    -0.003 C 
ENDBRANCH  14  16
ENDBRANCH  13  14
ENDBRANCH  12  13
ENDBRANCH   9  12
ENDBRANCH   7   9
ENDBRANCH   1   8
BRANCH   6  17
ATOM     17  O   LIG    1       25.989 -20.441   9.496  0.00  0.00    -0.391 OA
ATOM     18  H   LIG    1       25.588 -20.552  10.375  0.00  0.00    +0.210 HD
ENDBRANCH   6  17
BRANCH   2  19
ATOM     19  C   LIG    1       27.990 -21.151   6.665  0.00  0.00    +0.038 C 
BRANCH  19  20
ATOM     20  C   LIG    1       28.357 -19.724   6.342  0.00  0.00    -0.030 C 
ATOM     21  C   LIG    1       29.501 -19.058   6.570  0.00  0.00    -0.031 C 
BRANCH  21  22
ATOM     22  C   LIG    1       30.748 -19.516   7.272  0.00  0.00    +0.027 C 
BRANCH  22  23
ATOM     23  C   LIG    1       31.361 -18.513   8.256  0.00  0.00    +0.015 C 
BRANCH  23  24
ATOM     24  C   LIG    1       30.340 -17.586   8.916  0.00  0.00    +0.121 C 
BRANCH  24  25
ATOM     25  C   LIG    1       30.419 -17.618  10.413  0.00  0.00    +0.305 C 
ATOM     26  O   LIG    1       30.649 -18.655  11.067  0.00  0.00    -0.251 OA
BRANCH  25  27
ATOM     27  O   LIG    1       30.246 -16.433  11.015  0.00  0.00    -0.481 OA
ATOM     28  H   LIG    1       30.835 -15.739  10.650  0.00  0.00    +0.295 HD
ENDBRANCH  25  27
ENDBRANCH  24  25
ENDBRANCH  23  24
ENDBRANCH  22  23
ENDBRANCH  21  22
ENDBRANCH  19  20
ENDBRANCH   2  19
TORSDOF 15
ENDMDL
