MODEL 1
REMARK VINA RESULT:      -7.5      0.000      0.000
REMARK  Name = *****
REMARK                            x       y       z     vdW  Elec       q    Type
REMARK                         _______ _______ _______ _____ _____    ______ ____
ROOT
ATOM      1  C   LIG    1       22.593 -19.352   4.256  0.00  0.00    +0.001 A 
ATOM      2  C   LIG    1       23.957 -19.300   3.981  0.00  0.00    +0.017 A 
ATOM      3  C   LIG    1       24.880 -19.956   4.812  0.00  0.00    +0.034 A 
ATOM      4  S   LIG    1       26.603 -19.852   4.354  0.00  0.00    -0.086 S 
ATOM      5  C   LIG    1       27.391 -20.295   5.891  0.00  0.00    +0.034 A 
ATOM      6  C   LIG    1       26.719 -20.996   6.910  0.00  0.00    +0.048 A 
ATOM      7  N   LIG    1       25.351 -21.358   6.789  0.00  0.00    -0.298 N 
ATOM      8  C   LIG    1       27.427 -21.258   8.099  0.00  0.00    +0.024 A 
ATOM      9  C   LIG    1       28.763 -20.875   8.256  0.00  0.00    +0.002 A 
ATOM     10  C   LIG    1       29.422 -20.221   7.224  0.00  0.00    +0.001 A 
ATOM     11  C   LIG    1       28.740 -19.933   6.044  0.00  0.00    +0.017 A 
ATOM     12  C   LIG    1       24.440 -20.701   5.924  0.00  0.00    +0.048 A 
ATOM     13  C   LIG    1       23.057 -20.715   6.191  0.00  0.00    +0.024 A 
ATOM     14  C   LIG    1       22.143 -20.056   5.364  0.00  0.00    +0.002 A 
ENDROOT
BRANCH   7  15
ATOM     15  C   LIG    1       25.020 -22.761   7.152  0.00  0.00    +0.116 C 
BRANCH  15  16
ATOM     16  C   LIG    1       25.542 -23.806   6.135  0.00  0.00    +0.024 C 
ATOM     17  C   LIG    1       24.464 -24.471   5.242  0.00  0.00    -0.003 C 
ATOM     18  C   LIG    1       23.568 -25.385   6.090  0.00  0.00    +0.019 C 
ATOM     19  C   LIG    1       24.431 -26.447   6.788  0.00  0.00    +0.085 C 
ATOM     20  N   LIG    1       25.865 -26.287   6.459  0.00  0.00    -0.302 NA
ATOM     21  C   LIG    1       26.033 -26.416   4.996  0.00  0.00    +0.085 C 
ATOM     22  C   LIG    1       25.200 -25.375   4.235  0.00  0.00    +0.019 C 
ATOM     23  C   LIG    1       26.300 -24.936   6.881  0.00  0.00    +0.089 C 
ENDBRANCH  15  16
ENDBRANCH   7  15
TORSDOF 2
ENDMDL
MODEL 2
REMARK VINA RESULT:      -6.8      1.818      5.377
REMARK  Name = *****
REMARK                            x       y       z     vdW  Elec       q    Type
REMARK                         _______ _______ _______ _____ _____    ______ ____
ROOT
ATOM      1  C   LIG    1       22.902 -19.770   4.940  0.00  0.00    +0.001 A 
ATOM      2  C   LIG    1       22.443 -21.016   5.360  0.00  0.00    +0.017 A 
ATOM      3  C   LIG    1       23.336 -21.977   5.862  0.00  0.00    +0.034 A 
ATOM      4  S   LIG    1       22.641 -23.530   6.401  0.00  0.00    -0.086 S 
ATOM      5  C   LIG    1       24.090 -24.568   6.407  0.00  0.00    +0.034 A 
ATOM      6  C   LIG    1       25.395 -24.043   6.456  0.00  0.00    +0.048 A 
ATOM      7  N   LIG    1       25.637 -22.643   6.463  0.00  0.00    -0.298 N 
ATOM      8  C   LIG    1       26.468 -24.954   6.416  0.00  0.00    +0.024 A 
ATOM      9  C   LIG    1       26.255 -26.336   6.368  0.00  0.00    +0.002 A 
ATOM     10  C   LIG    1       24.961 -26.838   6.362  0.00  0.00    +0.001 A 
ATOM     11  C   LIG    1       23.881 -25.958   6.383  0.00  0.00    +0.017 A 
ATOM     12  C   LIG    1       24.710 -21.686   5.975  0.00  0.00    +0.048 A 
ATOM     13  C   LIG    1       25.150 -20.428   5.521  0.00  0.00    +0.024 A 
ATOM     14  C   LIG    1       24.257 -19.478   5.017  0.00  0.00    +0.002 A 
ENDROOT
BRANCH   7  15
ATOM     15  C   LIG    1       26.611 -22.160   7.476  0.00  0.00    +0.116 C 
BRANCH  15  16
ATOM     16  C   LIG    1       27.336 -20.854   7.070  0.00  0.00    +0.024 C 
ATOM     17  C   LIG    1       28.697 -21.037   6.352  0.00  0.00    -0.003 C 
ATOM     18  C   LIG    1       29.739 -21.597   7.333  0.00  0.00    +0.019 C 
ATOM     19  C   LIG    1       29.876 -20.647   8.533  0.00  0.00    +0.085 C 
ATOM     20  N   LIG    1       28.972 -19.482   8.413  0.00  0.00    -0.302 NA
ATOM     21  C   LIG    1       29.309 -18.745   7.177  0.00  0.00    +0.085 C 
ATOM     22  C   LIG    1       29.184 -19.636   5.933  0.00  0.00    +0.019 C 
ATOM     23  C   LIG    1       27.577 -19.972   8.323  0.00  0.00    +0.089 C 
ENDBRANCH  15  16
ENDBRANCH   7  15
TORSDOF 2
ENDMDL
MODEL 3
REMARK VINA RESULT:      -6.6      1.966      5.552
REMARK  Name = *****
REMARK                            x       y       z     vdW  Elec       q    Type
REMARK                         _______ _______ _______ _____ _____    ______ ____
ROOT
ATOM      1  C   LIG    1       24.416 -18.380   3.153  0.00  0.00    +0.001 A 
ATOM      2  C   LIG    1       23.609 -19.347   3.747  0.00  0.00    +0.017 A 
ATOM      3  C   LIG    1       24.134 -20.225   4.710  0.00  0.00    +0.034 A 
ATOM      4  S   LIG    1       23.007 -21.407   5.432  0.00  0.00    -0.086 S 
ATOM      5  C   LIG    1       24.150 -22.597   6.108  0.00  0.00    +0.034 A 
ATOM      6  C   LIG    1       25.498 -22.286   6.369  0.00  0.00    +0.048 A 
ATOM      7  N   LIG    1       26.041 -21.008   6.069  0.00  0.00    -0.298 N 
ATOM      8  C   LIG    1       26.321 -23.315   6.866  0.00  0.00    +0.024 A 
ATOM      9  C   LIG    1       25.817 -24.593   7.131  0.00  0.00    +0.002 A 
ATOM     10  C   LIG    1       24.476 -24.870   6.907  0.00  0.00    +0.001 A 
ATOM     11  C   LIG    1       23.643 -23.876   6.398  0.00  0.00    +0.017 A 
ATOM     12  C   LIG    1       25.480 -20.125   5.112  0.00  0.00    +0.048 A 
ATOM     13  C   LIG    1       26.279 -19.154   4.477  0.00  0.00    +0.024 A 
ATOM     14  C   LIG    1       25.752 -18.286   3.515  0.00  0.00    +0.002 A 
ENDROOT
BRANCH   7  15
ATOM     15  C   LIG    1       26.858 -20.385   7.143  0.00  0.00    +0.116 C 
BRANCH  15  16
ATOM     16  C   LIG    1       28.383 -20.472   6.894  0.00  0.00    +0.024 C 
ATOM     17  C   LIG    1       29.269 -20.523   8.165  0.00  0.00    -0.003 C 
ATOM     18  C   LIG    1       29.219 -19.174   8.897  0.00  0.00    +0.019 C 
ATOM     19  C   LIG    1       29.686 -18.059   7.950  0.00  0.00    +0.085 C 
ATOM     20  N   LIG    1       30.038 -18.588   6.614  0.00  0.00    -0.302 NA
ATOM     21  C   LIG    1       31.128 -19.575   6.767  0.00  0.00    +0.085 C 
ATOM     22  C   LIG    1       30.723 -20.726   7.699  0.00  0.00    +0.019 C 
ATOM     23  C   LIG    1       28.849 -19.261   6.043  0.00  0.00    +0.089 C 
ENDBRANCH  15  16
ENDBRANCH   7  15
TORSDOF 2
ENDMDL
MODEL 4
REMARK VINA RESULT:      -6.0      1.621      5.731
REMARK  Name = *****
REMARK                            x       y       z     vdW  Elec       q    Type
REMARK                         _______ _______ _______ _____ _____    ______ ____
ROOT
ATOM      1  C   LIG    1       25.667 -26.790   5.419  0.00  0.00    +0.001 A 
ATOM      2  C   LIG    1       25.217 -25.730   4.635  0.00  0.00    +0.017 A 
ATOM      3  C   LIG    1       25.098 -24.439   5.176  0.00  0.00    +0.034 A 
ATOM      4  S   LIG    1       24.542 -23.146   4.078  0.00  0.00    -0.086 S 
ATOM      5  C   LIG    1       24.019 -21.907   5.249  0.00  0.00    +0.034 A 
ATOM      6  C   LIG    1       24.464 -21.894   6.584  0.00  0.00    +0.048 A 
ATOM      7  N   LIG    1       25.331 -22.899   7.092  0.00  0.00    -0.298 N 
ATOM      8  C   LIG    1       23.956 -20.892   7.433  0.00  0.00    +0.024 A 
ATOM      9  C   LIG    1       23.070 -19.916   6.965  0.00  0.00    +0.002 A 
ATOM     10  C   LIG    1       22.674 -19.919   5.634  0.00  0.00    +0.001 A 
ATOM     11  C   LIG    1       23.148 -20.910   4.778  0.00  0.00    +0.017 A 
ATOM     12  C   LIG    1       25.457 -24.188   6.515  0.00  0.00    +0.048 A 
ATOM     13  C   LIG    1       25.885 -25.283   7.291  0.00  0.00    +0.024 A 
ATOM     14  C   LIG    1       25.997 -26.567   6.749  0.00  0.00    +0.002 A 
ENDROOT
BRANCH   7  15
ATOM     15  C   LIG    1       26.494 -22.412   7.879  0.00  0.00    +0.116 C 
BRANCH  15  16
ATOM     16  C   LIG    1       27.189 -21.174   7.261  0.00  0.00    +0.024 C 
ATOM     17  C   LIG    1       28.554 -21.442   6.578  0.00  0.00    -0.003 C 
ATOM     18  C   LIG    1       29.607 -21.809   7.633  0.00  0.00    +0.019 C 
ATOM     19  C   LIG    1       29.723 -20.673   8.660  0.00  0.00    +0.085 C 
ATOM     20  N   LIG    1       28.793 -19.563   8.355  0.00  0.00    -0.302 NA
ATOM     21  C   LIG    1       29.113 -19.032   7.013  0.00  0.00    +0.085 C 
ATOM     22  C   LIG    1       29.008 -20.118   5.933  0.00  0.00    +0.019 C 
ATOM     23  C   LIG    1       27.409 -20.093   8.351  0.00  0.00    +0.089 C 
ENDBRANCH  15  16
ENDBRANCH   7  15
TORSDOF 2
ENDMDL
MODEL 5
REMARK VINA RESULT:      -5.7      6.020      9.103
REMARK  Name = *****
REMARK                            x       y       z     vdW  Elec       q    Type
REMARK                         _______ _______ _______ _____ _____    ______ ____
ROOT
ATOM      1  C   LIG    1       25.758 -26.653   6.042  0.00  0.00    +0.001 A 
ATOM      2  C   LIG    1       26.269 -27.096   7.260  0.00  0.00    +0.017 A 
ATOM      3  C   LIG    1       25.703 -28.204   7.913  0.00  0.00    +0.034 A 
ATOM      4  S   LIG    1       26.452 -28.709   9.452  0.00  0.00    -0.086 S 
ATOM      5  C   LIG    1       25.148 -29.701  10.156  0.00  0.00    +0.034 A 
ATOM      6  C   LIG    1       24.114 -30.252   9.376  0.00  0.00    +0.048 A 
ATOM      7  N   LIG    1       24.026 -30.015   7.978  0.00  0.00    -0.298 N 
ATOM      8  C   LIG    1       23.114 -30.987  10.042  0.00  0.00    +0.024 A 
ATOM      9  C   LIG    1       23.159 -31.199  11.424  0.00  0.00    +0.002 A 
ATOM     10  C   LIG    1       24.209 -30.683  12.171  0.00  0.00    +0.001 A 
ATOM     11  C   LIG    1       25.202 -29.938  11.540  0.00  0.00    +0.017 A 
ATOM     12  C   LIG    1       24.626 -28.904   7.333  0.00  0.00    +0.048 A 
ATOM     13  C   LIG    1       24.115 -28.419   6.114  0.00  0.00    +0.024 A 
ATOM     14  C   LIG    1       24.678 -27.312   5.471  0.00  0.00    +0.002 A 
ENDROOT
BRANCH   7  15
ATOM     15  C   LIG    1       23.778 -31.213   7.134  0.00  0.00    +0.116 C 
BRANCH  15  16
ATOM     16  C   LIG    1       25.016 -32.129   6.975  0.00  0.00    +0.024 C 
ATOM     17  C   LIG    1       26.232 -31.494   6.252  0.00  0.00    -0.003 C 
ATOM     18  C   LIG    1       25.904 -31.269   4.769  0.00  0.00    +0.019 C 
ATOM     19  C   LIG    1       25.519 -32.607   4.120  0.00  0.00    +0.085 C 
ATOM     20  N   LIG    1       25.561 -33.720   5.095  0.00  0.00    -0.302 NA
ATOM     21  C   LIG    1       26.934 -33.825   5.635  0.00  0.00    +0.085 C 
ATOM     22  C   LIG    1       27.381 -32.519   6.307  0.00  0.00    +0.019 C 
ATOM     23  C   LIG    1       24.626 -33.415   6.201  0.00  0.00    +0.089 C 
ENDBRANCH  15  16
ENDBRANCH   7  15
TORSDOF 2
ENDMDL
MODEL 6
REMARK VINA RESULT:      -5.5      5.819      9.254
REMARK  Name = *****
REMARK                            x       y       z     vdW  Elec       q    Type
REMARK                         _______ _______ _______ _____ _____    ______ ____
ROOT
ATOM      1  C   LIG    1       23.035 -33.231   7.178  0.00  0.00    +0.001 A 
ATOM      2  C   LIG    1       23.650 -32.507   6.159  0.00  0.00    +0.017 A 
ATOM      3  C   LIG    1       24.391 -31.350   6.450  0.00  0.00    +0.034 A 
ATOM      4  S   LIG    1       25.163 -30.513   5.075  0.00  0.00    -0.086 S 
ATOM      5  C   LIG    1       25.475 -28.907   5.785  0.00  0.00    +0.034 A 
ATOM      6  C   LIG    1       25.519 -28.693   7.175  0.00  0.00    +0.048 A 
ATOM      7  N   LIG    1       25.277 -29.742   8.101  0.00  0.00    -0.298 N 
ATOM      8  C   LIG    1       25.733 -27.375   7.626  0.00  0.00    +0.024 A 
ATOM      9  C   LIG    1       25.934 -26.318   6.732  0.00  0.00    +0.002 A 
ATOM     10  C   LIG    1       25.929 -26.557   5.364  0.00  0.00    +0.001 A 
ATOM     11  C   LIG    1       25.701 -27.847   4.891  0.00  0.00    +0.017 A 
ATOM     12  C   LIG    1       24.548 -30.916   7.781  0.00  0.00    +0.048 A 
ATOM     13  C   LIG    1       23.896 -31.653   8.788  0.00  0.00    +0.024 A 
ATOM     14  C   LIG    1       23.155 -32.801   8.492  0.00  0.00    +0.002 A 
ENDROOT
BRANCH   7  15
ATOM     15  C   LIG    1       26.249 -29.854   9.220  0.00  0.00    +0.116 C 
BRANCH  15  16
ATOM     16  C   LIG    1       25.953 -28.894  10.399  0.00  0.00    +0.024 C 
ATOM     17  C   LIG    1       27.192 -28.219  11.041  0.00  0.00    -0.003 C 
ATOM     18  C   LIG    1       28.035 -29.265  11.786  0.00  0.00    +0.019 C 
ATOM     19  C   LIG    1       27.172 -29.955  12.853  0.00  0.00    +0.085 C 
ATOM     20  N   LIG    1       25.787 -29.432  12.858  0.00  0.00    -0.302 NA
ATOM     21  C   LIG    1       25.830 -27.981  13.138  0.00  0.00    +0.085 C 
ATOM     22  C   LIG    1       26.673 -27.227  12.100  0.00  0.00    +0.019 C 
ATOM     23  C   LIG    1       25.194 -29.652  11.519  0.00  0.00    +0.089 C 
ENDBRANCH  15  16
ENDBRANCH   7  15
TORSDOF 2
ENDMDL
MODEL 7
REMARK VINA RESULT:      -5.4      7.914     10.900
REMARK  Name = *****
REMARK                            x       y       z     vdW  Elec       q    Type
REMARK                         _______ _______ _______ _____ _____    ______ ____
ROOT
ATOM      1  C   LIG    1       27.956 -30.500  14.705  0.00  0.00    +0.001 A 
ATOM      2  C   LIG    1       28.024 -29.595  13.648  0.00  0.00    +0.017 A 
ATOM      3  C   LIG    1       27.002 -29.538  12.686  0.00  0.00    +0.034 A 
ATOM      4  S   LIG    1       27.171 -28.322  11.391  0.00  0.00    -0.086 S 
ATOM      5  C   LIG    1       26.036 -28.961  10.173  0.00  0.00    +0.034 A 
ATOM      6  C   LIG    1       25.008 -29.864  10.501  0.00  0.00    +0.048 A 
ATOM      7  N   LIG    1       24.837 -30.355  11.823  0.00  0.00    -0.298 N 
ATOM      8  C   LIG    1       24.194 -30.335   9.452  0.00  0.00    +0.024 A 
ATOM      9  C   LIG    1       24.369 -29.896   8.135  0.00  0.00    +0.002 A 
ATOM     10  C   LIG    1       25.362 -28.973   7.838  0.00  0.00    +0.001 A 
ATOM     11  C   LIG    1       26.192 -28.505   8.853  0.00  0.00    +0.017 A 
ATOM     12  C   LIG    1       25.875 -30.379  12.788  0.00  0.00    +0.048 A 
ATOM     13  C   LIG    1       25.845 -31.301  13.853  0.00  0.00    +0.024 A 
ATOM     14  C   LIG    1       26.868 -31.356  14.804  0.00  0.00    +0.002 A 
ENDROOT
BRANCH   7  15
ATOM     15  C   LIG    1       23.447 -30.325  12.349  0.00  0.00    +0.116 C 
BRANCH  15  16
ATOM     16  C   LIG    1       22.814 -28.912  12.354  0.00  0.00    +0.024 C 
ATOM     17  C   LIG    1       23.248 -27.987  13.519  0.00  0.00    -0.003 C 
ATOM     18  C   LIG    1       22.682 -28.511  14.847  0.00  0.00    +0.019 C 
ATOM     19  C   LIG    1       21.151 -28.594  14.755  0.00  0.00    +0.085 C 
ATOM     20  N   LIG    1       20.659 -28.161  13.429  0.00  0.00    -0.302 NA
ATOM     21  C   LIG    1       21.079 -26.762  13.200  0.00  0.00    +0.085 C 
ATOM     22  C   LIG    1       22.605 -26.609  13.270  0.00  0.00    +0.019 C 
ATOM     23  C   LIG    1       21.268 -29.027  12.392  0.00  0.00    +0.089 C 
ENDBRANCH  15  16
ENDBRANCH   7  15
TORSDOF 2
ENDMDL
MODEL 8
REMARK VINA RESULT:      -5.4      8.717      9.935
REMARK  Name = *****
REMARK                            x       y       z     vdW  Elec       q    Type
REMARK                         _______ _______ _______ _____ _____    ______ ____
ROOT
ATOM      1  C   LIG    1       21.482 -26.633  13.193  0.00  0.00    +0.001 A 
ATOM      2  C   LIG    1       22.845 -26.377  13.321  0.00  0.00    +0.017 A 
ATOM      3  C   LIG    1       23.778 -27.427  13.282  0.00  0.00    +0.034 A 
ATOM      4  S   LIG    1       25.502 -26.988  13.423  0.00  0.00    -0.086 S 
ATOM      5  C   LIG    1       26.217 -28.557  13.878  0.00  0.00    +0.034 A 
ATOM      6  C   LIG    1       25.564 -29.781  13.641  0.00  0.00    +0.048 A 
ATOM      7  N   LIG    1       24.270 -29.836  13.058  0.00  0.00    -0.298 N 
ATOM      8  C   LIG    1       26.204 -30.958  14.078  0.00  0.00    +0.024 A 
ATOM      9  C   LIG    1       27.460 -30.924  14.691  0.00  0.00    +0.002 A 
ATOM     10  C   LIG    1       28.108 -29.711  14.880  0.00  0.00    +0.001 A 
ATOM     11  C   LIG    1       27.490 -28.530  14.474  0.00  0.00    +0.017 A 
ATOM     12  C   LIG    1       23.352 -28.756  13.085  0.00  0.00    +0.048 A 
ATOM     13  C   LIG    1       21.967 -28.987  12.983  0.00  0.00    +0.024 A 
ATOM     14  C   LIG    1       21.043 -27.939  13.029  0.00  0.00    +0.002 A 
ENDROOT
BRANCH   7  15
ATOM     15  C   LIG    1       24.100 -30.818  11.955  0.00  0.00    +0.116 C 
BRANCH  15  16
ATOM     16  C   LIG    1       24.602 -30.306  10.582  0.00  0.00    +0.024 C 
ATOM     17  C   LIG    1       23.565 -30.344   9.431  0.00  0.00    -0.003 C 
ATOM     18  C   LIG    1       23.258 -31.800   9.049  0.00  0.00    +0.019 C 
ATOM     19  C   LIG    1       24.557 -32.508   8.639  0.00  0.00    +0.085 C 
ATOM     20  N   LIG    1       25.726 -31.606   8.736  0.00  0.00    -0.302 NA
ATOM     21  C   LIG    1       25.507 -30.449   7.842  0.00  0.00    +0.085 C 
ATOM     22  C   LIG    1       24.223 -29.688   8.203  0.00  0.00    +0.019 C 
ATOM     23  C   LIG    1       25.839 -31.126  10.133  0.00  0.00    +0.089 C 
ENDBRANCH  15  16
ENDBRANCH   7  15
TORSDOF 2
ENDMDL
MODEL 9
REMARK VINA RESULT:      -5.2      5.383      9.283
REMARK  Name = *****
REMARK                            x       y       z     vdW  Elec       q    Type
REMARK                         _______ _______ _______ _____ _____    ______ ____
ROOT
ATOM      1  C   LIG    1       25.245 -33.824   6.648  0.00  0.00    +0.001 A 
ATOM      2  C   LIG    1       25.223 -33.650   8.030  0.00  0.00    +0.017 A 
ATOM      3  C   LIG    1       25.325 -32.367   8.592  0.00  0.00    +0.034 A 
ATOM      4  S   LIG    1       25.254 -32.251  10.372  0.00  0.00    -0.086 S 
ATOM      5  C   LIG    1       25.957 -30.634  10.636  0.00  0.00    +0.034 A 
ATOM      6  C   LIG    1       26.012 -29.660   9.621  0.00  0.00    +0.048 A 
ATOM      7  N   LIG    1       25.545 -29.924   8.306  0.00  0.00    -0.298 N 
ATOM      8  C   LIG    1       26.625 -28.429   9.929  0.00  0.00    +0.024 A 
ATOM      9  C   LIG    1       27.130 -28.162  11.206  0.00  0.00    +0.002 A 
ATOM     10  C   LIG    1       27.029 -29.119  12.206  0.00  0.00    +0.001 A 
ATOM     11  C   LIG    1       26.443 -30.351  11.924  0.00  0.00    +0.017 A 
ATOM     12  C   LIG    1       25.424 -31.230   7.766  0.00  0.00    +0.048 A 
ATOM     13  C   LIG    1       25.469 -31.438   6.374  0.00  0.00    +0.024 A 
ATOM     14  C   LIG    1       25.373 -32.718   5.820  0.00  0.00    +0.002 A 
ENDROOT
BRANCH   7  15
ATOM     15  C   LIG    1       24.672 -28.880   7.708  0.00  0.00    +0.116 C 
BRANCH  15  16
ATOM     16  C   LIG    1       25.262 -28.231   6.432  0.00  0.00    +0.024 C 
ATOM     17  C   LIG    1       26.243 -27.055   6.670  0.00  0.00    -0.003 C 
ATOM     18  C   LIG    1       25.486 -25.842   7.231  0.00  0.00    +0.019 C 
ATOM     19  C   LIG    1       24.372 -25.436   6.254  0.00  0.00    +0.085 C 
ATOM     20  N   LIG    1       24.335 -26.322   5.069  0.00  0.00    -0.302 NA
ATOM     21  C   LIG    1       25.637 -26.238   4.374  0.00  0.00    +0.085 C 
ATOM     22  C   LIG    1       26.798 -26.640   5.294  0.00  0.00    +0.019 C 
ATOM     23  C   LIG    1       24.115 -27.714   5.524  0.00  0.00    +0.089 C 
ENDBRANCH  15  16
ENDBRANCH   7  15
TORSDOF 2
ENDMDL
