MODEL 1
REMARK VINA RESULT:      -5.0      0.000      0.000
REMARK  Name = *****
REMARK                            x       y       z     vdW  Elec       q    Type
REMARK                         _______ _______ _______ _____ _____    ______ ____
ROOT
ATOM      1  C   LIG    1       25.465 -18.667   3.736  0.00  0.00    +0.142 A 
ATOM      2  C   LIG    1       26.422 -19.431   4.438  0.00  0.00    +0.067 A 
ATOM      3  C   LIG    1       27.650 -18.849   4.765  0.00  0.00    +0.027 A 
ATOM      4  C   LIG    1       27.902 -17.504   4.478  0.00  0.00    +0.017 A 
ATOM      5  C   LIG    1       26.950 -16.757   3.770  0.00  0.00    +0.063 A 
ATOM      6  C   LIG    1       25.747 -17.344   3.384  0.00  0.00    +0.062 A 
ENDROOT
BRANCH   2   7
ATOM      7  N   LIG    1       26.231 -20.810   4.636  0.00  0.00    -0.355 N 
ATOM      8  H   LIG    1       25.744 -21.231   3.845  0.00  0.00    +0.142 HD
ATOM      9  H   LIG    1       25.821 -21.045   5.533  0.00  0.00    +0.142 HD
ENDBRANCH   2   7
BRANCH   5  10
ATOM     10  C   LIG    1       27.248 -15.332   3.484  0.00  0.00    +0.339 C 
ATOM     11  O   LIG    1       28.027 -14.660   4.142  0.00  0.00    -0.245 OA
BRANCH  10  12
ATOM     12  O   LIG    1       26.557 -14.918   2.393  0.00  0.00    -0.460 OA
BRANCH  12  13
ATOM     13  C   LIG    1       26.288 -13.502   2.316  0.00  0.00    +0.247 C 
BRANCH  13  14
ATOM     14  C   LIG    1       24.800 -13.274   1.984  0.00  0.00    +0.125 C 
BRANCH  14  15
ATOM     15  N   LIG    1       23.861 -13.130   3.114  0.00  0.00    -0.300 NA
BRANCH  15  16
ATOM     16  C   LIG    1       23.760 -11.713   3.543  0.00  0.00    +0.081 C 
ATOM     17  C   LIG    1       23.737 -11.447   5.050  0.00  0.00    +0.020 C 
ENDBRANCH  15  16
BRANCH  15  18
ATOM     18  C   LIG    1       24.146 -13.991   4.274  0.00  0.00    +0.081 C 
ATOM     19  C   LIG    1       23.133 -15.098   4.527  0.00  0.00    +0.020 C 
ENDBRANCH  15  18
ENDBRANCH  14  15
ENDBRANCH  13  14
ENDBRANCH  12  13
ENDBRANCH  10  12
ENDBRANCH   5  10
BRANCH   1  20
ATOM     20  O   LIG    1       24.277 -19.303   3.437  0.00  0.00    -0.490 OA
BRANCH  20  21
ATOM     21  C   LIG    1       23.099 -18.545   3.728  0.00  0.00    +0.229 C 
BRANCH  21  22
ATOM     22  C   LIG    1       22.391 -19.126   4.953  0.00  0.00    +0.041 C 
BRANCH  22  24
ATOM     23  C   LIG    1       23.289 -20.778   6.675  0.00  0.00    +0.004 C 
ATOM     24  C   LIG    1       22.745 -20.581   5.269  0.00  0.00    +0.000 C 
ENDBRANCH  22  24
ENDBRANCH  21  22
ENDBRANCH  20  21
ENDBRANCH   1  20
TORSDOF 12
ENDMDL
MODEL 2
REMARK VINA RESULT:      -4.9      1.701      2.428
REMARK  Name = *****
REMARK                            x       y       z     vdW  Elec       q    Type
REMARK                         _______ _______ _______ _____ _____    ______ ____
ROOT
ATOM      1  C   LIG    1       27.293 -20.132   5.766  0.00  0.00    +0.142 A 
ATOM      2  C   LIG    1       28.630 -20.038   6.208  0.00  0.00    +0.067 A 
ATOM      3  C   LIG    1       29.413 -18.961   5.781  0.00  0.00    +0.027 A 
ATOM      4  C   LIG    1       28.862 -17.945   4.995  0.00  0.00    +0.017 A 
ATOM      5  C   LIG    1       27.538 -18.054   4.551  0.00  0.00    +0.063 A 
ATOM      6  C   LIG    1       26.765 -19.154   4.918  0.00  0.00    +0.062 A 
ENDROOT
BRANCH   2   7
ATOM      7  N   LIG    1       29.230 -21.102   6.904  0.00  0.00    -0.355 N 
ATOM      8  H   LIG    1       28.732 -21.976   6.739  0.00  0.00    +0.142 HD
ATOM      9  H   LIG    1       29.395 -20.911   7.887  0.00  0.00    +0.142 HD
ENDBRANCH   2   7
BRANCH   5  10
ATOM     10  C   LIG    1       26.984 -16.956   3.720  0.00  0.00    +0.339 C 
ATOM     11  O   LIG    1       26.122 -17.121   2.871  0.00  0.00    -0.245 OA
BRANCH  10  12
ATOM     12  O   LIG    1       27.554 -15.774   4.064  0.00  0.00    -0.460 OA
BRANCH  12  13
ATOM     13  C   LIG    1       27.375 -14.690   3.127  0.00  0.00    +0.247 C 
BRANCH  13  14
ATOM     14  C   LIG    1       26.342 -13.690   3.684  0.00  0.00    +0.125 C 
BRANCH  14  15
ATOM     15  N   LIG    1       24.923 -13.915   3.348  0.00  0.00    -0.300 NA
BRANCH  15  16
ATOM     16  C   LIG    1       24.400 -12.821   2.490  0.00  0.00    +0.081 C 
ATOM     17  C   LIG    1       23.806 -11.606   3.206  0.00  0.00    +0.020 C 
ENDBRANCH  15  16
BRANCH  15  18
ATOM     18  C   LIG    1       24.033 -14.121   4.503  0.00  0.00    +0.081 C 
ATOM     19  C   LIG    1       23.186 -15.384   4.455  0.00  0.00    +0.020 C 
ENDBRANCH  15  18
ENDBRANCH  14  15
ENDBRANCH  13  14
ENDBRANCH  12  13
ENDBRANCH  10  12
ENDBRANCH   5  10
BRANCH   1  20
ATOM     20  O   LIG    1       26.577 -21.222   6.216  0.00  0.00    -0.490 OA
BRANCH  20  21
ATOM     21  C   LIG    1       25.274 -21.366   5.641  0.00  0.00    +0.229 C 
BRANCH  21  22
ATOM     22  C   LIG    1       24.209 -20.901   6.636  0.00  0.00    +0.041 C 
BRANCH  22  24
ATOM     23  C   LIG    1       22.675 -19.514   5.144  0.00  0.00    +0.004 C 
ATOM     24  C   LIG    1       22.808 -20.732   6.045  0.00  0.00    +0.000 C 
ENDBRANCH  22  24
ENDBRANCH  21  22
ENDBRANCH  20  21
ENDBRANCH   1  20
TORSDOF 12
ENDMDL
MODEL 3
REMARK VINA RESULT:      -4.2      2.076      7.014
REMARK  Name = *****
REMARK                            x       y       z     vdW  Elec       q    Type
REMARK                         _______ _______ _______ _____ _____    ______ ____
ROOT
ATOM      1  C   LIG    1       25.784 -14.185   2.939  0.00  0.00    +0.142 A 
ATOM      2  C   LIG    1       25.242 -12.898   2.731  0.00  0.00    +0.067 A 
ATOM      3  C   LIG    1       23.929 -12.639   3.136  0.00  0.00    +0.027 A 
ATOM      4  C   LIG    1       23.186 -13.610   3.812  0.00  0.00    +0.017 A 
ATOM      5  C   LIG    1       23.727 -14.889   4.002  0.00  0.00    +0.063 A 
ATOM      6  C   LIG    1       25.013 -15.179   3.549  0.00  0.00    +0.062 A 
ENDROOT
BRANCH   2   7
ATOM      7  N   LIG    1       25.932 -11.947   1.958  0.00  0.00    -0.355 N 
ATOM      8  H   LIG    1       26.158 -11.120   2.509  0.00  0.00    +0.142 HD
ATOM      9  H   LIG    1       25.485 -11.732   1.073  0.00  0.00    +0.142 HD
ENDBRANCH   2   7
BRANCH   5  10
ATOM     10  C   LIG    1       22.911 -15.896   4.726  0.00  0.00    +0.339 C 
ATOM     11  O   LIG    1       22.152 -15.618   5.640  0.00  0.00    -0.245 OA
BRANCH  10  12
ATOM     12  O   LIG    1       23.122 -17.131   4.206  0.00  0.00    -0.460 OA
BRANCH  12  13
ATOM     13  C   LIG    1       22.057 -18.086   4.398  0.00  0.00    +0.247 C 
BRANCH  13  14
ATOM     14  C   LIG    1       22.558 -19.252   5.274  0.00  0.00    +0.125 C 
BRANCH  14  15
ATOM     15  N   LIG    1       23.038 -20.466   4.586  0.00  0.00    -0.300 NA
BRANCH  15  16
ATOM     16  C   LIG    1       23.392 -21.526   5.564  0.00  0.00    +0.081 C 
ATOM     17  C   LIG    1       23.324 -21.150   7.046  0.00  0.00    +0.020 C 
ENDBRANCH  15  16
BRANCH  15  18
ATOM     18  C   LIG    1       24.153 -20.251   3.648  0.00  0.00    +0.081 C 
ATOM     19  C   LIG    1       25.509 -20.010   4.294  0.00  0.00    +0.020 C 
ENDBRANCH  15  18
ENDBRANCH  14  15
ENDBRANCH  13  14
ENDBRANCH  12  13
ENDBRANCH  10  12
ENDBRANCH   5  10
BRANCH   1  20
ATOM     20  O   LIG    1       27.081 -14.377   2.510  0.00  0.00    -0.490 OA
BRANCH  20  21
ATOM     21  C   LIG    1       28.050 -14.495   3.556  0.00  0.00    +0.229 C 
BRANCH  21  22
ATOM     22  C   LIG    1       28.681 -13.131   3.841  0.00  0.00    +0.041 C 
BRANCH  22  24
ATOM     23  C   LIG    1       27.199 -13.289   5.910  0.00  0.00    +0.004 C 
ATOM     24  C   LIG    1       28.246 -12.484   5.157  0.00  0.00    +0.000 C 
ENDBRANCH  22  24
ENDBRANCH  21  22
ENDBRANCH  20  21
ENDBRANCH   1  20
TORSDOF 12
ENDMDL
MODEL 4
REMARK VINA RESULT:      -4.1      1.768      6.974
REMARK  Name = *****
REMARK                            x       y       z     vdW  Elec       q    Type
REMARK                         _______ _______ _______ _____ _____    ______ ____
ROOT
ATOM      1  C   LIG    1       25.407 -15.126   3.269  0.00  0.00    +0.142 A 
ATOM      2  C   LIG    1       24.513 -14.158   3.776  0.00  0.00    +0.067 A 
ATOM      3  C   LIG    1       23.295 -14.575   4.319  0.00  0.00    +0.027 A 
ATOM      4  C   LIG    1       22.994 -15.935   4.437  0.00  0.00    +0.017 A 
ATOM      5  C   LIG    1       23.881 -16.888   3.919  0.00  0.00    +0.063 A 
ATOM      6  C   LIG    1       25.072 -16.482   3.320  0.00  0.00    +0.062 A 
ENDROOT
BRANCH   2   7
ATOM      7  N   LIG    1       24.749 -12.787   3.566  0.00  0.00    -0.355 N 
ATOM      8  H   LIG    1       24.036 -12.381   2.961  0.00  0.00    +0.142 HD
ATOM      9  H   LIG    1       25.696 -12.571   3.274  0.00  0.00    +0.142 HD
ENDBRANCH   2   7
BRANCH   5  10
ATOM     10  C   LIG    1       23.532 -18.324   4.064  0.00  0.00    +0.339 C 
ATOM     11  O   LIG    1       22.404 -18.723   4.302  0.00  0.00    -0.245 OA
BRANCH  10  12
ATOM     12  O   LIG    1       24.631 -19.095   3.870  0.00  0.00    -0.460 OA
BRANCH  12  13
ATOM     13  C   LIG    1       24.381 -20.482   3.556  0.00  0.00    +0.247 C 
BRANCH  13  14
ATOM     14  C   LIG    1       24.913 -21.375   4.695  0.00  0.00    +0.125 C 
BRANCH  14  15
ATOM     15  N   LIG    1       25.337 -20.711   5.943  0.00  0.00    -0.300 NA
BRANCH  15  16
ATOM     16  C   LIG    1       26.679 -21.184   6.367  0.00  0.00    +0.081 C 
ATOM     17  C   LIG    1       27.730 -20.111   6.658  0.00  0.00    +0.020 C 
ENDBRANCH  15  16
BRANCH  15  18
ATOM     18  C   LIG    1       24.385 -20.820   7.062  0.00  0.00    +0.081 C 
ATOM     19  C   LIG    1       23.003 -21.336   6.691  0.00  0.00    +0.020 C 
ENDBRANCH  15  18
ENDBRANCH  14  15
ENDBRANCH  13  14
ENDBRANCH  12  13
ENDBRANCH  10  12
ENDBRANCH   5  10
BRANCH   1  20
ATOM     20  O   LIG    1       26.587 -14.648   2.739  0.00  0.00    -0.490 OA
BRANCH  20  21
ATOM     21  C   LIG    1       27.725 -14.765   3.600  0.00  0.00    +0.229 C 
BRANCH  21  22
ATOM     22  C   LIG    1       28.427 -13.412   3.727  0.00  0.00    +0.041 C 
BRANCH  22  24
ATOM     23  C   LIG    1       27.230 -13.407   5.979  0.00  0.00    +0.004 C 
ATOM     24  C   LIG    1       28.078 -12.622   4.989  0.00  0.00    +0.000 C 
ENDBRANCH  22  24
ENDBRANCH  21  22
ENDBRANCH  20  21
ENDBRANCH   1  20
TORSDOF 12
ENDMDL
MODEL 5
REMARK VINA RESULT:      -4.0      2.065      3.950
REMARK  Name = *****
REMARK                            x       y       z     vdW  Elec       q    Type
REMARK                         _______ _______ _______ _____ _____    ______ ____
ROOT
ATOM      1  C   LIG    1       24.695 -20.473   5.100  0.00  0.00    +0.142 A 
ATOM      2  C   LIG    1       23.289 -20.554   5.013  0.00  0.00    +0.067 A 
ATOM      3  C   LIG    1       22.583 -19.506   4.415  0.00  0.00    +0.027 A 
ATOM      4  C   LIG    1       23.259 -18.429   3.835  0.00  0.00    +0.017 A 
ATOM      5  C   LIG    1       24.654 -18.351   3.938  0.00  0.00    +0.063 A 
ATOM      6  C   LIG    1       25.366 -19.359   4.586  0.00  0.00    +0.062 A 
ENDROOT
BRANCH   2   7
ATOM      7  N   LIG    1       22.588 -21.571   5.685  0.00  0.00    -0.355 N 
ATOM      8  H   LIG    1       22.899 -21.654   6.653  0.00  0.00    +0.142 HD
ATOM      9  H   LIG    1       22.570 -22.457   5.191  0.00  0.00    +0.142 HD
ENDBRANCH   2   7
BRANCH   5  10
ATOM     10  C   LIG    1       25.341 -17.195   3.309  0.00  0.00    +0.339 C 
ATOM     11  O   LIG    1       26.506 -17.218   2.947  0.00  0.00    -0.245 OA
BRANCH  10  12
ATOM     12  O   LIG    1       24.482 -16.152   3.182  0.00  0.00    -0.460 OA
BRANCH  12  13
ATOM     13  C   LIG    1       24.421 -15.246   4.304  0.00  0.00    +0.247 C 
BRANCH  13  14
ATOM     14  C   LIG    1       25.544 -14.196   4.183  0.00  0.00    +0.125 C 
BRANCH  14  15
ATOM     15  N   LIG    1       26.124 -13.966   2.846  0.00  0.00    -0.300 NA
BRANCH  15  16
ATOM     16  C   LIG    1       27.591 -13.758   2.931  0.00  0.00    +0.081 C 
ATOM     17  C   LIG    1       28.136 -13.207   4.251  0.00  0.00    +0.020 C 
ENDBRANCH  15  16
BRANCH  15  18
ATOM     18  C   LIG    1       25.502 -12.874   2.077  0.00  0.00    +0.081 C 
ATOM     19  C   LIG    1       24.287 -12.231   2.728  0.00  0.00    +0.020 C 
ENDBRANCH  15  18
ENDBRANCH  14  15
ENDBRANCH  13  14
ENDBRANCH  12  13
ENDBRANCH  10  12
ENDBRANCH   5  10
BRANCH   1  20
ATOM     20  O   LIG    1       25.331 -21.536   5.709  0.00  0.00    -0.490 OA
BRANCH  20  21
ATOM     21  C   LIG    1       25.859 -21.257   7.009  0.00  0.00    +0.229 C 
BRANCH  21  22
ATOM     22  C   LIG    1       27.388 -21.275   6.969  0.00  0.00    +0.041 C 
BRANCH  22  24
ATOM     23  C   LIG    1       29.239 -19.746   6.109  0.00  0.00    +0.004 C 
ATOM     24  C   LIG    1       28.049 -19.897   7.043  0.00  0.00    +0.000 C 
ENDBRANCH  22  24
ENDBRANCH  21  22
ENDBRANCH  20  21
ENDBRANCH   1  20
TORSDOF 12
ENDMDL
MODEL 6
REMARK VINA RESULT:      -3.8      1.819      6.564
REMARK  Name = *****
REMARK                            x       y       z     vdW  Elec       q    Type
REMARK                         _______ _______ _______ _____ _____    ______ ____
ROOT
ATOM      1  C   LIG    1       25.693 -13.672   2.773  0.00  0.00    +0.142 A 
ATOM      2  C   LIG    1       24.459 -13.396   3.400  0.00  0.00    +0.067 A 
ATOM      3  C   LIG    1       23.751 -14.441   3.998  0.00  0.00    +0.027 A 
ATOM      4  C   LIG    1       24.289 -15.730   4.052  0.00  0.00    +0.017 A 
ATOM      5  C   LIG    1       25.509 -15.998   3.415  0.00  0.00    +0.063 A 
ATOM      6  C   LIG    1       26.196 -14.977   2.762  0.00  0.00    +0.062 A 
ENDROOT
BRANCH   2   7
ATOM      7  N   LIG    1       23.853 -12.135   3.260  0.00  0.00    -0.355 N 
ATOM      8  H   LIG    1       23.204 -12.124   2.474  0.00  0.00    +0.142 HD
ATOM      9  H   LIG    1       24.508 -11.360   3.252  0.00  0.00    +0.142 HD
ENDBRANCH   2   7
BRANCH   5  10
ATOM     10  C   LIG    1       26.053 -17.377   3.494  0.00  0.00    +0.339 C 
ATOM     11  O   LIG    1       27.228 -17.627   3.709  0.00  0.00    -0.245 OA
BRANCH  10  12
ATOM     12  O   LIG    1       25.060 -18.284   3.317  0.00  0.00    -0.460 OA
BRANCH  12  13
ATOM     13  C   LIG    1       25.183 -19.509   4.070  0.00  0.00    +0.247 C 
BRANCH  13  14
ATOM     14  C   LIG    1       24.051 -20.477   3.674  0.00  0.00    +0.125 C 
BRANCH  14  15
ATOM     15  N   LIG    1       22.938 -20.653   4.627  0.00  0.00    -0.300 NA
BRANCH  15  16
ATOM     16  C   LIG    1       22.462 -19.342   5.137  0.00  0.00    +0.081 C 
ATOM     17  C   LIG    1       21.674 -18.466   4.161  0.00  0.00    +0.020 C 
ENDBRANCH  15  16
BRANCH  15  18
ATOM     18  C   LIG    1       23.218 -21.562   5.752  0.00  0.00    +0.081 C 
ATOM     19  C   LIG    1       23.592 -20.880   7.060  0.00  0.00    +0.020 C 
ENDBRANCH  15  18
ENDBRANCH  14  15
ENDBRANCH  13  14
ENDBRANCH  12  13
ENDBRANCH  10  12
ENDBRANCH   5  10
BRANCH   1  20
ATOM     20  O   LIG    1       26.338 -12.599   2.194  0.00  0.00    -0.490 OA
BRANCH  20  21
ATOM     21  C   LIG    1       27.492 -12.136   2.903  0.00  0.00    +0.229 C 
BRANCH  21  22
ATOM     22  C   LIG    1       28.105 -13.281   3.710  0.00  0.00    +0.041 C 
BRANCH  22  24
ATOM     23  C   LIG    1       26.948 -13.422   5.979  0.00  0.00    +0.004 C 
ATOM     24  C   LIG    1       28.203 -13.026   5.215  0.00  0.00    +0.000 C 
ENDBRANCH  22  24
ENDBRANCH  21  22
ENDBRANCH  20  21
ENDBRANCH   1  20
TORSDOF 12
ENDMDL
MODEL 7
REMARK VINA RESULT:      -3.8      2.046      3.518
REMARK  Name = *****
REMARK                            x       y       z     vdW  Elec       q    Type
REMARK                         _______ _______ _______ _____ _____    ______ ____
ROOT
ATOM      1  C   LIG    1       23.194 -19.601   4.251  0.00  0.00    +0.142 A 
ATOM      2  C   LIG    1       24.449 -19.717   3.615  0.00  0.00    +0.067 A 
ATOM      3  C   LIG    1       25.159 -18.557   3.295  0.00  0.00    +0.027 A 
ATOM      4  C   LIG    1       24.679 -17.299   3.670  0.00  0.00    +0.017 A 
ATOM      5  C   LIG    1       23.426 -17.192   4.289  0.00  0.00    +0.063 A 
ATOM      6  C   LIG    1       22.679 -18.337   4.559  0.00  0.00    +0.062 A 
ENDROOT
BRANCH   2   7
ATOM      7  N   LIG    1       24.894 -20.961   3.134  0.00  0.00    -0.355 N 
ATOM      8  H   LIG    1       24.257 -21.332   2.431  0.00  0.00    +0.142 HD
ATOM      9  H   LIG    1       25.122 -21.628   3.864  0.00  0.00    +0.142 HD
ENDBRANCH   2   7
BRANCH   5  10
ATOM     10  C   LIG    1       22.947 -15.842   4.676  0.00  0.00    +0.339 C 
ATOM     11  O   LIG    1       22.154 -15.641   5.581  0.00  0.00    -0.245 OA
BRANCH  10  12
ATOM     12  O   LIG    1       23.535 -14.896   3.901  0.00  0.00    -0.460 OA
BRANCH  12  13
ATOM     13  C   LIG    1       23.886 -13.664   4.566  0.00  0.00    +0.247 C 
BRANCH  13  14
ATOM     14  C   LIG    1       25.418 -13.499   4.577  0.00  0.00    +0.125 C 
BRANCH  14  15
ATOM     15  N   LIG    1       26.189 -14.202   3.533  0.00  0.00    -0.300 NA
BRANCH  15  16
ATOM     16  C   LIG    1       27.603 -14.384   3.948  0.00  0.00    +0.081 C 
ATOM     17  C   LIG    1       28.518 -13.163   3.837  0.00  0.00    +0.020 C 
ENDBRANCH  15  16
BRANCH  15  18
ATOM     18  C   LIG    1       26.129 -13.590   2.195  0.00  0.00    +0.081 C 
ATOM     19  C   LIG    1       25.149 -12.435   2.052  0.00  0.00    +0.020 C 
ENDBRANCH  15  18
ENDBRANCH  14  15
ENDBRANCH  13  14
ENDBRANCH  12  13
ENDBRANCH  10  12
ENDBRANCH   5  10
BRANCH   1  20
ATOM     20  O   LIG    1       22.540 -20.782   4.533  0.00  0.00    -0.490 OA
BRANCH  20  21
ATOM     21  C   LIG    1       23.053 -21.500   5.660  0.00  0.00    +0.229 C 
BRANCH  21  22
ATOM     22  C   LIG    1       23.781 -20.542   6.604  0.00  0.00    +0.041 C 
BRANCH  22  24
ATOM     23  C   LIG    1       26.301 -20.460   6.220  0.00  0.00    +0.004 C 
ATOM     24  C   LIG    1       25.162 -21.016   7.061  0.00  0.00    +0.000 C 
ENDBRANCH  22  24
ENDBRANCH  21  22
ENDBRANCH  20  21
ENDBRANCH   1  20
TORSDOF 12
ENDMDL
MODEL 8
REMARK VINA RESULT:      -3.7      1.964      3.693
REMARK  Name = *****
REMARK                            x       y       z     vdW  Elec       q    Type
REMARK                         _______ _______ _______ _____ _____    ______ ____
ROOT
ATOM      1  C   LIG    1       25.099 -20.345   4.699  0.00  0.00    +0.142 A 
ATOM      2  C   LIG    1       23.722 -20.423   4.396  0.00  0.00    +0.067 A 
ATOM      3  C   LIG    1       23.097 -19.328   3.791  0.00  0.00    +0.027 A 
ATOM      4  C   LIG    1       23.834 -18.202   3.415  0.00  0.00    +0.017 A 
ATOM      5  C   LIG    1       25.197 -18.129   3.732  0.00  0.00    +0.063 A 
ATOM      6  C   LIG    1       25.820 -19.189   4.389  0.00  0.00    +0.062 A 
ENDROOT
BRANCH   2   7
ATOM      7  N   LIG    1       22.945 -21.497   4.865  0.00  0.00    -0.355 N 
ATOM      8  H   LIG    1       23.434 -22.010   5.598  0.00  0.00    +0.142 HD
ATOM      9  H   LIG    1       22.580 -22.093   4.130  0.00  0.00    +0.142 HD
ENDBRANCH   2   7
BRANCH   5  10
ATOM     10  C   LIG    1       25.951 -16.921   3.315  0.00  0.00    +0.339 C 
ATOM     11  O   LIG    1       27.170 -16.858   3.299  0.00  0.00    -0.245 OA
BRANCH  10  12
ATOM     12  O   LIG    1       25.093 -15.938   2.943  0.00  0.00    -0.460 OA
BRANCH  12  13
ATOM     13  C   LIG    1       24.527 -15.155   4.015  0.00  0.00    +0.247 C 
BRANCH  13  14
ATOM     14  C   LIG    1       25.519 -14.049   4.429  0.00  0.00    +0.125 C 
BRANCH  14  15
ATOM     15  N   LIG    1       25.904 -13.059   3.404  0.00  0.00    -0.300 NA
BRANCH  15  16
ATOM     16  C   LIG    1       24.871 -12.965   2.341  0.00  0.00    +0.081 C 
ATOM     17  C   LIG    1       24.185 -11.609   2.163  0.00  0.00    +0.020 C 
ENDBRANCH  15  16
BRANCH  15  18
ATOM     18  C   LIG    1       27.231 -13.270   2.802  0.00  0.00    +0.081 C 
ATOM     19  C   LIG    1       28.381 -13.397   3.791  0.00  0.00    +0.020 C 
ENDBRANCH  15  18
ENDBRANCH  14  15
ENDBRANCH  13  14
ENDBRANCH  12  13
ENDBRANCH  10  12
ENDBRANCH   5  10
BRANCH   1  20
ATOM     20  O   LIG    1       25.654 -21.455   5.302  0.00  0.00    -0.490 OA
BRANCH  20  21
ATOM     21  C   LIG    1       25.837 -21.344   6.717  0.00  0.00    +0.229 C 
BRANCH  21  22
ATOM     22  C   LIG    1       27.327 -21.404   7.058  0.00  0.00    +0.041 C 
BRANCH  22  24
ATOM     23  C   LIG    1       29.393 -19.938   6.763  0.00  0.00    +0.004 C 
ATOM     24  C   LIG    1       28.241 -20.660   6.082  0.00  0.00    +0.000 C 
ENDBRANCH  22  24
ENDBRANCH  21  22
ENDBRANCH  20  21
ENDBRANCH   1  20
TORSDOF 12
ENDMDL
MODEL 9
REMARK VINA RESULT:      -3.7      1.717      6.170
REMARK  Name = *****
REMARK                            x       y       z     vdW  Elec       q    Type
REMARK                         _______ _______ _______ _____ _____    ______ ____
ROOT
ATOM      1  C   LIG    1       26.101 -14.008   2.584  0.00  0.00    +0.142 A 
ATOM      2  C   LIG    1       27.194 -13.243   3.047  0.00  0.00    +0.067 A 
ATOM      3  C   LIG    1       28.166 -13.857   3.842  0.00  0.00    +0.027 A 
ATOM      4  C   LIG    1       28.109 -15.227   4.110  0.00  0.00    +0.017 A 
ATOM      5  C   LIG    1       27.014 -15.976   3.657  0.00  0.00    +0.063 A 
ATOM      6  C   LIG    1       26.006 -15.363   2.915  0.00  0.00    +0.062 A 
ENDROOT
BRANCH   2   7
ATOM      7  N   LIG    1       27.210 -11.847   2.881  0.00  0.00    -0.355 N 
ATOM      8  H   LIG    1       27.155 -11.594   1.895  0.00  0.00    +0.142 HD
ATOM      9  H   LIG    1       27.963 -11.381   3.376  0.00  0.00    +0.142 HD
ENDBRANCH   2   7
BRANCH   5  10
ATOM     10  C   LIG    1       26.986 -17.430   3.956  0.00  0.00    +0.339 C 
ATOM     11  O   LIG    1       27.901 -18.023   4.506  0.00  0.00    -0.245 OA
BRANCH  10  12
ATOM     12  O   LIG    1       25.807 -17.968   3.557  0.00  0.00    -0.460 OA
BRANCH  12  13
ATOM     13  C   LIG    1       25.582 -19.344   3.932  0.00  0.00    +0.247 C 
BRANCH  13  14
ATOM     14  C   LIG    1       24.190 -19.793   3.445  0.00  0.00    +0.125 C 
BRANCH  14  15
ATOM     15  N   LIG    1       23.299 -20.440   4.427  0.00  0.00    -0.300 NA
BRANCH  15  16
ATOM     16  C   LIG    1       22.313 -19.471   4.970  0.00  0.00    +0.081 C 
ATOM     17  C   LIG    1       22.329 -18.062   4.374  0.00  0.00    +0.020 C 
ENDBRANCH  15  16
BRANCH  15  18
ATOM     18  C   LIG    1       23.985 -21.135   5.529  0.00  0.00    +0.081 C 
ATOM     19  C   LIG    1       23.437 -20.848   6.919  0.00  0.00    +0.020 C 
ENDBRANCH  15  18
ENDBRANCH  14  15
ENDBRANCH  13  14
ENDBRANCH  12  13
ENDBRANCH  10  12
ENDBRANCH   5  10
BRANCH   1  20
ATOM     20  O   LIG    1       25.173 -13.342   1.812  0.00  0.00    -0.490 OA
BRANCH  20  21
ATOM     21  C   LIG    1       23.920 -13.093   2.458  0.00  0.00    +0.229 C 
BRANCH  21  22
ATOM     22  C   LIG    1       23.855 -11.640   2.932  0.00  0.00    +0.041 C 
BRANCH  22  24
ATOM     23  C   LIG    1       24.057 -12.763   5.212  0.00  0.00    +0.004 C 
ATOM     24  C   LIG    1       23.901 -11.457   4.450  0.00  0.00    +0.000 C 
ENDBRANCH  22  24
ENDBRANCH  21  22
ENDBRANCH  20  21
ENDBRANCH   1  20
TORSDOF 12
ENDMDL
