MODEL 1
REMARK VINA RESULT:      -8.5      0.000      0.000
REMARK  Name = *****
REMARK                            x       y       z     vdW  Elec       q    Type
REMARK                         _______ _______ _______ _____ _____    ______ ____
ROOT
ATOM      1  C   LIG    1       26.930 -20.343   6.714  0.00  0.00    +0.096 A 
ATOM      2  C   LIG    1       25.839 -20.804   7.468  0.00  0.00    +0.284 A 
ATOM      3  C   LIG    1       24.551 -20.927   6.913  0.00  0.00    +0.097 A 
ATOM      4  C   LIG    1       24.329 -20.590   5.570  0.00  0.00    +0.061 A 
ATOM      5  C   LIG    1       25.418 -20.138   4.809  0.00  0.00    +0.013 A 
ATOM      6  C   LIG    1       26.700 -20.025   5.368  0.00  0.00    +0.019 A 
ENDROOT
BRANCH   4   7
ATOM      7  C   LIG    1       22.947 -20.719   4.968  0.00  0.00    +0.418 C 
ATOM      8  F   LIG    1       22.196 -21.661   5.600  0.00  0.00    -0.166 F 
ATOM      9  F   LIG    1       22.987 -21.082   3.658  0.00  0.00    -0.166 F 
ATOM     10  F   LIG    1       22.226 -19.566   5.019  0.00  0.00    -0.166 F 
ENDBRANCH   4   7
BRANCH   2  11
ATOM     11  N   LIG    1       25.971 -21.130   8.877  0.00  0.00    +0.080 N 
ATOM     12  O   LIG    1       25.953 -22.331   9.178  0.00  0.00    -0.576 OA
ATOM     13  O   LIG    1       25.984 -20.178   9.669  0.00  0.00    +0.042 OA
ENDBRANCH   2  11
BRANCH   1  15
ATOM     14  O   LIG    1       28.890 -21.342   7.520  0.00  0.00    -0.291 OA
ATOM     15  C   LIG    1       28.313 -20.286   7.275  0.00  0.00    +0.187 C 
BRANCH  15  16
ATOM     16  C   LIG    1       29.002 -18.956   7.500  0.00  0.00    +0.192 C 
ATOM     17  C   LIG    1       29.720 -18.924   8.823  0.00  0.00    +0.151 C 
ATOM     18  O   LIG    1       29.179 -18.444   9.822  0.00  0.00    -0.296 OA
ATOM     19  C   LIG    1       31.077 -19.583   8.899  0.00  0.00    +0.076 C 
ATOM     20  C   LIG    1       31.965 -19.075   7.772  0.00  0.00    +0.015 C 
ATOM     21  C   LIG    1       31.325 -19.282   6.406  0.00  0.00    +0.076 C 
ATOM     22  C   LIG    1       29.950 -18.647   6.365  0.00  0.00    +0.151 C 
ATOM     23  O   LIG    1       29.571 -17.995   5.391  0.00  0.00    -0.296 OA
ENDBRANCH  15  16
ENDBRANCH   1  15
TORSDOF 4
ENDMDL
MODEL 2
REMARK VINA RESULT:      -8.3      3.885      6.550
REMARK  Name = *****
REMARK                            x       y       z     vdW  Elec       q    Type
REMARK                         _______ _______ _______ _____ _____    ______ ____
ROOT
ATOM      1  C   LIG    1       26.962 -20.535   6.380  0.00  0.00    +0.096 A 
ATOM      2  C   LIG    1       27.276 -20.572   7.748  0.00  0.00    +0.284 A 
ATOM      3  C   LIG    1       28.486 -20.052   8.247  0.00  0.00    +0.097 A 
ATOM      4  C   LIG    1       29.415 -19.473   7.372  0.00  0.00    +0.061 A 
ATOM      5  C   LIG    1       29.102 -19.423   6.005  0.00  0.00    +0.013 A 
ATOM      6  C   LIG    1       27.891 -19.937   5.517  0.00  0.00    +0.019 A 
ENDROOT
BRANCH   4   7
ATOM      7  C   LIG    1       30.718 -18.913   7.902  0.00  0.00    +0.418 C 
ATOM      8  F   LIG    1       31.732 -19.032   7.003  0.00  0.00    -0.166 F 
ATOM      9  F   LIG    1       31.133 -19.552   9.029  0.00  0.00    -0.166 F 
ATOM     10  F   LIG    1       30.649 -17.592   8.221  0.00  0.00    -0.166 F 
ENDBRANCH   4   7
BRANCH   2  11
ATOM     11  N   LIG    1       26.391 -21.196   8.715  0.00  0.00    +0.080 N 
ATOM     12  O   LIG    1       25.882 -20.456   9.568  0.00  0.00    -0.576 OA
ATOM     13  O   LIG    1       26.304 -22.431   8.674  0.00  0.00    +0.042 OA
ENDBRANCH   2  11
BRANCH   1  15
ATOM     14  O   LIG    1       25.569 -22.160   5.427  0.00  0.00    -0.291 OA
ATOM     15  C   LIG    1       25.647 -21.012   5.856  0.00  0.00    +0.187 C 
BRANCH  15  16
ATOM     16  C   LIG    1       24.429 -20.113   5.891  0.00  0.00    +0.192 C 
ATOM     17  C   LIG    1       23.921 -19.819   4.504  0.00  0.00    +0.151 C 
ATOM     18  O   LIG    1       24.261 -18.792   3.913  0.00  0.00    -0.296 OA
ATOM     19  C   LIG    1       23.065 -20.869   3.835  0.00  0.00    +0.076 C 
ATOM     20  C   LIG    1       21.934 -21.287   4.764  0.00  0.00    +0.015 C 
ATOM     21  C   LIG    1       22.454 -21.772   6.111  0.00  0.00    +0.076 C 
ATOM     22  C   LIG    1       23.341 -20.719   6.745  0.00  0.00    +0.151 C 
ATOM     23  O   LIG    1       23.259 -20.446   7.943  0.00  0.00    -0.296 OA
ENDBRANCH  15  16
ENDBRANCH   1  15
TORSDOF 4
ENDMDL
MODEL 3
REMARK VINA RESULT:      -8.3      1.166      1.953
REMARK  Name = *****
REMARK                            x       y       z     vdW  Elec       q    Type
REMARK                         _______ _______ _______ _____ _____    ______ ____
ROOT
ATOM      1  C   LIG    1       27.478 -20.484   6.856  0.00  0.00    +0.096 A 
ATOM      2  C   LIG    1       26.201 -20.758   7.373  0.00  0.00    +0.284 A 
ATOM      3  C   LIG    1       25.037 -20.616   6.594  0.00  0.00    +0.097 A 
ATOM      4  C   LIG    1       25.132 -20.194   5.260  0.00  0.00    +0.061 A 
ATOM      5  C   LIG    1       26.405 -19.928   4.735  0.00  0.00    +0.013 A 
ATOM      6  C   LIG    1       27.561 -20.080   5.516  0.00  0.00    +0.019 A 
ENDROOT
BRANCH   4   7
ATOM      7  C   LIG    1       23.884 -20.037   4.418  0.00  0.00    +0.418 C 
ATOM      8  F   LIG    1       22.771 -19.853   5.177  0.00  0.00    -0.166 F 
ATOM      9  F   LIG    1       23.641 -21.132   3.648  0.00  0.00    -0.166 F 
ATOM     10  F   LIG    1       23.939 -18.979   3.564  0.00  0.00    -0.166 F 
ENDBRANCH   4   7
BRANCH   2  11
ATOM     11  N   LIG    1       26.010 -21.154   8.757  0.00  0.00    +0.080 N 
ATOM     12  O   LIG    1       25.817 -22.359   8.973  0.00  0.00    -0.576 OA
ATOM     13  O   LIG    1       25.949 -20.243   9.593  0.00  0.00    +0.042 OA
ENDBRANCH   2  11
BRANCH   1  15
ATOM     14  O   LIG    1       28.667 -21.468   8.618  0.00  0.00    -0.291 OA
ATOM     15  C   LIG    1       28.720 -20.710   7.653  0.00  0.00    +0.187 C 
BRANCH  15  16
ATOM     16  C   LIG    1       30.024 -20.050   7.256  0.00  0.00    +0.192 C 
ATOM     17  C   LIG    1       29.860 -18.563   7.088  0.00  0.00    +0.151 C 
ATOM     18  O   LIG    1       29.649 -18.073   5.976  0.00  0.00    -0.296 OA
ATOM     19  C   LIG    1       29.868 -17.713   8.337  0.00  0.00    +0.076 C 
ATOM     20  C   LIG    1       31.087 -18.045   9.185  0.00  0.00    +0.015 C 
ATOM     21  C   LIG    1       31.157 -19.528   9.524  0.00  0.00    +0.076 C 
ATOM     22  C   LIG    1       31.109 -20.363   8.260  0.00  0.00    +0.151 C 
ATOM     23  O   LIG    1       31.849 -21.334   8.101  0.00  0.00    -0.296 OA
ENDBRANCH  15  16
ENDBRANCH   1  15
TORSDOF 4
ENDMDL
MODEL 4
REMARK VINA RESULT:      -7.8      4.420      5.985
REMARK  Name = *****
REMARK                            x       y       z     vdW  Elec       q    Type
REMARK                         _______ _______ _______ _____ _____    ______ ____
ROOT
ATOM      1  C   LIG    1       24.280 -22.421   7.037  0.00  0.00    +0.096 A 
ATOM      2  C   LIG    1       25.560 -22.900   7.362  0.00  0.00    +0.284 A 
ATOM      3  C   LIG    1       25.911 -24.254   7.193  0.00  0.00    +0.097 A 
ATOM      4  C   LIG    1       24.975 -25.164   6.683  0.00  0.00    +0.061 A 
ATOM      5  C   LIG    1       23.698 -24.689   6.348  0.00  0.00    +0.013 A 
ATOM      6  C   LIG    1       23.358 -23.337   6.513  0.00  0.00    +0.019 A 
ENDROOT
BRANCH   4   7
ATOM      7  C   LIG    1       25.346 -26.620   6.501  0.00  0.00    +0.418 C 
ATOM      8  F   LIG    1       26.081 -27.098   7.541  0.00  0.00    -0.166 F 
ATOM      9  F   LIG    1       26.092 -26.825   5.382  0.00  0.00    -0.166 F 
ATOM     10  F   LIG    1       24.267 -27.442   6.391  0.00  0.00    -0.166 F 
ENDBRANCH   4   7
BRANCH   2  11
ATOM     11  N   LIG    1       26.573 -22.035   7.938  0.00  0.00    +0.080 N 
ATOM     12  O   LIG    1       27.614 -21.878   7.284  0.00  0.00    -0.576 OA
ATOM     13  O   LIG    1       26.358 -21.611   9.082  0.00  0.00    +0.042 OA
ENDBRANCH   2  11
BRANCH   1  15
ATOM     14  O   LIG    1       23.472 -20.555   8.201  0.00  0.00    -0.291 OA
ATOM     15  C   LIG    1       23.928 -20.973   7.140  0.00  0.00    +0.187 C 
BRANCH  15  16
ATOM     16  C   LIG    1       24.164 -20.036   5.974  0.00  0.00    +0.192 C 
ATOM     17  C   LIG    1       25.193 -20.587   5.023  0.00  0.00    +0.151 C 
ATOM     18  O   LIG    1       26.376 -20.253   5.112  0.00  0.00    -0.296 OA
ATOM     19  C   LIG    1       24.739 -21.630   4.029  0.00  0.00    +0.076 C 
ATOM     20  C   LIG    1       23.504 -21.138   3.287  0.00  0.00    +0.015 C 
ATOM     21  C   LIG    1       22.381 -20.758   4.242  0.00  0.00    +0.076 C 
ATOM     22  C   LIG    1       22.869 -19.741   5.255  0.00  0.00    +0.151 C 
ATOM     23  O   LIG    1       22.186 -18.766   5.568  0.00  0.00    -0.296 OA
ENDBRANCH  15  16
ENDBRANCH   1  15
TORSDOF 4
ENDMDL
MODEL 5
REMARK VINA RESULT:      -7.7      4.213      6.152
REMARK  Name = *****
REMARK                            x       y       z     vdW  Elec       q    Type
REMARK                         _______ _______ _______ _____ _____    ______ ____
ROOT
ATOM      1  C   LIG    1       25.489 -22.332   5.980  0.00  0.00    +0.096 A 
ATOM      2  C   LIG    1       25.977 -22.897   7.169  0.00  0.00    +0.284 A 
ATOM      3  C   LIG    1       25.991 -24.290   7.379  0.00  0.00    +0.097 A 
ATOM      4  C   LIG    1       25.513 -25.154   6.386  0.00  0.00    +0.061 A 
ATOM      5  C   LIG    1       25.033 -24.596   5.191  0.00  0.00    +0.013 A 
ATOM      6  C   LIG    1       25.030 -23.208   4.986  0.00  0.00    +0.019 A 
ENDROOT
BRANCH   4   7
ATOM      7  C   LIG    1       25.524 -26.652   6.606  0.00  0.00    +0.418 C 
ATOM      8  F   LIG    1       26.201 -27.311   5.628  0.00  0.00    -0.166 F 
ATOM      9  F   LIG    1       24.270 -27.180   6.622  0.00  0.00    -0.166 F 
ATOM     10  F   LIG    1       26.103 -27.020   7.781  0.00  0.00    -0.166 F 
ENDBRANCH   4   7
BRANCH   2  11
ATOM     11  N   LIG    1       26.447 -22.071   8.267  0.00  0.00    +0.080 N 
ATOM     12  O   LIG    1       27.640 -21.740   8.249  0.00  0.00    -0.576 OA
ATOM     13  O   LIG    1       25.643 -21.856   9.185  0.00  0.00    +0.042 OA
ENDBRANCH   2  11
BRANCH   1  15
ATOM     14  O   LIG    1       26.616 -20.370   5.372  0.00  0.00    -0.291 OA
ATOM     15  C   LIG    1       25.546 -20.862   5.720  0.00  0.00    +0.187 C 
BRANCH  15  16
ATOM     16  C   LIG    1       24.303 -20.007   5.846  0.00  0.00    +0.192 C 
ATOM     17  C   LIG    1       23.711 -19.692   4.498  0.00  0.00    +0.151 C 
ATOM     18  O   LIG    1       23.984 -18.638   3.920  0.00  0.00    -0.296 OA
ATOM     19  C   LIG    1       22.855 -20.753   3.845  0.00  0.00    +0.076 C 
ATOM     20  C   LIG    1       21.791 -21.235   4.820  0.00  0.00    +0.015 C 
ATOM     21  C   LIG    1       22.399 -21.738   6.122  0.00  0.00    +0.076 C 
ATOM     22  C   LIG    1       23.284 -20.674   6.739  0.00  0.00    +0.151 C 
ATOM     23  O   LIG    1       23.258 -20.436   7.948  0.00  0.00    -0.296 OA
ENDBRANCH  15  16
ENDBRANCH   1  15
TORSDOF 4
ENDMDL
MODEL 6
REMARK VINA RESULT:      -7.7      3.925      6.467
REMARK  Name = *****
REMARK                            x       y       z     vdW  Elec       q    Type
REMARK                         _______ _______ _______ _____ _____    ______ ____
ROOT
ATOM      1  C   LIG    1       26.594 -20.409   6.477  0.00  0.00    +0.096 A 
ATOM      2  C   LIG    1       27.179 -20.598   7.740  0.00  0.00    +0.284 A 
ATOM      3  C   LIG    1       28.527 -20.279   7.990  0.00  0.00    +0.097 A 
ATOM      4  C   LIG    1       29.326 -19.752   6.965  0.00  0.00    +0.061 A 
ATOM      5  C   LIG    1       28.745 -19.552   5.704  0.00  0.00    +0.013 A 
ATOM      6  C   LIG    1       27.398 -19.866   5.465  0.00  0.00    +0.019 A 
ENDROOT
BRANCH   4   7
ATOM      7  C   LIG    1       30.776 -19.408   7.227  0.00  0.00    +0.418 C 
ATOM      8  F   LIG    1       31.424 -20.394   7.904  0.00  0.00    -0.166 F 
ATOM      9  F   LIG    1       30.912 -18.281   7.977  0.00  0.00    -0.166 F 
ATOM     10  F   LIG    1       31.494 -19.194   6.092  0.00  0.00    -0.166 F 
ENDBRANCH   4   7
BRANCH   2  11
ATOM     11  N   LIG    1       26.436 -21.182   8.842  0.00  0.00    +0.080 N 
ATOM     12  O   LIG    1       26.336 -22.417   8.859  0.00  0.00    -0.576 OA
ATOM     13  O   LIG    1       25.874 -20.393   9.614  0.00  0.00    +0.042 OA
ENDBRANCH   2  11
BRANCH   1  15
ATOM     14  O   LIG    1       24.317 -19.940   6.764  0.00  0.00    -0.291 OA
ATOM     15  C   LIG    1       25.145 -20.672   6.227  0.00  0.00    +0.187 C 
BRANCH  15  16
ATOM     16  C   LIG    1       24.710 -21.790   5.304  0.00  0.00    +0.192 C 
ATOM     17  C   LIG    1       24.568 -23.093   6.045  0.00  0.00    +0.151 C 
ATOM     18  O   LIG    1       25.491 -23.909   6.068  0.00  0.00    -0.296 OA
ATOM     19  C   LIG    1       23.297 -23.316   6.832  0.00  0.00    +0.076 C 
ATOM     20  C   LIG    1       22.086 -23.042   5.952  0.00  0.00    +0.015 C 
ATOM     21  C   LIG    1       22.126 -21.645   5.348  0.00  0.00    +0.076 C 
ATOM     22  C   LIG    1       23.424 -21.430   4.597  0.00  0.00    +0.151 C 
ATOM     23  O   LIG    1       23.447 -20.876   3.497  0.00  0.00    -0.296 OA
ENDBRANCH  15  16
ENDBRANCH   1  15
TORSDOF 4
ENDMDL
MODEL 7
REMARK VINA RESULT:      -7.6      4.879      6.338
REMARK  Name = *****
REMARK                            x       y       z     vdW  Elec       q    Type
REMARK                         _______ _______ _______ _____ _____    ______ ____
ROOT
ATOM      1  C   LIG    1       24.995 -22.935   5.592  0.00  0.00    +0.096 A 
ATOM      2  C   LIG    1       25.423 -23.283   6.884  0.00  0.00    +0.284 A 
ATOM      3  C   LIG    1       25.627 -24.624   7.263  0.00  0.00    +0.097 A 
ATOM      4  C   LIG    1       25.408 -25.656   6.340  0.00  0.00    +0.061 A 
ATOM      5  C   LIG    1       24.991 -25.313   5.045  0.00  0.00    +0.013 A 
ATOM      6  C   LIG    1       24.796 -23.974   4.673  0.00  0.00    +0.019 A 
ENDROOT
BRANCH   4   7
ATOM      7  C   LIG    1       25.624 -27.099   6.742  0.00  0.00    +0.418 C 
ATOM      8  F   LIG    1       26.296 -27.802   5.791  0.00  0.00    -0.166 F 
ATOM      9  F   LIG    1       24.453 -27.759   6.945  0.00  0.00    -0.166 F 
ATOM     10  F   LIG    1       26.340 -27.238   7.890  0.00  0.00    -0.166 F 
ENDBRANCH   4   7
BRANCH   2  11
ATOM     11  N   LIG    1       25.627 -22.280   7.914  0.00  0.00    +0.080 N 
ATOM     12  O   LIG    1       26.796 -22.061   8.259  0.00  0.00    -0.576 OA
ATOM     13  O   LIG    1       24.610 -21.805   8.438  0.00  0.00    +0.042 OA
ENDBRANCH   2  11
BRANCH   1  15
ATOM     14  O   LIG    1       25.639 -20.682   5.614  0.00  0.00    -0.291 OA
ATOM     15  C   LIG    1       24.854 -21.511   5.162  0.00  0.00    +0.187 C 
BRANCH  15  16
ATOM     16  C   LIG    1       23.792 -21.109   4.161  0.00  0.00    +0.192 C 
ATOM     17  C   LIG    1       22.505 -20.731   4.845  0.00  0.00    +0.151 C 
ATOM     18  O   LIG    1       21.599 -21.555   4.985  0.00  0.00    -0.296 OA
ATOM     19  C   LIG    1       22.407 -19.342   5.433  0.00  0.00    +0.076 C 
ATOM     20  C   LIG    1       22.808 -18.307   4.391  0.00  0.00    +0.015 C 
ATOM     21  C   LIG    1       24.197 -18.574   3.830  0.00  0.00    +0.076 C 
ATOM     22  C   LIG    1       24.285 -19.984   3.282  0.00  0.00    +0.151 C 
ATOM     23  O   LIG    1       24.841 -20.223   2.209  0.00  0.00    -0.296 OA
ENDBRANCH  15  16
ENDBRANCH   1  15
TORSDOF 4
ENDMDL
MODEL 8
REMARK VINA RESULT:      -7.4      3.962      6.439
REMARK  Name = *****
REMARK                            x       y       z     vdW  Elec       q    Type
REMARK                         _______ _______ _______ _____ _____    ______ ____
ROOT
ATOM      1  C   LIG    1       26.797 -20.360   6.484  0.00  0.00    +0.096 A 
ATOM      2  C   LIG    1       27.262 -21.031   7.627  0.00  0.00    +0.284 A 
ATOM      3  C   LIG    1       28.599 -20.926   8.057  0.00  0.00    +0.097 A 
ATOM      4  C   LIG    1       29.506 -20.132   7.343  0.00  0.00    +0.061 A 
ATOM      5  C   LIG    1       29.045 -19.451   6.207  0.00  0.00    +0.013 A 
ATOM      6  C   LIG    1       27.709 -19.555   5.788  0.00  0.00    +0.019 A 
ENDROOT
BRANCH   4   7
ATOM      7  C   LIG    1       30.944 -20.016   7.800  0.00  0.00    +0.418 C 
ATOM      8  F   LIG    1       31.080 -19.184   8.868  0.00  0.00    -0.166 F 
ATOM      9  F   LIG    1       31.757 -19.522   6.828  0.00  0.00    -0.166 F 
ATOM     10  F   LIG    1       31.488 -21.205   8.178  0.00  0.00    -0.166 F 
ENDBRANCH   4   7
BRANCH   2  11
ATOM     11  N   LIG    1       26.401 -21.911   8.396  0.00  0.00    +0.080 N 
ATOM     12  O   LIG    1       26.165 -23.027   7.913  0.00  0.00    -0.576 OA
ATOM     13  O   LIG    1       25.887 -21.434   9.417  0.00  0.00    +0.042 OA
ENDBRANCH   2  11
BRANCH   1  15
ATOM     14  O   LIG    1       24.499 -20.316   6.937  0.00  0.00    -0.291 OA
ATOM     15  C   LIG    1       25.363 -20.404   6.069  0.00  0.00    +0.187 C 
BRANCH  15  16
ATOM     16  C   LIG    1       24.985 -20.517   4.607  0.00  0.00    +0.192 C 
ATOM     17  C   LIG    1       23.880 -21.518   4.399  0.00  0.00    +0.151 C 
ATOM     18  O   LIG    1       24.135 -22.683   4.087  0.00  0.00    -0.296 OA
ATOM     19  C   LIG    1       22.465 -21.067   4.678  0.00  0.00    +0.076 C 
ATOM     20  C   LIG    1       22.180 -19.764   3.944  0.00  0.00    +0.015 C 
ATOM     21  C   LIG    1       23.188 -18.680   4.300  0.00  0.00    +0.076 C 
ATOM     22  C   LIG    1       24.601 -19.167   4.049  0.00  0.00    +0.151 C 
ATOM     23  O   LIG    1       25.443 -18.448   3.510  0.00  0.00    -0.296 OA
ENDBRANCH  15  16
ENDBRANCH   1  15
TORSDOF 4
ENDMDL
MODEL 9
REMARK VINA RESULT:      -7.2      4.019      6.506
REMARK  Name = *****
REMARK                            x       y       z     vdW  Elec       q    Type
REMARK                         _______ _______ _______ _____ _____    ______ ____
ROOT
ATOM      1  C   LIG    1       27.304 -20.367   6.237  0.00  0.00    +0.096 A 
ATOM      2  C   LIG    1       27.603 -21.171   7.349  0.00  0.00    +0.284 A 
ATOM      3  C   LIG    1       28.822 -21.053   8.045  0.00  0.00    +0.097 A 
ATOM      4  C   LIG    1       29.775 -20.109   7.637  0.00  0.00    +0.061 A 
ATOM      5  C   LIG    1       29.477 -19.296   6.533  0.00  0.00    +0.013 A 
ATOM      6  C   LIG    1       28.257 -19.415   5.849  0.00  0.00    +0.019 A 
ENDROOT
BRANCH   4   7
ATOM      7  C   LIG    1       31.086 -19.978   8.381  0.00  0.00    +0.418 C 
ATOM      8  F   LIG    1       32.006 -19.263   7.678  0.00  0.00    -0.166 F 
ATOM      9  F   LIG    1       31.658 -21.185   8.636  0.00  0.00    -0.166 F 
ATOM     10  F   LIG    1       30.965 -19.356   9.585  0.00  0.00    -0.166 F 
ENDBRANCH   4   7
BRANCH   2  11
ATOM     11  N   LIG    1       26.693 -22.204   7.808  0.00  0.00    +0.080 N 
ATOM     12  O   LIG    1       26.102 -21.996   8.877  0.00  0.00    -0.576 OA
ATOM     13  O   LIG    1       26.662 -23.253   7.148  0.00  0.00    +0.042 OA
ENDBRANCH   2  11
BRANCH   1  15
ATOM     14  O   LIG    1       25.822 -19.771   4.523  0.00  0.00    -0.291 OA
ATOM     15  C   LIG    1       25.982 -20.434   5.544  0.00  0.00    +0.187 C 
BRANCH  15  16
ATOM     16  C   LIG    1       24.879 -21.329   6.070  0.00  0.00    +0.192 C 
ATOM     17  C   LIG    1       23.790 -20.529   6.734  0.00  0.00    +0.151 C 
ATOM     18  O   LIG    1       23.788 -20.358   7.955  0.00  0.00    -0.296 OA
ATOM     19  C   LIG    1       22.763 -19.870   5.843  0.00  0.00    +0.076 C 
ATOM     20  C   LIG    1       22.189 -20.890   4.869  0.00  0.00    +0.015 C 
ATOM     21  C   LIG    1       23.278 -21.570   4.050  0.00  0.00    +0.076 C 
ATOM     22  C   LIG    1       24.317 -22.189   4.963  0.00  0.00    +0.151 C 
ATOM     23  O   LIG    1       24.775 -23.312   4.748  0.00  0.00    -0.296 OA
ENDBRANCH  15  16
ENDBRANCH   1  15
TORSDOF 4
ENDMDL
