MODEL 1
REMARK VINA RESULT:       3.0      0.000      0.000
REMARK  Name = *****
REMARK                            x       y       z     vdW  Elec       q    Type
REMARK                         _______ _______ _______ _____ _____    ______ ____
ROOT
ATOM      1  C   LIG    1       24.323 -14.633   3.631  0.00  0.00    +0.242 C 
ATOM      2  C   LIG    1       24.618 -16.050   2.992  0.00  0.00    +0.199 C 
ATOM      3  N   LIG    1       23.587 -16.618   3.845  0.00  0.00    -0.244 N 
ATOM      4  C   LIG    1       23.338 -17.966   3.988  0.00  0.00    +0.123 C 
ATOM      5  C   LIG    1       24.227 -18.881   3.500  0.00  0.00    -0.021 C 
ATOM      6  C   LIG    1       25.564 -18.476   2.889  0.00  0.00    +0.104 C 
ATOM      7  S   LIG    1       26.175 -16.862   3.435  0.00  0.00    -0.129 S 
ATOM      8  C   LIG    1       23.211 -15.464   4.446  0.00  0.00    +0.275 C 
ATOM      9  O   LIG    1       22.453 -15.207   5.352  0.00  0.00    -0.270 OA
ENDROOT
BRANCH   1  10
ATOM     10  N   LIG    1       25.385 -14.067   4.542  0.00  0.00    -0.277 N 
ATOM     11  H   LIG    1       26.319 -14.451   4.467  0.00  0.00    +0.152 HD
ATOM     12  C   LIG    1       25.231 -12.892   5.254  0.00  0.00    +0.225 C 
ATOM     13  O   LIG    1       24.236 -12.184   5.146  0.00  0.00    -0.275 OA
BRANCH  12  14
ATOM     14  C   LIG    1       26.394 -12.607   6.214  0.00  0.00    +0.165 C 
BRANCH  14  15
ATOM     15  S   LIG    1       27.916 -13.548   5.854  0.00  0.00    -0.137 S 
BRANCH  15  16
ATOM     16  C   LIG    1       28.383 -12.809   4.247  0.00  0.00    +0.187 C 
BRANCH  16  17
ATOM     17  C   LIG    1       27.922 -13.563   3.067  0.00  0.00    +0.073 C 
ATOM     18  N   LIG    1       27.532 -14.130   2.142  0.00  0.00    -0.196 NA
ENDBRANCH  16  17
ENDBRANCH  15  16
ENDBRANCH  14  15
ENDBRANCH  12  14
ENDBRANCH   1  10
BRANCH   1  20
ATOM     19  C   LIG    1       24.644 -12.727   2.122  0.00  0.00    +0.197 C 
ATOM     20  O   LIG    1       23.750 -13.667   2.701  0.00  0.00    -0.349 OA
ENDBRANCH   1  20
BRANCH   4  21
ATOM     21  C   LIG    1       22.045 -18.340   4.667  0.00  0.00    +0.351 C 
ATOM     22  O   LIG    1       20.924 -18.089   4.262  0.00  0.00    -0.244 OA
BRANCH  21  23
ATOM     23  O   LIG    1       22.203 -19.024   5.811  0.00  0.00    -0.476 OA
ATOM     24  H   LIG    1       22.412 -18.350   6.490  0.00  0.00    +0.295 HD
ENDBRANCH  21  23
ENDBRANCH   4  21
BRANCH   5  25
ATOM     25  C   LIG    1       24.104 -20.406   3.572  0.00  0.00    +0.111 C 
BRANCH  25  26
ATOM     26  S   LIG    1       25.719 -21.233   3.468  0.00  0.00    -0.080 S 
BRANCH  26  27
ATOM     27  C   LIG    1       26.484 -20.621   4.904  0.00  0.00    +0.209 A 
ATOM     28  N   LIG    1       25.958 -20.730   6.160  0.00  0.00    -0.223 N 
ATOM     29  C   LIG    1       24.654 -21.163   6.574  0.00  0.00    +0.177 C 
ATOM     30  N   LIG    1       26.828 -20.233   7.058  0.00  0.00    -0.043 NA
ATOM     31  N   LIG    1       27.846 -19.781   6.338  0.00  0.00    -0.022 NA
ATOM     32  N   LIG    1       27.642 -20.007   4.994  0.00  0.00    -0.102 NA
ENDBRANCH  26  27
ENDBRANCH  25  26
ENDBRANCH   5  25
TORSDOF 11
ENDMDL
MODEL 2
REMARK VINA RESULT:       4.3      2.833      6.961
REMARK  Name = *****
REMARK                            x       y       z     vdW  Elec       q    Type
REMARK                         _______ _______ _______ _____ _____    ______ ____
ROOT
ATOM      1  C   LIG    1       25.237 -18.659   3.475  0.00  0.00    +0.242 C 
ATOM      2  C   LIG    1       24.315 -17.394   3.244  0.00  0.00    +0.199 C 
ATOM      3  N   LIG    1       25.509 -16.566   3.210  0.00  0.00    -0.244 N 
ATOM      4  C   LIG    1       25.511 -15.188   3.196  0.00  0.00    +0.123 C 
ATOM      5  C   LIG    1       24.359 -14.500   3.456  0.00  0.00    -0.021 C 
ATOM      6  C   LIG    1       23.070 -15.195   3.879  0.00  0.00    +0.104 C 
ATOM      7  S   LIG    1       23.314 -16.820   4.640  0.00  0.00    -0.129 S 
ATOM      8  C   LIG    1       26.411 -17.563   3.367  0.00  0.00    +0.275 C 
ATOM      9  O   LIG    1       27.610 -17.584   3.528  0.00  0.00    -0.270 OA
ENDROOT
BRANCH   1  10
ATOM     10  N   LIG    1       25.182 -19.296   4.842  0.00  0.00    -0.277 N 
ATOM     11  H   LIG    1       24.270 -19.428   5.261  0.00  0.00    +0.152 HD
ATOM     12  C   LIG    1       26.253 -19.951   5.422  0.00  0.00    +0.225 C 
ATOM     13  O   LIG    1       27.315 -20.121   4.833  0.00  0.00    -0.275 OA
BRANCH  12  14
ATOM     14  C   LIG    1       25.988 -20.385   6.869  0.00  0.00    +0.165 C 
BRANCH  14  15
ATOM     15  S   LIG    1       24.614 -21.571   7.062  0.00  0.00    -0.137 S 
BRANCH  15  16
ATOM     16  C   LIG    1       23.188 -20.472   6.735  0.00  0.00    +0.187 C 
BRANCH  16  17
ATOM     17  C   LIG    1       22.391 -20.835   5.548  0.00  0.00    +0.073 C 
ATOM     18  N   LIG    1       21.737 -21.118   4.642  0.00  0.00    -0.196 NA
ENDBRANCH  16  17
ENDBRANCH  15  16
ENDBRANCH  14  15
ENDBRANCH  12  14
ENDBRANCH   1  10
BRANCH   1  20
ATOM     19  C   LIG    1       24.609 -20.863   2.600  0.00  0.00    +0.197 C 
ATOM     20  O   LIG    1       25.236 -19.609   2.369  0.00  0.00    -0.349 OA
ENDBRANCH   1  20
BRANCH   4  21
ATOM     21  C   LIG    1       26.819 -14.523   2.851  0.00  0.00    +0.351 C 
ATOM     22  O   LIG    1       26.979 -13.639   2.028  0.00  0.00    -0.244 OA
BRANCH  21  23
ATOM     23  O   LIG    1       27.867 -14.974   3.557  0.00  0.00    -0.476 OA
ATOM     24  H   LIG    1       27.523 -15.726   4.082  0.00  0.00    +0.295 HD
ENDBRANCH  21  23
ENDBRANCH   4  21
BRANCH   5  25
ATOM     25  C   LIG    1       24.186 -12.978   3.479  0.00  0.00    +0.111 C 
BRANCH  25  26
ATOM     26  S   LIG    1       24.525 -12.271   5.118  0.00  0.00    -0.080 S 
BRANCH  26  27
ATOM     27  C   LIG    1       26.257 -12.396   5.170  0.00  0.00    +0.209 A 
ATOM     28  N   LIG    1       26.941 -13.257   5.981  0.00  0.00    -0.223 N 
ATOM     29  C   LIG    1       26.463 -14.077   7.058  0.00  0.00    +0.177 C 
ATOM     30  N   LIG    1       28.258 -13.169   5.725  0.00  0.00    -0.043 NA
ATOM     31  N   LIG    1       28.367 -12.222   4.802  0.00  0.00    -0.022 NA
ATOM     32  N   LIG    1       27.130 -11.724   4.454  0.00  0.00    -0.102 NA
ENDBRANCH  26  27
ENDBRANCH  25  26
ENDBRANCH   5  25
TORSDOF 11
ENDMDL
