MODEL 1
REMARK VINA RESULT:      -8.6      0.000      0.000
REMARK  Name = *****
REMARK                            x       y       z     vdW  Elec       q    Type
REMARK                         _______ _______ _______ _____ _____    ______ ____
ROOT
ATOM      1  O   LIG    1       26.565 -20.792   9.056  0.00  0.00    -0.270 OA
ATOM      2  C   LIG    1       26.416 -20.538   7.875  0.00  0.00    +0.255 C 
ATOM      3  N   LIG    1       27.337 -20.092   6.967  0.00  0.00    -0.222 N 
ATOM      4  C   LIG    1       26.801 -20.007   5.710  0.00  0.00    +0.255 C 
ATOM      5  O   LIG    1       27.341 -19.683   4.669  0.00  0.00    -0.270 OA
ATOM      6  C   LIG    1       25.391 -20.374   5.829  0.00  0.00    +0.049 A 
ATOM      7  C   LIG    1       24.396 -20.429   4.874  0.00  0.00    +0.014 A 
ATOM      8  C   LIG    1       23.124 -20.825   5.301  0.00  0.00    +0.001 A 
ATOM      9  C   LIG    1       22.884 -21.155   6.651  0.00  0.00    +0.001 A 
ATOM     10  C   LIG    1       23.911 -21.093   7.599  0.00  0.00    +0.014 A 
ATOM     11  C   LIG    1       25.155 -20.695   7.153  0.00  0.00    +0.049 A 
ENDROOT
BRANCH   3  12
ATOM     12  C   LIG    1       28.757 -19.922   7.232  0.00  0.00    +0.171 C 
ATOM     13  C   LIG    1       29.375 -21.284   7.564  0.00  0.00    +0.240 C 
ATOM     14  O   LIG    1       28.915 -22.357   7.177  0.00  0.00    -0.273 OA
ATOM     15  N   LIG    1       30.559 -21.248   8.265  0.00  0.00    -0.255 N 
ATOM     16  H   LIG    1       30.989 -22.143   8.457  0.00  0.00    +0.158 HD
ATOM     17  C   LIG    1       31.210 -20.147   8.769  0.00  0.00    +0.219 C 
ATOM     18  O   LIG    1       32.283 -20.260   9.354  0.00  0.00    -0.275 OA
ATOM     19  C   LIG    1       30.581 -18.802   8.491  0.00  0.00    +0.098 C 
ATOM     20  C   LIG    1       29.072 -18.916   8.335  0.00  0.00    +0.042 C 
ENDBRANCH   3  12
TORSDOF 1
ENDMDL
MODEL 2
REMARK VINA RESULT:      -8.3      0.233      2.017
REMARK  Name = *****
REMARK                            x       y       z     vdW  Elec       q    Type
REMARK                         _______ _______ _______ _____ _____    ______ ____
ROOT
ATOM      1  O   LIG    1       27.316 -19.589   4.601  0.00  0.00    -0.270 OA
ATOM      2  C   LIG    1       26.830 -20.006   5.636  0.00  0.00    +0.255 C 
ATOM      3  N   LIG    1       27.431 -20.217   6.846  0.00  0.00    -0.222 N 
ATOM      4  C   LIG    1       26.525 -20.614   7.793  0.00  0.00    +0.255 C 
ATOM      5  O   LIG    1       26.707 -20.851   8.972  0.00  0.00    -0.270 OA
ATOM      6  C   LIG    1       25.234 -20.726   7.119  0.00  0.00    +0.049 A 
ATOM      7  C   LIG    1       24.000 -21.110   7.603  0.00  0.00    +0.014 A 
ATOM      8  C   LIG    1       22.933 -21.115   6.699  0.00  0.00    +0.001 A 
ATOM      9  C   LIG    1       23.123 -20.738   5.353  0.00  0.00    +0.001 A 
ATOM     10  C   LIG    1       24.384 -20.351   4.888  0.00  0.00    +0.014 A 
ATOM     11  C   LIG    1       25.421 -20.358   5.799  0.00  0.00    +0.049 A 
ENDROOT
BRANCH   3  12
ATOM     12  C   LIG    1       28.808 -19.875   7.166  0.00  0.00    +0.171 C 
ATOM     13  C   LIG    1       29.561 -21.145   7.576  0.00  0.00    +0.240 C 
ATOM     14  O   LIG    1       29.246 -22.276   7.211  0.00  0.00    -0.273 OA
ATOM     15  N   LIG    1       30.699 -20.948   8.327  0.00  0.00    -0.255 N 
ATOM     16  H   LIG    1       31.218 -21.781   8.571  0.00  0.00    +0.158 HD
ATOM     17  C   LIG    1       31.195 -19.764   8.816  0.00  0.00    +0.219 C 
ATOM     18  O   LIG    1       32.244 -19.732   9.451  0.00  0.00    -0.275 OA
ATOM     19  C   LIG    1       30.430 -18.510   8.460  0.00  0.00    +0.098 C 
ATOM     20  C   LIG    1       28.953 -18.804   8.243  0.00  0.00    +0.042 C 
ENDBRANCH   3  12
TORSDOF 1
ENDMDL
MODEL 3
REMARK VINA RESULT:      -8.0      2.427      5.706
REMARK  Name = *****
REMARK                            x       y       z     vdW  Elec       q    Type
REMARK                         _______ _______ _______ _____ _____    ______ ____
ROOT
ATOM      1  O   LIG    1       28.062 -21.962   8.910  0.00  0.00    -0.270 OA
ATOM      2  C   LIG    1       27.862 -21.325   7.893  0.00  0.00    +0.255 C 
ATOM      3  N   LIG    1       26.735 -21.267   7.119  0.00  0.00    -0.222 N 
ATOM      4  C   LIG    1       26.874 -20.365   6.098  0.00  0.00    +0.255 C 
ATOM      5  O   LIG    1       26.064 -20.039   5.251  0.00  0.00    -0.270 OA
ATOM      6  C   LIG    1       28.234 -19.837   6.186  0.00  0.00    +0.049 A 
ATOM      7  C   LIG    1       28.893 -18.922   5.391  0.00  0.00    +0.014 A 
ATOM      8  C   LIG    1       30.212 -18.610   5.736  0.00  0.00    +0.001 A 
ATOM      9  C   LIG    1       30.829 -19.210   6.853  0.00  0.00    +0.001 A 
ATOM     10  C   LIG    1       30.138 -20.133   7.645  0.00  0.00    +0.014 A 
ATOM     11  C   LIG    1       28.839 -20.427   7.281  0.00  0.00    +0.049 A 
ENDROOT
BRANCH   3  12
ATOM     12  C   LIG    1       25.471 -21.912   7.435  0.00  0.00    +0.171 C 
ATOM     13  C   LIG    1       25.442 -23.306   6.798  0.00  0.00    +0.240 C 
ATOM     14  O   LIG    1       26.450 -23.958   6.533  0.00  0.00    -0.273 OA
ATOM     15  N   LIG    1       24.191 -23.851   6.611  0.00  0.00    -0.255 N 
ATOM     16  H   LIG    1       24.168 -24.784   6.223  0.00  0.00    +0.158 HD
ATOM     17  C   LIG    1       22.971 -23.269   6.852  0.00  0.00    +0.219 C 
ATOM     18  O   LIG    1       21.927 -23.887   6.664  0.00  0.00    -0.275 OA
ATOM     19  C   LIG    1       22.988 -21.873   7.432  0.00  0.00    +0.098 C 
ATOM     20  C   LIG    1       24.240 -21.114   7.017  0.00  0.00    +0.042 C 
ENDBRANCH   3  12
TORSDOF 1
ENDMDL
MODEL 4
REMARK VINA RESULT:      -7.9      2.224      6.192
REMARK  Name = *****
REMARK                            x       y       z     vdW  Elec       q    Type
REMARK                         _______ _______ _______ _____ _____    ______ ____
ROOT
ATOM      1  O   LIG    1       27.316 -19.594   4.959  0.00  0.00    -0.270 OA
ATOM      2  C   LIG    1       27.645 -20.120   6.006  0.00  0.00    +0.255 C 
ATOM      3  N   LIG    1       26.955 -21.019   6.773  0.00  0.00    -0.222 N 
ATOM      4  C   LIG    1       27.702 -21.445   7.838  0.00  0.00    +0.255 C 
ATOM      5  O   LIG    1       27.415 -22.260   8.694  0.00  0.00    -0.270 OA
ATOM      6  C   LIG    1       28.964 -20.710   7.788  0.00  0.00    +0.049 A 
ATOM      7  C   LIG    1       30.054 -20.742   8.634  0.00  0.00    +0.014 A 
ATOM      8  C   LIG    1       31.134 -19.912   8.315  0.00  0.00    +0.001 A 
ATOM      9  C   LIG    1       31.097 -19.084   7.174  0.00  0.00    +0.001 A 
ATOM     10  C   LIG    1       29.981 -19.072   6.331  0.00  0.00    +0.014 A 
ATOM     11  C   LIG    1       28.928 -19.897   6.670  0.00  0.00    +0.049 A 
ENDROOT
BRANCH   3  12
ATOM     12  C   LIG    1       25.679 -21.616   6.414  0.00  0.00    +0.171 C 
ATOM     13  C   LIG    1       24.643 -21.276   7.491  0.00  0.00    +0.240 C 
ATOM     14  O   LIG    1       24.710 -20.287   8.218  0.00  0.00    -0.273 OA
ATOM     15  N   LIG    1       23.548 -22.110   7.551  0.00  0.00    -0.255 N 
ATOM     16  H   LIG    1       22.845 -21.870   8.236  0.00  0.00    +0.158 HD
ATOM     17  C   LIG    1       23.312 -23.249   6.819  0.00  0.00    +0.219 C 
ATOM     18  O   LIG    1       22.271 -23.884   6.957  0.00  0.00    -0.275 OA
ATOM     19  C   LIG    1       24.353 -23.622   5.790  0.00  0.00    +0.098 C 
ATOM     20  C   LIG    1       25.735 -23.125   6.192  0.00  0.00    +0.042 C 
ENDBRANCH   3  12
TORSDOF 1
ENDMDL
MODEL 5
REMARK VINA RESULT:      -7.7      2.393      5.959
REMARK  Name = *****
REMARK                            x       y       z     vdW  Elec       q    Type
REMARK                         _______ _______ _______ _____ _____    ______ ____
ROOT
ATOM      1  O   LIG    1       26.017 -19.979   5.246  0.00  0.00    -0.270 OA
ATOM      2  C   LIG    1       26.795 -20.262   6.138  0.00  0.00    +0.255 C 
ATOM      3  N   LIG    1       26.593 -21.047   7.240  0.00  0.00    -0.222 N 
ATOM      4  C   LIG    1       27.743 -21.194   7.969  0.00  0.00    +0.255 C 
ATOM      5  O   LIG    1       27.930 -21.847   8.977  0.00  0.00    -0.270 OA
ATOM      6  C   LIG    1       28.763 -20.381   7.310  0.00  0.00    +0.049 A 
ATOM      7  C   LIG    1       30.084 -20.156   7.644  0.00  0.00    +0.014 A 
ATOM      8  C   LIG    1       30.821 -19.317   6.803  0.00  0.00    +0.001 A 
ATOM      9  C   LIG    1       30.229 -18.735   5.663  0.00  0.00    +0.001 A 
ATOM     10  C   LIG    1       28.889 -18.980   5.345  0.00  0.00    +0.014 A 
ATOM     11  C   LIG    1       28.182 -19.808   6.194  0.00  0.00    +0.049 A 
ENDROOT
BRANCH   3  12
ATOM     12  C   LIG    1       25.383 -21.808   7.514  0.00  0.00    +0.171 C 
ATOM     13  C   LIG    1       25.483 -23.176   6.833  0.00  0.00    +0.240 C 
ATOM     14  O   LIG    1       26.546 -23.731   6.563  0.00  0.00    -0.273 OA
ATOM     15  N   LIG    1       24.286 -23.819   6.606  0.00  0.00    -0.255 N 
ATOM     16  H   LIG    1       24.348 -24.737   6.188  0.00  0.00    +0.158 HD
ATOM     17  C   LIG    1       23.017 -23.351   6.846  0.00  0.00    +0.219 C 
ATOM     18  O   LIG    1       22.033 -24.049   6.621  0.00  0.00    -0.275 OA
ATOM     19  C   LIG    1       22.906 -21.979   7.471  0.00  0.00    +0.098 C 
ATOM     20  C   LIG    1       24.095 -21.103   7.101  0.00  0.00    +0.042 C 
ENDBRANCH   3  12
TORSDOF 1
ENDMDL
MODEL 6
REMARK VINA RESULT:      -7.6      2.245      5.850
REMARK  Name = *****
REMARK                            x       y       z     vdW  Elec       q    Type
REMARK                         _______ _______ _______ _____ _____    ______ ____
ROOT
ATOM      1  O   LIG    1       27.462 -22.186   8.680  0.00  0.00    -0.270 OA
ATOM      2  C   LIG    1       27.695 -21.400   7.781  0.00  0.00    +0.255 C 
ATOM      3  N   LIG    1       26.972 -21.150   6.646  0.00  0.00    -0.222 N 
ATOM      4  C   LIG    1       27.520 -20.127   5.919  0.00  0.00    +0.255 C 
ATOM      5  O   LIG    1       27.121 -19.625   4.885  0.00  0.00    -0.270 OA
ATOM      6  C   LIG    1       28.738 -19.721   6.617  0.00  0.00    +0.049 A 
ATOM      7  C   LIG    1       29.673 -18.756   6.300  0.00  0.00    +0.014 A 
ATOM      8  C   LIG    1       30.749 -18.596   7.180  0.00  0.00    +0.001 A 
ATOM      9  C   LIG    1       30.859 -19.392   8.339  0.00  0.00    +0.001 A 
ATOM     10  C   LIG    1       29.896 -20.361   8.639  0.00  0.00    +0.014 A 
ATOM     11  C   LIG    1       28.847 -20.502   7.753  0.00  0.00    +0.049 A 
ENDROOT
BRANCH   3  12
ATOM     12  C   LIG    1       25.678 -21.734   6.334  0.00  0.00    +0.171 C 
ATOM     13  C   LIG    1       24.666 -21.322   7.407  0.00  0.00    +0.240 C 
ATOM     14  O   LIG    1       24.766 -20.302   8.087  0.00  0.00    -0.273 OA
ATOM     15  N   LIG    1       23.554 -22.127   7.522  0.00  0.00    -0.255 N 
ATOM     16  H   LIG    1       22.867 -21.840   8.205  0.00  0.00    +0.158 HD
ATOM     17  C   LIG    1       23.282 -23.293   6.847  0.00  0.00    +0.219 C 
ATOM     18  O   LIG    1       22.230 -23.898   7.029  0.00  0.00    -0.275 OA
ATOM     19  C   LIG    1       24.300 -23.736   5.821  0.00  0.00    +0.098 C 
ATOM     20  C   LIG    1       25.698 -23.252   6.181  0.00  0.00    +0.042 C 
ENDBRANCH   3  12
TORSDOF 1
ENDMDL
MODEL 7
REMARK VINA RESULT:      -7.3      1.731      2.932
REMARK  Name = *****
REMARK                            x       y       z     vdW  Elec       q    Type
REMARK                         _______ _______ _______ _____ _____    ______ ____
ROOT
ATOM      1  O   LIG    1       28.706 -18.177   4.972  0.00  0.00    -0.270 OA
ATOM      2  C   LIG    1       28.372 -19.019   5.785  0.00  0.00    +0.255 C 
ATOM      3  N   LIG    1       28.937 -19.323   6.993  0.00  0.00    -0.222 N 
ATOM      4  C   LIG    1       28.216 -20.278   7.657  0.00  0.00    +0.255 C 
ATOM      5  O   LIG    1       28.411 -20.753   8.760  0.00  0.00    -0.270 OA
ATOM      6  C   LIG    1       27.120 -20.669   6.773  0.00  0.00    +0.049 A 
ATOM      7  C   LIG    1       26.121 -21.605   6.944  0.00  0.00    +0.014 A 
ATOM      8  C   LIG    1       25.199 -21.752   5.902  0.00  0.00    +0.001 A 
ATOM      9  C   LIG    1       25.298 -20.968   4.733  0.00  0.00    +0.001 A 
ATOM     10  C   LIG    1       26.320 -20.024   4.586  0.00  0.00    +0.014 A 
ATOM     11  C   LIG    1       27.218 -19.901   5.626  0.00  0.00    +0.049 A 
ENDROOT
BRANCH   3  12
ATOM     12  C   LIG    1       30.039 -18.597   7.606  0.00  0.00    +0.171 C 
ATOM     13  C   LIG    1       31.116 -19.594   8.046  0.00  0.00    +0.240 C 
ATOM     14  O   LIG    1       31.279 -20.698   7.531  0.00  0.00    -0.273 OA
ATOM     15  N   LIG    1       31.981 -19.147   9.021  0.00  0.00    -0.255 N 
ATOM     16  H   LIG    1       32.714 -19.788   9.290  0.00  0.00    +0.158 HD
ATOM     17  C   LIG    1       31.947 -17.951   9.697  0.00  0.00    +0.219 C 
ATOM     18  O   LIG    1       32.805 -17.670  10.528  0.00  0.00    -0.275 OA
ATOM     19  C   LIG    1       30.856 -16.982   9.306  0.00  0.00    +0.098 C 
ATOM     20  C   LIG    1       29.628 -17.710   8.777  0.00  0.00    +0.042 C 
ENDBRANCH   3  12
TORSDOF 1
ENDMDL
MODEL 8
REMARK VINA RESULT:      -6.9      1.667      2.719
REMARK  Name = *****
REMARK                            x       y       z     vdW  Elec       q    Type
REMARK                         _______ _______ _______ _____ _____    ______ ____
ROOT
ATOM      1  O   LIG    1       26.004 -19.360   4.812  0.00  0.00    -0.270 OA
ATOM      2  C   LIG    1       25.754 -20.341   5.487  0.00  0.00    +0.255 C 
ATOM      3  N   LIG    1       26.576 -21.045   6.323  0.00  0.00    -0.222 N 
ATOM      4  C   LIG    1       25.897 -22.041   6.973  0.00  0.00    +0.255 C 
ATOM      5  O   LIG    1       26.306 -22.827   7.806  0.00  0.00    -0.270 OA
ATOM      6  C   LIG    1       24.527 -22.015   6.466  0.00  0.00    +0.049 A 
ATOM      7  C   LIG    1       23.444 -22.816   6.767  0.00  0.00    +0.014 A 
ATOM      8  C   LIG    1       22.242 -22.539   6.108  0.00  0.00    +0.001 A 
ATOM      9  C   LIG    1       22.153 -21.480   5.180  0.00  0.00    +0.001 A 
ATOM     10  C   LIG    1       23.265 -20.682   4.893  0.00  0.00    +0.014 A 
ATOM     11  C   LIG    1       24.440 -20.978   5.554  0.00  0.00    +0.049 A 
ENDROOT
BRANCH   3  12
ATOM     12  C   LIG    1       27.944 -20.677   6.654  0.00  0.00    +0.171 C 
ATOM     13  C   LIG    1       27.956 -19.938   7.996  0.00  0.00    +0.240 C 
ATOM     14  O   LIG    1       27.098 -20.083   8.866  0.00  0.00    -0.273 OA
ATOM     15  N   LIG    1       29.056 -19.143   8.230  0.00  0.00    -0.255 N 
ATOM     16  H   LIG    1       29.085 -18.680   9.128  0.00  0.00    +0.158 HD
ATOM     17  C   LIG    1       30.100 -18.872   7.378  0.00  0.00    +0.219 C 
ATOM     18  O   LIG    1       31.036 -18.162   7.732  0.00  0.00    -0.275 OA
ATOM     19  C   LIG    1       30.070 -19.557   6.031  0.00  0.00    +0.098 C 
ATOM     20  C   LIG    1       28.644 -19.844   5.585  0.00  0.00    +0.042 C 
ENDBRANCH   3  12
TORSDOF 1
ENDMDL
MODEL 9
REMARK VINA RESULT:      -6.7      4.354      5.465
REMARK  Name = *****
REMARK                            x       y       z     vdW  Elec       q    Type
REMARK                         _______ _______ _______ _____ _____    ______ ____
ROOT
ATOM      1  O   LIG    1       22.952 -21.658   7.835  0.00  0.00    -0.270 OA
ATOM      2  C   LIG    1       23.378 -21.683   6.696  0.00  0.00    +0.255 C 
ATOM      3  N   LIG    1       24.052 -22.683   6.049  0.00  0.00    -0.222 N 
ATOM      4  C   LIG    1       24.286 -22.362   4.739  0.00  0.00    +0.255 C 
ATOM      5  O   LIG    1       24.824 -23.027   3.874  0.00  0.00    -0.270 OA
ATOM      6  C   LIG    1       23.770 -21.010   4.538  0.00  0.00    +0.049 A 
ATOM      7  C   LIG    1       23.773 -20.207   3.415  0.00  0.00    +0.014 A 
ATOM      8  C   LIG    1       23.191 -18.941   3.535  0.00  0.00    +0.001 A 
ATOM      9  C   LIG    1       22.627 -18.517   4.756  0.00  0.00    +0.001 A 
ATOM     10  C   LIG    1       22.635 -19.351   5.878  0.00  0.00    +0.014 A 
ATOM     11  C   LIG    1       23.218 -20.593   5.735  0.00  0.00    +0.049 A 
ENDROOT
BRANCH   3  12
ATOM     12  C   LIG    1       24.314 -24.004   6.597  0.00  0.00    +0.171 C 
ATOM     13  C   LIG    1       25.804 -24.123   6.934  0.00  0.00    +0.240 C 
ATOM     14  O   LIG    1       26.526 -23.163   7.193  0.00  0.00    -0.273 OA
ATOM     15  N   LIG    1       26.295 -25.407   7.024  0.00  0.00    -0.255 N 
ATOM     16  H   LIG    1       27.269 -25.492   7.280  0.00  0.00    +0.158 HD
ATOM     17  C   LIG    1       25.633 -26.585   6.772  0.00  0.00    +0.219 C 
ATOM     18  O   LIG    1       26.191 -27.667   6.921  0.00  0.00    -0.275 OA
ATOM     19  C   LIG    1       24.176 -26.475   6.388  0.00  0.00    +0.098 C 
ATOM     20  C   LIG    1       23.883 -25.154   5.691  0.00  0.00    +0.042 C 
ENDBRANCH   3  12
TORSDOF 1
ENDMDL
