MODEL 1
REMARK VINA RESULT:      -7.3      0.000      0.000
REMARK  Name = *****
REMARK                            x       y       z     vdW  Elec       q    Type
REMARK                         _______ _______ _______ _____ _____    ______ ____
ROOT
ATOM      1  C   LIG    1       30.512 -19.623   7.112  0.00  0.00    +0.141 A 
ATOM      2  C   LIG    1       29.874 -20.813   7.514  0.00  0.00    +0.068 A 
ATOM      3  C   LIG    1       28.573 -21.068   7.086  0.00  0.00    +0.041 A 
ATOM      4  C   LIG    1       27.928 -20.199   6.194  0.00  0.00    +0.061 A 
ATOM      5  C   LIG    1       28.587 -19.047   5.757  0.00  0.00    +0.019 A 
ATOM      6  C   LIG    1       29.871 -18.755   6.219  0.00  0.00    +0.048 A 
ENDROOT
BRANCH   2   7
ATOM      7  N   LIG    1       30.431 -21.638   8.510  0.00  0.00    -0.355 N 
ATOM      8  H   LIG    1       29.714 -22.211   8.950  0.00  0.00    +0.142 HD
ATOM      9  H   LIG    1       31.013 -21.143   9.177  0.00  0.00    +0.142 HD
ENDBRANCH   2   7
BRANCH   4  10
ATOM     10  C   LIG    1       26.555 -20.463   5.726  0.00  0.00    +0.339 C 
ATOM     11  O   LIG    1       26.080 -19.986   4.701  0.00  0.00    -0.245 OA
BRANCH  10  12
ATOM     12  O   LIG    1       25.937 -21.303   6.581  0.00  0.00    -0.460 OA
BRANCH  12  13
ATOM     13  C   LIG    1       25.213 -20.696   7.655  0.00  0.00    +0.247 C 
BRANCH  13  14
ATOM     14  C   LIG    1       23.706 -20.926   7.462  0.00  0.00    +0.125 C 
BRANCH  14  15
ATOM     15  N   LIG    1       23.344 -21.789   6.331  0.00  0.00    -0.300 NA
BRANCH  15  16
ATOM     16  C   LIG    1       22.508 -21.137   5.310  0.00  0.00    +0.081 C 
ATOM     17  C   LIG    1       22.586 -19.615   5.199  0.00  0.00    +0.020 C 
ENDBRANCH  15  16
BRANCH  15  18
ATOM     18  C   LIG    1       22.785 -23.078   6.773  0.00  0.00    +0.081 C 
ATOM     19  C   LIG    1       23.723 -24.274   6.588  0.00  0.00    +0.020 C 
ENDBRANCH  15  18
ENDBRANCH  14  15
ENDBRANCH  13  14
ENDBRANCH  12  13
ENDBRANCH  10  12
ENDBRANCH   4  10
BRANCH   1  20
ATOM     20  O   LIG    1       31.767 -19.431   7.638  0.00  0.00    -0.490 OA
BRANCH  20  21
ATOM     21  C   LIG    1       31.989 -18.212   8.343  0.00  0.00    +0.229 C 
BRANCH  21  23
ATOM     22  C   LIG    1       30.378 -17.079   9.905  0.00  0.00    +0.007 C 
ATOM     23  C   LIG    1       31.257 -18.296   9.678  0.00  0.00    +0.037 C 
ENDBRANCH  21  23
ENDBRANCH  20  21
ENDBRANCH   1  20
TORSDOF 11
ENDMDL
MODEL 2
REMARK VINA RESULT:      -7.3      1.092      2.251
REMARK  Name = *****
REMARK                            x       y       z     vdW  Elec       q    Type
REMARK                         _______ _______ _______ _____ _____    ______ ____
ROOT
ATOM      1  C   LIG    1       30.905 -19.277   7.818  0.00  0.00    +0.141 A 
ATOM      2  C   LIG    1       30.688 -20.578   8.313  0.00  0.00    +0.068 A 
ATOM      3  C   LIG    1       29.474 -21.211   8.057  0.00  0.00    +0.041 A 
ATOM      4  C   LIG    1       28.507 -20.605   7.243  0.00  0.00    +0.061 A 
ATOM      5  C   LIG    1       28.751 -19.337   6.710  0.00  0.00    +0.019 A 
ATOM      6  C   LIG    1       29.942 -18.671   7.001  0.00  0.00    +0.048 A 
ENDROOT
BRANCH   2   7
ATOM      7  N   LIG    1       31.572 -21.161   9.241  0.00  0.00    -0.355 N 
ATOM      8  H   LIG    1       32.445 -21.431   8.791  0.00  0.00    +0.142 HD
ATOM      9  H   LIG    1       31.158 -21.906   9.791  0.00  0.00    +0.142 HD
ENDBRANCH   2   7
BRANCH   4  10
ATOM     10  C   LIG    1       27.222 -21.270   6.956  0.00  0.00    +0.339 C 
ATOM     11  O   LIG    1       27.011 -22.462   7.157  0.00  0.00    -0.245 OA
BRANCH  10  12
ATOM     12  O   LIG    1       26.344 -20.372   6.467  0.00  0.00    -0.460 OA
BRANCH  12  13
ATOM     13  C   LIG    1       25.928 -20.564   5.112  0.00  0.00    +0.247 C 
BRANCH  13  14
ATOM     14  C   LIG    1       24.663 -21.436   5.076  0.00  0.00    +0.125 C 
BRANCH  14  15
ATOM     15  N   LIG    1       23.573 -20.993   5.954  0.00  0.00    -0.300 NA
BRANCH  15  16
ATOM     16  C   LIG    1       23.245 -21.934   7.038  0.00  0.00    +0.081 C 
ATOM     17  C   LIG    1       23.330 -23.428   6.728  0.00  0.00    +0.020 C 
ENDBRANCH  15  16
BRANCH  15  18
ATOM     18  C   LIG    1       22.381 -20.577   5.195  0.00  0.00    +0.081 C 
ATOM     19  C   LIG    1       22.401 -19.118   4.732  0.00  0.00    +0.020 C 
ENDBRANCH  15  18
ENDBRANCH  14  15
ENDBRANCH  13  14
ENDBRANCH  12  13
ENDBRANCH  10  12
ENDBRANCH   4  10
BRANCH   1  20
ATOM     20  O   LIG    1       32.106 -18.711   8.177  0.00  0.00    -0.490 OA
BRANCH  20  21
ATOM     21  C   LIG    1       32.053 -17.426   8.792  0.00  0.00    +0.229 C 
BRANCH  21  23
ATOM     22  C   LIG    1       30.394 -17.296  10.676  0.00  0.00    +0.007 C 
ATOM     23  C   LIG    1       31.823 -17.625  10.286  0.00  0.00    +0.037 C 
ENDBRANCH  21  23
ENDBRANCH  20  21
ENDBRANCH   1  20
TORSDOF 11
ENDMDL
MODEL 3
REMARK VINA RESULT:      -7.2      2.338      8.078
REMARK  Name = *****
REMARK                            x       y       z     vdW  Elec       q    Type
REMARK                         _______ _______ _______ _____ _____    ______ ____
ROOT
ATOM      1  C   LIG    1       24.313 -24.460   6.596  0.00  0.00    +0.141 A 
ATOM      2  C   LIG    1       23.502 -23.327   6.799  0.00  0.00    +0.068 A 
ATOM      3  C   LIG    1       24.060 -22.180   7.361  0.00  0.00    +0.041 A 
ATOM      4  C   LIG    1       25.432 -22.114   7.642  0.00  0.00    +0.061 A 
ATOM      5  C   LIG    1       26.242 -23.224   7.386  0.00  0.00    +0.019 A 
ATOM      6  C   LIG    1       25.685 -24.395   6.873  0.00  0.00    +0.048 A 
ENDROOT
BRANCH   2   7
ATOM      7  N   LIG    1       22.103 -23.397   6.658  0.00  0.00    -0.355 N 
ATOM      8  H   LIG    1       21.848 -23.816   5.766  0.00  0.00    +0.142 HD
ATOM      9  H   LIG    1       21.626 -22.520   6.839  0.00  0.00    +0.142 HD
ENDBRANCH   2   7
BRANCH   4  10
ATOM     10  C   LIG    1       26.036 -20.903   8.226  0.00  0.00    +0.339 C 
ATOM     11  O   LIG    1       25.825 -20.519   9.372  0.00  0.00    -0.245 OA
BRANCH  10  12
ATOM     12  O   LIG    1       26.846 -20.316   7.322  0.00  0.00    -0.460 OA
BRANCH  12  13
ATOM     13  C   LIG    1       28.128 -19.896   7.797  0.00  0.00    +0.247 C 
BRANCH  13  14
ATOM     14  C   LIG    1       29.235 -20.606   7.003  0.00  0.00    +0.125 C 
BRANCH  14  15
ATOM     15  N   LIG    1       30.601 -20.376   7.490  0.00  0.00    -0.300 NA
BRANCH  15  16
ATOM     16  C   LIG    1       30.821 -20.765   8.893  0.00  0.00    +0.081 C 
ATOM     17  C   LIG    1       31.285 -22.195   9.165  0.00  0.00    +0.020 C 
ENDBRANCH  15  16
BRANCH  15  18
ATOM     18  C   LIG    1       31.068 -19.008   7.209  0.00  0.00    +0.081 C 
ATOM     19  C   LIG    1       31.456 -18.202   8.452  0.00  0.00    +0.020 C 
ENDBRANCH  15  18
ENDBRANCH  14  15
ENDBRANCH  13  14
ENDBRANCH  12  13
ENDBRANCH  10  12
ENDBRANCH   4  10
BRANCH   1  20
ATOM     20  O   LIG    1       23.659 -25.561   6.098  0.00  0.00    -0.490 OA
BRANCH  20  21
ATOM     21  C   LIG    1       24.463 -26.560   5.475  0.00  0.00    +0.229 C 
BRANCH  21  23
ATOM     22  C   LIG    1       24.119 -29.028   5.800  0.00  0.00    +0.007 C 
ATOM     23  C   LIG    1       24.591 -27.735   6.438  0.00  0.00    +0.037 C 
ENDBRANCH  21  23
ENDBRANCH  20  21
ENDBRANCH   1  20
TORSDOF 11
ENDMDL
MODEL 4
REMARK VINA RESULT:      -7.1      2.289      8.174
REMARK  Name = *****
REMARK                            x       y       z     vdW  Elec       q    Type
REMARK                         _______ _______ _______ _____ _____    ______ ____
ROOT
ATOM      1  C   LIG    1       25.866 -20.871   6.553  0.00  0.00    +0.141 A 
ATOM      2  C   LIG    1       26.708 -20.365   5.543  0.00  0.00    +0.068 A 
ATOM      3  C   LIG    1       27.941 -19.820   5.892  0.00  0.00    +0.041 A 
ATOM      4  C   LIG    1       28.388 -19.850   7.221  0.00  0.00    +0.061 A 
ATOM      5  C   LIG    1       27.570 -20.403   8.210  0.00  0.00    +0.019 A 
ATOM      6  C   LIG    1       26.312 -20.905   7.880  0.00  0.00    +0.048 A 
ENDROOT
BRANCH   2   7
ATOM      7  N   LIG    1       26.243 -20.194   4.224  0.00  0.00    -0.355 N 
ATOM      8  H   LIG    1       27.012 -20.242   3.559  0.00  0.00    +0.142 HD
ATOM      9  H   LIG    1       25.655 -19.377   4.098  0.00  0.00    +0.142 HD
ENDBRANCH   2   7
BRANCH   4  10
ATOM     10  C   LIG    1       29.696 -19.286   7.602  0.00  0.00    +0.339 C 
ATOM     11  O   LIG    1       30.670 -19.258   6.857  0.00  0.00    -0.245 OA
BRANCH  10  12
ATOM     12  O   LIG    1       29.636 -18.808   8.861  0.00  0.00    -0.460 OA
BRANCH  12  13
ATOM     13  C   LIG    1       30.886 -18.651   9.539  0.00  0.00    +0.247 C 
BRANCH  13  14
ATOM     14  C   LIG    1       30.694 -17.773  10.786  0.00  0.00    +0.125 C 
BRANCH  14  15
ATOM     15  N   LIG    1       31.930 -17.237  11.370  0.00  0.00    -0.300 NA
BRANCH  15  16
ATOM     16  C   LIG    1       31.723 -16.141  12.331  0.00  0.00    +0.081 C 
ATOM     17  C   LIG    1       32.533 -16.174  13.626  0.00  0.00    +0.020 C 
ENDBRANCH  15  16
BRANCH  15  18
ATOM     18  C   LIG    1       32.929 -16.898  10.342  0.00  0.00    +0.081 C 
ATOM     19  C   LIG    1       32.944 -15.423   9.933  0.00  0.00    +0.020 C 
ENDBRANCH  15  18
ENDBRANCH  14  15
ENDBRANCH  13  14
ENDBRANCH  12  13
ENDBRANCH  10  12
ENDBRANCH   4  10
BRANCH   1  20
ATOM     20  O   LIG    1       24.645 -21.327   6.117  0.00  0.00    -0.490 OA
BRANCH  20  21
ATOM     21  C   LIG    1       23.514 -20.506   6.400  0.00  0.00    +0.229 C 
BRANCH  21  23
ATOM     22  C   LIG    1       22.350 -18.892   4.864  0.00  0.00    +0.007 C 
ATOM     23  C   LIG    1       22.711 -20.345   5.113  0.00  0.00    +0.037 C 
ENDBRANCH  21  23
ENDBRANCH  20  21
ENDBRANCH   1  20
TORSDOF 11
ENDMDL
MODEL 5
REMARK VINA RESULT:      -7.0      2.138      7.762
REMARK  Name = *****
REMARK                            x       y       z     vdW  Elec       q    Type
REMARK                         _______ _______ _______ _____ _____    ______ ____
ROOT
ATOM      1  C   LIG    1       24.976 -20.703   6.159  0.00  0.00    +0.141 A 
ATOM      2  C   LIG    1       26.075 -20.393   5.334  0.00  0.00    +0.068 A 
ATOM      3  C   LIG    1       27.329 -20.201   5.911  0.00  0.00    +0.041 A 
ATOM      4  C   LIG    1       27.524 -20.400   7.285  0.00  0.00    +0.061 A 
ATOM      5  C   LIG    1       26.440 -20.761   8.090  0.00  0.00    +0.019 A 
ATOM      6  C   LIG    1       25.170 -20.905   7.532  0.00  0.00    +0.048 A 
ENDROOT
BRANCH   2   7
ATOM      7  N   LIG    1       25.896 -20.054   3.979  0.00  0.00    -0.355 N 
ATOM      8  H   LIG    1       25.115 -19.410   3.866  0.00  0.00    +0.142 HD
ATOM      9  H   LIG    1       25.848 -20.854   3.358  0.00  0.00    +0.142 HD
ENDBRANCH   2   7
BRANCH   4  10
ATOM     10  C   LIG    1       28.848 -20.211   7.905  0.00  0.00    +0.339 C 
ATOM     11  O   LIG    1       29.403 -21.055   8.600  0.00  0.00    -0.245 OA
BRANCH  10  12
ATOM     12  O   LIG    1       29.336 -18.997   7.576  0.00  0.00    -0.460 OA
BRANCH  12  13
ATOM     13  C   LIG    1       30.717 -18.947   7.210  0.00  0.00    +0.247 C 
BRANCH  13  14
ATOM     14  C   LIG    1       31.573 -18.646   8.450  0.00  0.00    +0.125 C 
BRANCH  14  15
ATOM     15  N   LIG    1       31.622 -17.233   8.848  0.00  0.00    -0.300 NA
BRANCH  15  16
ATOM     16  C   LIG    1       32.879 -16.828   9.499  0.00  0.00    +0.081 C 
ATOM     17  C   LIG    1       33.001 -15.375   9.959  0.00  0.00    +0.020 C 
ENDBRANCH  15  16
BRANCH  15  18
ATOM     18  C   LIG    1       30.436 -16.833   9.624  0.00  0.00    +0.081 C 
ATOM     19  C   LIG    1       30.286 -17.548  10.970  0.00  0.00    +0.020 C 
ENDBRANCH  15  18
ENDBRANCH  14  15
ENDBRANCH  13  14
ENDBRANCH  12  13
ENDBRANCH  10  12
ENDBRANCH   4  10
BRANCH   1  20
ATOM     20  O   LIG    1       23.771 -20.808   5.507  0.00  0.00    -0.490 OA
BRANCH  20  21
ATOM     21  C   LIG    1       22.806 -19.792   5.770  0.00  0.00    +0.229 C 
BRANCH  21  23
ATOM     22  C   LIG    1       22.204 -17.636   4.628  0.00  0.00    +0.007 C 
ATOM     23  C   LIG    1       22.450 -19.123   4.448  0.00  0.00    +0.037 C 
ENDBRANCH  21  23
ENDBRANCH  20  21
ENDBRANCH   1  20
TORSDOF 11
ENDMDL
MODEL 6
REMARK VINA RESULT:      -7.0      1.656      2.527
REMARK  Name = *****
REMARK                            x       y       z     vdW  Elec       q    Type
REMARK                         _______ _______ _______ _____ _____    ______ ____
ROOT
ATOM      1  C   LIG    1       30.111 -19.547   7.163  0.00  0.00    +0.141 A 
ATOM      2  C   LIG    1       29.109 -19.176   6.244  0.00  0.00    +0.068 A 
ATOM      3  C   LIG    1       27.946 -19.939   6.158  0.00  0.00    +0.041 A 
ATOM      4  C   LIG    1       27.727 -21.012   7.033  0.00  0.00    +0.061 A 
ATOM      5  C   LIG    1       28.701 -21.341   7.979  0.00  0.00    +0.019 A 
ATOM      6  C   LIG    1       29.892 -20.617   8.040  0.00  0.00    +0.048 A 
ENDROOT
BRANCH   2   7
ATOM      7  N   LIG    1       29.348 -18.195   5.263  0.00  0.00    -0.355 N 
ATOM      8  H   LIG    1       30.346 -18.079   5.100  0.00  0.00    +0.142 HD
ATOM      9  H   LIG    1       28.865 -17.319   5.431  0.00  0.00    +0.142 HD
ENDBRANCH   2   7
BRANCH   4  10
ATOM     10  C   LIG    1       26.495 -21.819   6.959  0.00  0.00    +0.339 C 
ATOM     11  O   LIG    1       26.485 -23.044   6.885  0.00  0.00    -0.245 OA
BRANCH  10  12
ATOM     12  O   LIG    1       25.417 -21.010   7.001  0.00  0.00    -0.460 OA
BRANCH  12  13
ATOM     13  C   LIG    1       24.151 -21.650   7.188  0.00  0.00    +0.247 C 
BRANCH  13  14
ATOM     14  C   LIG    1       23.373 -21.662   5.863  0.00  0.00    +0.125 C 
BRANCH  14  15
ATOM     15  N   LIG    1       23.462 -20.426   5.074  0.00  0.00    -0.300 NA
BRANCH  15  16
ATOM     16  C   LIG    1       22.182 -19.717   4.907  0.00  0.00    +0.081 C 
ATOM     17  C   LIG    1       22.237 -18.249   4.489  0.00  0.00    +0.020 C 
ENDBRANCH  15  16
BRANCH  15  18
ATOM     18  C   LIG    1       24.158 -20.633   3.793  0.00  0.00    +0.081 C 
ATOM     19  C   LIG    1       25.340 -19.689   3.553  0.00  0.00    +0.020 C 
ENDBRANCH  15  18
ENDBRANCH  14  15
ENDBRANCH  13  14
ENDBRANCH  12  13
ENDBRANCH  10  12
ENDBRANCH   4  10
BRANCH   1  20
ATOM     20  O   LIG    1       31.247 -18.774   7.128  0.00  0.00    -0.490 OA
BRANCH  20  21
ATOM     21  C   LIG    1       31.820 -18.415   8.383  0.00  0.00    +0.229 C 
BRANCH  21  23
ATOM     22  C   LIG    1       30.376 -17.594  10.269  0.00  0.00    +0.007 C 
ATOM     23  C   LIG    1       31.030 -17.239   8.946  0.00  0.00    +0.037 C 
ENDBRANCH  21  23
ENDBRANCH  20  21
ENDBRANCH   1  20
TORSDOF 11
ENDMDL
MODEL 7
REMARK VINA RESULT:      -6.8      2.274      4.017
REMARK  Name = *****
REMARK                            x       y       z     vdW  Elec       q    Type
REMARK                         _______ _______ _______ _____ _____    ______ ____
ROOT
ATOM      1  C   LIG    1       27.400 -20.317   7.427  0.00  0.00    +0.141 A 
ATOM      2  C   LIG    1       26.954 -20.216   6.095  0.00  0.00    +0.068 A 
ATOM      3  C   LIG    1       25.615 -20.466   5.803  0.00  0.00    +0.041 A 
ATOM      4  C   LIG    1       24.695 -20.729   6.828  0.00  0.00    +0.061 A 
ATOM      5  C   LIG    1       25.134 -20.774   8.153  0.00  0.00    +0.019 A 
ATOM      6  C   LIG    1       26.482 -20.577   8.453  0.00  0.00    +0.048 A 
ENDROOT
BRANCH   2   7
ATOM      7  N   LIG    1       27.865 -20.089   5.029  0.00  0.00    -0.355 N 
ATOM      8  H   LIG    1       28.052 -20.993   4.600  0.00  0.00    +0.142 HD
ATOM      9  H   LIG    1       28.708 -19.577   5.266  0.00  0.00    +0.142 HD
ENDBRANCH   2   7
BRANCH   4  10
ATOM     10  C   LIG    1       23.273 -20.984   6.532  0.00  0.00    +0.339 C 
ATOM     11  O   LIG    1       22.581 -20.258   5.826  0.00  0.00    -0.245 OA
BRANCH  10  12
ATOM     12  O   LIG    1       22.880 -22.124   7.138  0.00  0.00    -0.460 OA
BRANCH  12  13
ATOM     13  C   LIG    1       22.576 -23.226   6.279  0.00  0.00    +0.247 C 
BRANCH  13  14
ATOM     14  C   LIG    1       23.306 -24.485   6.772  0.00  0.00    +0.125 C 
BRANCH  14  15
ATOM     15  N   LIG    1       24.140 -25.158   5.768  0.00  0.00    -0.300 NA
BRANCH  15  16
ATOM     16  C   LIG    1       24.264 -26.613   5.955  0.00  0.00    +0.081 C 
ATOM     17  C   LIG    1       25.314 -27.347   5.122  0.00  0.00    +0.020 C 
ENDBRANCH  15  16
BRANCH  15  18
ATOM     18  C   LIG    1       25.449 -24.503   5.603  0.00  0.00    +0.081 C 
ATOM     19  C   LIG    1       26.105 -24.056   6.912  0.00  0.00    +0.020 C 
ENDBRANCH  15  18
ENDBRANCH  14  15
ENDBRANCH  13  14
ENDBRANCH  12  13
ENDBRANCH  10  12
ENDBRANCH   4  10
BRANCH   1  20
ATOM     20  O   LIG    1       28.748 -20.117   7.605  0.00  0.00    -0.490 OA
BRANCH  20  21
ATOM     21  C   LIG    1       29.514 -21.240   8.035  0.00  0.00    +0.229 C 
BRANCH  21  23
ATOM     22  C   LIG    1       31.044 -19.252   8.194  0.00  0.00    +0.007 C 
ATOM     23  C   LIG    1       30.908 -20.748   8.409  0.00  0.00    +0.037 C 
ENDBRANCH  21  23
ENDBRANCH  20  21
ENDBRANCH   1  20
TORSDOF 11
ENDMDL
MODEL 8
REMARK VINA RESULT:      -6.8      1.906      7.430
REMARK  Name = *****
REMARK                            x       y       z     vdW  Elec       q    Type
REMARK                         _______ _______ _______ _____ _____    ______ ____
ROOT
ATOM      1  C   LIG    1       24.249 -20.927   5.567  0.00  0.00    +0.141 A 
ATOM      2  C   LIG    1       24.371 -20.979   6.969  0.00  0.00    +0.068 A 
ATOM      3  C   LIG    1       25.605 -20.711   7.557  0.00  0.00    +0.041 A 
ATOM      4  C   LIG    1       26.698 -20.307   6.778  0.00  0.00    +0.061 A 
ATOM      5  C   LIG    1       26.556 -20.205   5.392  0.00  0.00    +0.019 A 
ATOM      6  C   LIG    1       25.340 -20.521   4.786  0.00  0.00    +0.048 A 
ENDROOT
BRANCH   2   7
ATOM      7  N   LIG    1       23.341 -21.508   7.770  0.00  0.00    -0.355 N 
ATOM      8  H   LIG    1       23.405 -22.523   7.821  0.00  0.00    +0.142 HD
ATOM      9  H   LIG    1       22.415 -21.178   7.522  0.00  0.00    +0.142 HD
ENDBRANCH   2   7
BRANCH   4  10
ATOM     10  C   LIG    1       28.006 -20.011   7.390  0.00  0.00    +0.339 C 
ATOM     11  O   LIG    1       28.174 -19.839   8.594  0.00  0.00    -0.245 OA
BRANCH  10  12
ATOM     12  O   LIG    1       28.958 -19.977   6.436  0.00  0.00    -0.460 OA
BRANCH  12  13
ATOM     13  C   LIG    1       29.892 -18.896   6.510  0.00  0.00    +0.247 C 
BRANCH  13  14
ATOM     14  C   LIG    1       31.261 -19.421   6.967  0.00  0.00    +0.125 C 
BRANCH  14  15
ATOM     15  N   LIG    1       31.654 -19.042   8.330  0.00  0.00    -0.300 NA
BRANCH  15  16
ATOM     16  C   LIG    1       31.409 -20.080   9.345  0.00  0.00    +0.081 C 
ATOM     17  C   LIG    1       31.220 -21.516   8.857  0.00  0.00    +0.020 C 
ENDBRANCH  15  16
BRANCH  15  18
ATOM     18  C   LIG    1       31.104 -17.734   8.724  0.00  0.00    +0.081 C 
ATOM     19  C   LIG    1       30.454 -17.710  10.110  0.00  0.00    +0.020 C 
ENDBRANCH  15  18
ENDBRANCH  14  15
ENDBRANCH  13  14
ENDBRANCH  12  13
ENDBRANCH  10  12
ENDBRANCH   4  10
BRANCH   1  20
ATOM     20  O   LIG    1       23.012 -21.270   5.077  0.00  0.00    -0.490 OA
BRANCH  20  21
ATOM     21  C   LIG    1       22.071 -20.213   4.908  0.00  0.00    +0.229 C 
BRANCH  21  23
ATOM     22  C   LIG    1       22.177 -17.723   4.576  0.00  0.00    +0.007 C 
ATOM     23  C   LIG    1       22.772 -19.065   4.189  0.00  0.00    +0.037 C 
ENDBRANCH  21  23
ENDBRANCH  20  21
ENDBRANCH   1  20
TORSDOF 11
ENDMDL
MODEL 9
REMARK VINA RESULT:      -6.6      5.040      8.125
REMARK  Name = *****
REMARK                            x       y       z     vdW  Elec       q    Type
REMARK                         _______ _______ _______ _____ _____    ______ ____
ROOT
ATOM      1  C   LIG    1       24.133 -22.657   7.054  0.00  0.00    +0.141 A 
ATOM      2  C   LIG    1       23.286 -23.738   6.739  0.00  0.00    +0.068 A 
ATOM      3  C   LIG    1       23.846 -24.967   6.396  0.00  0.00    +0.041 A 
ATOM      4  C   LIG    1       25.234 -25.161   6.448  0.00  0.00    +0.061 A 
ATOM      5  C   LIG    1       26.066 -24.100   6.814  0.00  0.00    +0.019 A 
ATOM      6  C   LIG    1       25.520 -22.851   7.108  0.00  0.00    +0.048 A 
ENDROOT
BRANCH   2   7
ATOM      7  N   LIG    1       21.904 -23.548   6.545  0.00  0.00    -0.355 N 
ATOM      8  H   LIG    1       21.535 -24.222   5.878  0.00  0.00    +0.142 HD
ATOM      9  H   LIG    1       21.647 -22.591   6.331  0.00  0.00    +0.142 HD
ENDBRANCH   2   7
BRANCH   4  10
ATOM     10  C   LIG    1       25.838 -26.460   6.098  0.00  0.00    +0.339 C 
ATOM     11  O   LIG    1       26.967 -26.586   5.636  0.00  0.00    -0.245 OA
BRANCH  10  12
ATOM     12  O   LIG    1       24.971 -27.455   6.378  0.00  0.00    -0.460 OA
BRANCH  12  13
ATOM     13  C   LIG    1       24.685 -28.366   5.313  0.00  0.00    +0.247 C 
BRANCH  13  14
ATOM     14  C   LIG    1       25.086 -29.790   5.725  0.00  0.00    +0.125 C 
BRANCH  14  15
ATOM     15  N   LIG    1       24.157 -30.462   6.642  0.00  0.00    -0.300 NA
BRANCH  15  16
ATOM     16  C   LIG    1       24.643 -30.574   8.027  0.00  0.00    +0.081 C 
ATOM     17  C   LIG    1       23.680 -30.186   9.148  0.00  0.00    +0.020 C 
ENDBRANCH  15  16
BRANCH  15  18
ATOM     18  C   LIG    1       23.683 -31.751   6.110  0.00  0.00    +0.081 C 
ATOM     19  C   LIG    1       24.798 -32.731   5.735  0.00  0.00    +0.020 C 
ENDBRANCH  15  18
ENDBRANCH  14  15
ENDBRANCH  13  14
ENDBRANCH  12  13
ENDBRANCH  10  12
ENDBRANCH   4  10
BRANCH   1  20
ATOM     20  O   LIG    1       23.490 -21.471   7.314  0.00  0.00    -0.490 OA
BRANCH  20  21
ATOM     21  C   LIG    1       23.732 -20.396   6.409  0.00  0.00    +0.229 C 
BRANCH  21  23
ATOM     22  C   LIG    1       22.448 -18.990   4.769  0.00  0.00    +0.007 C 
ATOM     23  C   LIG    1       22.595 -20.365   5.394  0.00  0.00    +0.037 C 
ENDBRANCH  21  23
ENDBRANCH  20  21
ENDBRANCH   1  20
TORSDOF 11
ENDMDL
