MODEL 1
REMARK VINA RESULT:      -9.5      0.000      0.000
REMARK  Name = *****
REMARK                            x       y       z     vdW  Elec       q    Type
REMARK                         _______ _______ _______ _____ _____    ______ ____
ROOT
ATOM      1  C   LIG    1       23.402 -20.273   5.542  0.00  0.00    +0.099 A 
ATOM      2  C   LIG    1       24.615 -20.084   4.853  0.00  0.00    +0.137 A 
ATOM      3  N   LIG    1       24.711 -19.121   3.917  0.00  0.00    -0.239 NA
ATOM      4  C   LIG    1       23.644 -18.356   3.601  0.00  0.00    +0.113 A 
ATOM      5  C   LIG    1       22.426 -18.478   4.220  0.00  0.00    +0.021 A 
ATOM      6  C   LIG    1       22.304 -19.437   5.214  0.00  0.00    +0.020 A 
ENDROOT
BRANCH   1   8
ATOM      7  O   LIG    1       23.274 -21.057   7.770  0.00  0.00    -0.245 OA
ATOM      8  C   LIG    1       23.265 -21.304   6.584  0.00  0.00    +0.343 C 
BRANCH   8   9
ATOM      9  O   LIG    1       23.128 -22.522   6.019  0.00  0.00    -0.460 OA
BRANCH   9  10
ATOM     10  C   LIG    1       22.775 -23.601   6.887  0.00  0.00    +0.247 C 
BRANCH  10  11
ATOM     11  C   LIG    1       23.553 -24.868   6.500  0.00  0.00    +0.125 C 
BRANCH  11  12
ATOM     12  N   LIG    1       24.901 -24.593   5.979  0.00  0.00    -0.295 NA
ATOM     13  C   LIG    1       25.947 -25.103   6.895  0.00  0.00    +0.112 C 
ATOM     14  C   LIG    1       26.157 -26.627   6.843  0.00  0.00    +0.175 C 
ATOM     15  O   LIG    1       26.414 -27.079   5.511  0.00  0.00    -0.377 OA
ATOM     16  C   LIG    1       25.358 -26.692   4.627  0.00  0.00    +0.175 C 
ATOM     17  C   LIG    1       25.146 -25.171   4.639  0.00  0.00    +0.112 C 
ENDBRANCH  11  12
ENDBRANCH  10  11
ENDBRANCH   9  10
ENDBRANCH   8   9
ENDBRANCH   1   8
BRANCH   2  18
ATOM     18  N   LIG    1       25.707 -20.976   5.044  0.00  0.00    -0.299 N 
ATOM     19  H   LIG    1       25.518 -21.909   4.684  0.00  0.00    +0.154 HD
BRANCH  18  20
ATOM     20  C   LIG    1       26.780 -20.914   5.964  0.00  0.00    +0.033 A 
ATOM     21  C   LIG    1       27.810 -19.975   5.777  0.00  0.00    +0.035 A 
ATOM     22  C   LIG    1       28.851 -19.824   6.723  0.00  0.00    +0.057 A 
ATOM     23  C   LIG    1       28.851 -20.620   7.876  0.00  0.00    +0.012 A 
ATOM     24  C   LIG    1       27.833 -21.533   8.088  0.00  0.00    +0.002 A 
ATOM     25  C   LIG    1       26.813 -21.662   7.148  0.00  0.00    +0.023 A 
BRANCH  22  26
ATOM     26  C   LIG    1       29.951 -18.814   6.515  0.00  0.00    +0.417 C 
ATOM     27  F   LIG    1       30.060 -17.933   7.546  0.00  0.00    -0.166 F 
ATOM     28  F   LIG    1       29.768 -18.063   5.394  0.00  0.00    -0.166 F 
ATOM     29  F   LIG    1       31.185 -19.380   6.381  0.00  0.00    -0.166 F 
ENDBRANCH  22  26
ENDBRANCH  18  20
ENDBRANCH   2  18
TORSDOF 8
ENDMDL
MODEL 2
REMARK VINA RESULT:      -9.1      1.662      2.252
REMARK  Name = *****
REMARK                            x       y       z     vdW  Elec       q    Type
REMARK                         _______ _______ _______ _____ _____    ______ ____
ROOT
ATOM      1  C   LIG    1       24.222 -20.723   6.229  0.00  0.00    +0.099 A 
ATOM      2  C   LIG    1       25.269 -20.382   5.352  0.00  0.00    +0.137 A 
ATOM      3  N   LIG    1       25.008 -19.667   4.243  0.00  0.00    -0.239 NA
ATOM      4  C   LIG    1       23.743 -19.304   3.936  0.00  0.00    +0.113 A 
ATOM      5  C   LIG    1       22.666 -19.601   4.731  0.00  0.00    +0.021 A 
ATOM      6  C   LIG    1       22.906 -20.306   5.901  0.00  0.00    +0.020 A 
ENDROOT
BRANCH   1   8
ATOM      7  O   LIG    1       25.030 -21.025   8.431  0.00  0.00    -0.245 OA
ATOM      8  C   LIG    1       24.472 -21.489   7.461  0.00  0.00    +0.343 C 
BRANCH   8   9
ATOM      9  O   LIG    1       23.990 -22.744   7.336  0.00  0.00    -0.460 OA
BRANCH   9  10
ATOM     10  C   LIG    1       24.914 -23.752   6.920  0.00  0.00    +0.247 C 
BRANCH  10  11
ATOM     11  C   LIG    1       24.158 -24.942   6.310  0.00  0.00    +0.125 C 
BRANCH  11  12
ATOM     12  N   LIG    1       25.011 -25.833   5.510  0.00  0.00    -0.295 NA
ATOM     13  C   LIG    1       26.268 -26.160   6.221  0.00  0.00    +0.112 C 
ATOM     14  C   LIG    1       26.116 -27.198   7.348  0.00  0.00    +0.175 C 
ATOM     15  O   LIG    1       25.496 -28.398   6.879  0.00  0.00    -0.377 OA
ATOM     16  C   LIG    1       24.224 -28.119   6.285  0.00  0.00    +0.175 C 
ATOM     17  C   LIG    1       24.353 -27.105   5.138  0.00  0.00    +0.112 C 
ENDBRANCH  11  12
ENDBRANCH  10  11
ENDBRANCH   9  10
ENDBRANCH   8   9
ENDBRANCH   1   8
BRANCH   2  18
ATOM     18  N   LIG    1       26.584 -20.885   5.559  0.00  0.00    -0.299 N 
ATOM     19  H   LIG    1       26.599 -21.892   5.707  0.00  0.00    +0.154 HD
BRANCH  18  20
ATOM     20  C   LIG    1       27.755 -20.218   5.988  0.00  0.00    +0.033 A 
ATOM     21  C   LIG    1       28.533 -20.765   7.024  0.00  0.00    +0.035 A 
ATOM     22  C   LIG    1       29.756 -20.174   7.420  0.00  0.00    +0.057 A 
ATOM     23  C   LIG    1       30.208 -19.024   6.758  0.00  0.00    +0.012 A 
ATOM     24  C   LIG    1       29.467 -18.485   5.721  0.00  0.00    +0.002 A 
ATOM     25  C   LIG    1       28.269 -19.086   5.342  0.00  0.00    +0.023 A 
BRANCH  22  26
ATOM     26  C   LIG    1       30.584 -20.768   8.531  0.00  0.00    +0.417 C 
ATOM     27  F   LIG    1       31.807 -21.190   8.110  0.00  0.00    -0.166 F 
ATOM     28  F   LIG    1       29.989 -21.849   9.107  0.00  0.00    -0.166 F 
ATOM     29  F   LIG    1       30.826 -19.894   9.550  0.00  0.00    -0.166 F 
ENDBRANCH  22  26
ENDBRANCH  18  20
ENDBRANCH   2  18
TORSDOF 8
ENDMDL
MODEL 3
REMARK VINA RESULT:      -9.0      2.942      6.283
REMARK  Name = *****
REMARK                            x       y       z     vdW  Elec       q    Type
REMARK                         _______ _______ _______ _____ _____    ______ ____
ROOT
ATOM      1  C   LIG    1       25.378 -23.211   7.386  0.00  0.00    +0.099 A 
ATOM      2  C   LIG    1       24.058 -23.024   6.934  0.00  0.00    +0.137 A 
ATOM      3  N   LIG    1       23.406 -24.037   6.334  0.00  0.00    -0.239 NA
ATOM      4  C   LIG    1       24.015 -25.223   6.123  0.00  0.00    +0.113 A 
ATOM      5  C   LIG    1       25.300 -25.487   6.526  0.00  0.00    +0.021 A 
ATOM      6  C   LIG    1       25.987 -24.475   7.180  0.00  0.00    +0.020 A 
ENDROOT
BRANCH   1   8
ATOM      7  O   LIG    1       25.696 -21.546   9.035  0.00  0.00    -0.245 OA
ATOM      8  C   LIG    1       26.116 -22.132   8.062  0.00  0.00    +0.343 C 
BRANCH   8   9
ATOM      9  O   LIG    1       27.297 -21.916   7.444  0.00  0.00    -0.460 OA
BRANCH   9  10
ATOM     10  C   LIG    1       27.540 -20.594   6.957  0.00  0.00    +0.247 C 
BRANCH  10  11
ATOM     11  C   LIG    1       28.704 -19.953   7.727  0.00  0.00    +0.125 C 
BRANCH  11  12
ATOM     12  N   LIG    1       30.028 -20.405   7.275  0.00  0.00    -0.295 NA
ATOM     13  C   LIG    1       30.926 -19.259   7.004  0.00  0.00    +0.112 C 
ATOM     14  C   LIG    1       31.504 -18.586   8.262  0.00  0.00    +0.175 C 
ATOM     15  O   LIG    1       32.163 -19.531   9.109  0.00  0.00    -0.377 OA
ATOM     16  C   LIG    1       31.278 -20.594   9.476  0.00  0.00    +0.175 C 
ATOM     17  C   LIG    1       30.708 -21.300   8.236  0.00  0.00    +0.112 C 
ENDBRANCH  11  12
ENDBRANCH  10  11
ENDBRANCH   9  10
ENDBRANCH   8   9
ENDBRANCH   1   8
BRANCH   2  18
ATOM     18  N   LIG    1       23.443 -21.742   6.992  0.00  0.00    -0.299 N 
ATOM     19  H   LIG    1       22.749 -21.674   7.734  0.00  0.00    +0.154 HD
BRANCH  18  20
ATOM     20  C   LIG    1       23.330 -20.743   5.998  0.00  0.00    +0.033 A 
ATOM     21  C   LIG    1       24.482 -20.278   5.337  0.00  0.00    +0.035 A 
ATOM     22  C   LIG    1       24.398 -19.346   4.276  0.00  0.00    +0.057 A 
ATOM     23  C   LIG    1       23.140 -18.883   3.868  0.00  0.00    +0.012 A 
ATOM     24  C   LIG    1       21.995 -19.346   4.491  0.00  0.00    +0.002 A 
ATOM     25  C   LIG    1       22.098 -20.270   5.528  0.00  0.00    +0.023 A 
BRANCH  22  26
ATOM     26  C   LIG    1       25.638 -18.854   3.574  0.00  0.00    +0.417 C 
ATOM     27  F   LIG    1       25.543 -17.553   3.186  0.00  0.00    -0.166 F 
ATOM     28  F   LIG    1       25.919 -19.565   2.447  0.00  0.00    -0.166 F 
ATOM     29  F   LIG    1       26.761 -18.928   4.345  0.00  0.00    -0.166 F 
ENDBRANCH  22  26
ENDBRANCH  18  20
ENDBRANCH   2  18
TORSDOF 8
ENDMDL
MODEL 4
REMARK VINA RESULT:      -8.9      3.599      6.737
REMARK  Name = *****
REMARK                            x       y       z     vdW  Elec       q    Type
REMARK                         _______ _______ _______ _____ _____    ______ ____
ROOT
ATOM      1  C   LIG    1       25.305 -23.488   7.241  0.00  0.00    +0.099 A 
ATOM      2  C   LIG    1       24.059 -23.452   6.587  0.00  0.00    +0.137 A 
ATOM      3  N   LIG    1       23.551 -24.576   6.050  0.00  0.00    -0.239 NA
ATOM      4  C   LIG    1       24.241 -25.736   6.094  0.00  0.00    +0.113 A 
ATOM      5  C   LIG    1       25.463 -25.857   6.705  0.00  0.00    +0.021 A 
ATOM      6  C   LIG    1       25.998 -24.725   7.300  0.00  0.00    +0.020 A 
ENDROOT
BRANCH   1   8
ATOM      7  O   LIG    1       25.305 -21.614   8.684  0.00  0.00    -0.245 OA
ATOM      8  C   LIG    1       25.884 -22.282   7.855  0.00  0.00    +0.343 C 
BRANCH   8   9
ATOM      9  O   LIG    1       27.122 -22.057   7.365  0.00  0.00    -0.460 OA
BRANCH   9  10
ATOM     10  C   LIG    1       27.394 -20.740   6.878  0.00  0.00    +0.247 C 
BRANCH  10  11
ATOM     11  C   LIG    1       28.544 -20.110   7.676  0.00  0.00    +0.125 C 
BRANCH  11  12
ATOM     12  N   LIG    1       29.877 -20.523   7.213  0.00  0.00    -0.295 NA
ATOM     13  C   LIG    1       30.733 -19.351   6.917  0.00  0.00    +0.112 C 
ATOM     14  C   LIG    1       31.303 -18.642   8.159  0.00  0.00    +0.175 C 
ATOM     15  O   LIG    1       32.003 -19.553   9.010  0.00  0.00    -0.377 OA
ATOM     16  C   LIG    1       31.159 -20.640   9.401  0.00  0.00    +0.175 C 
ATOM     17  C   LIG    1       30.598 -21.382   8.178  0.00  0.00    +0.112 C 
ENDBRANCH  11  12
ENDBRANCH  10  11
ENDBRANCH   9  10
ENDBRANCH   8   9
ENDBRANCH   1   8
BRANCH   2  18
ATOM     18  N   LIG    1       23.382 -22.217   6.380  0.00  0.00    -0.299 N 
ATOM     19  H   LIG    1       22.455 -22.203   6.802  0.00  0.00    +0.154 HD
BRANCH  18  20
ATOM     20  C   LIG    1       23.586 -21.224   5.395  0.00  0.00    +0.033 A 
ATOM     21  C   LIG    1       22.804 -20.054   5.405  0.00  0.00    +0.035 A 
ATOM     22  C   LIG    1       23.040 -19.001   4.491  0.00  0.00    +0.057 A 
ATOM     23  C   LIG    1       24.081 -19.119   3.562  0.00  0.00    +0.012 A 
ATOM     24  C   LIG    1       24.876 -20.252   3.552  0.00  0.00    +0.002 A 
ATOM     25  C   LIG    1       24.632 -21.275   4.465  0.00  0.00    +0.023 A 
BRANCH  22  26
ATOM     26  C   LIG    1       22.196 -17.751   4.510  0.00  0.00    +0.417 C 
ATOM     27  F   LIG    1       21.023 -17.897   3.837  0.00  0.00    -0.166 F 
ATOM     28  F   LIG    1       22.826 -16.684   3.945  0.00  0.00    -0.166 F 
ATOM     29  F   LIG    1       21.852 -17.351   5.769  0.00  0.00    -0.166 F 
ENDBRANCH  22  26
ENDBRANCH  18  20
ENDBRANCH   2  18
TORSDOF 8
ENDMDL
MODEL 5
REMARK VINA RESULT:      -8.7      4.958      8.281
REMARK  Name = *****
REMARK                            x       y       z     vdW  Elec       q    Type
REMARK                         _______ _______ _______ _____ _____    ______ ____
ROOT
ATOM      1  C   LIG    1       29.063 -20.131   6.925  0.00  0.00    +0.099 A 
ATOM      2  C   LIG    1       27.765 -20.566   6.594  0.00  0.00    +0.137 A 
ATOM      3  N   LIG    1       27.091 -19.966   5.596  0.00  0.00    -0.239 NA
ATOM      4  C   LIG    1       27.629 -18.922   4.929  0.00  0.00    +0.113 A 
ATOM      5  C   LIG    1       28.883 -18.432   5.191  0.00  0.00    +0.021 A 
ATOM      6  C   LIG    1       29.618 -19.051   6.191  0.00  0.00    +0.020 A 
ENDROOT
BRANCH   1   8
ATOM      7  O   LIG    1       29.373 -21.608   8.746  0.00  0.00    -0.245 OA
ATOM      8  C   LIG    1       29.837 -20.774   7.999  0.00  0.00    +0.343 C 
BRANCH   8   9
ATOM      9  O   LIG    1       31.102 -20.302   8.010  0.00  0.00    -0.460 OA
BRANCH   9  10
ATOM     10  C   LIG    1       31.474 -19.477   9.117  0.00  0.00    +0.247 C 
BRANCH  10  11
ATOM     11  C   LIG    1       32.183 -18.210   8.616  0.00  0.00    +0.125 C 
BRANCH  11  12
ATOM     12  N   LIG    1       31.463 -16.968   8.933  0.00  0.00    -0.295 NA
ATOM     13  C   LIG    1       30.383 -17.207   9.919  0.00  0.00    +0.112 C 
ATOM     14  C   LIG    1       30.867 -17.383  11.369  0.00  0.00    +0.175 C 
ATOM     15  O   LIG    1       31.678 -16.284  11.792  0.00  0.00    -0.377 OA
ATOM     16  C   LIG    1       32.793 -16.103  10.914  0.00  0.00    +0.175 C 
ATOM     17  C   LIG    1       32.336 -15.897   9.462  0.00  0.00    +0.112 C 
ENDBRANCH  11  12
ENDBRANCH  10  11
ENDBRANCH   9  10
ENDBRANCH   8   9
ENDBRANCH   1   8
BRANCH   2  18
ATOM     18  N   LIG    1       27.107 -21.553   7.381  0.00  0.00    -0.299 N 
ATOM     19  H   LIG    1       27.717 -21.963   8.085  0.00  0.00    +0.154 HD
BRANCH  18  20
ATOM     20  C   LIG    1       25.950 -22.316   7.098  0.00  0.00    +0.033 A 
ATOM     21  C   LIG    1       26.072 -23.680   6.777  0.00  0.00    +0.035 A 
ATOM     22  C   LIG    1       24.934 -24.496   6.575  0.00  0.00    +0.057 A 
ATOM     23  C   LIG    1       23.657 -23.935   6.709  0.00  0.00    +0.012 A 
ATOM     24  C   LIG    1       23.517 -22.601   7.047  0.00  0.00    +0.002 A 
ATOM     25  C   LIG    1       24.650 -21.817   7.249  0.00  0.00    +0.023 A 
BRANCH  22  26
ATOM     26  C   LIG    1       25.075 -25.957   6.231  0.00  0.00    +0.417 C 
ATOM     27  F   LIG    1       25.426 -26.161   4.933  0.00  0.00    -0.166 F 
ATOM     28  F   LIG    1       23.922 -26.655   6.425  0.00  0.00    -0.166 F 
ATOM     29  F   LIG    1       26.022 -26.598   6.975  0.00  0.00    -0.166 F 
ENDBRANCH  22  26
ENDBRANCH  18  20
ENDBRANCH   2  18
TORSDOF 8
ENDMDL
MODEL 6
REMARK VINA RESULT:      -8.5      3.200      5.236
REMARK  Name = *****
REMARK                            x       y       z     vdW  Elec       q    Type
REMARK                         _______ _______ _______ _____ _____    ______ ____
ROOT
ATOM      1  C   LIG    1       28.160 -20.197   7.526  0.00  0.00    +0.099 A 
ATOM      2  C   LIG    1       28.340 -19.946   6.153  0.00  0.00    +0.137 A 
ATOM      3  N   LIG    1       29.330 -19.133   5.744  0.00  0.00    -0.239 NA
ATOM      4  C   LIG    1       30.135 -18.519   6.638  0.00  0.00    +0.113 A 
ATOM      5  C   LIG    1       30.025 -18.703   7.993  0.00  0.00    +0.021 A 
ATOM      6  C   LIG    1       29.036 -19.564   8.445  0.00  0.00    +0.020 A 
ENDROOT
BRANCH   1   8
ATOM      7  O   LIG    1       26.354 -20.813   8.923  0.00  0.00    -0.245 OA
ATOM      8  C   LIG    1       27.099 -21.094   8.010  0.00  0.00    +0.343 C 
BRANCH   8   9
ATOM      9  O   LIG    1       27.089 -22.237   7.290  0.00  0.00    -0.460 OA
BRANCH   9  10
ATOM     10  C   LIG    1       25.822 -22.872   7.104  0.00  0.00    +0.247 C 
BRANCH  10  11
ATOM     11  C   LIG    1       25.973 -24.396   7.231  0.00  0.00    +0.125 C 
BRANCH  11  12
ATOM     12  N   LIG    1       26.219 -25.072   5.948  0.00  0.00    -0.295 NA
ATOM     13  C   LIG    1       26.623 -26.482   6.150  0.00  0.00    +0.112 C 
ATOM     14  C   LIG    1       25.470 -27.434   6.515  0.00  0.00    +0.175 C 
ATOM     15  O   LIG    1       24.407 -27.364   5.560  0.00  0.00    -0.377 OA
ATOM     16  C   LIG    1       23.924 -26.024   5.429  0.00  0.00    +0.175 C 
ATOM     17  C   LIG    1       25.052 -25.057   5.039  0.00  0.00    +0.112 C 
ENDBRANCH  11  12
ENDBRANCH  10  11
ENDBRANCH   9  10
ENDBRANCH   8   9
ENDBRANCH   1   8
BRANCH   2  18
ATOM     18  N   LIG    1       27.412 -20.445   5.195  0.00  0.00    -0.299 N 
ATOM     19  H   LIG    1       27.793 -21.212   4.644  0.00  0.00    +0.154 HD
BRANCH  18  20
ATOM     20  C   LIG    1       26.277 -19.826   4.623  0.00  0.00    +0.033 A 
ATOM     21  C   LIG    1       24.987 -20.217   5.027  0.00  0.00    +0.035 A 
ATOM     22  C   LIG    1       23.831 -19.559   4.543  0.00  0.00    +0.057 A 
ATOM     23  C   LIG    1       23.975 -18.489   3.650  0.00  0.00    +0.012 A 
ATOM     24  C   LIG    1       25.236 -18.076   3.260  0.00  0.00    +0.002 A 
ATOM     25  C   LIG    1       26.361 -18.731   3.753  0.00  0.00    +0.023 A 
BRANCH  22  26
ATOM     26  C   LIG    1       22.453 -19.985   4.982  0.00  0.00    +0.417 C 
ATOM     27  F   LIG    1       22.302 -19.967   6.334  0.00  0.00    -0.166 F 
ATOM     28  F   LIG    1       22.144 -21.250   4.584  0.00  0.00    -0.166 F 
ATOM     29  F   LIG    1       21.460 -19.191   4.488  0.00  0.00    -0.166 F 
ENDBRANCH  22  26
ENDBRANCH  18  20
ENDBRANCH   2  18
TORSDOF 8
ENDMDL
MODEL 7
REMARK VINA RESULT:      -8.4      4.735      7.562
REMARK  Name = *****
REMARK                            x       y       z     vdW  Elec       q    Type
REMARK                         _______ _______ _______ _____ _____    ______ ____
ROOT
ATOM      1  C   LIG    1       25.254 -21.791   7.288  0.00  0.00    +0.099 A 
ATOM      2  C   LIG    1       24.886 -23.056   6.794  0.00  0.00    +0.137 A 
ATOM      3  N   LIG    1       23.678 -23.229   6.228  0.00  0.00    -0.239 NA
ATOM      4  C   LIG    1       22.794 -22.211   6.161  0.00  0.00    +0.113 A 
ATOM      5  C   LIG    1       23.070 -20.949   6.623  0.00  0.00    +0.021 A 
ATOM      6  C   LIG    1       24.320 -20.729   7.180  0.00  0.00    +0.020 A 
ENDROOT
BRANCH   1   8
ATOM      7  O   LIG    1       26.735 -21.373   9.084  0.00  0.00    -0.245 OA
ATOM      8  C   LIG    1       26.574 -21.560   7.898  0.00  0.00    +0.343 C 
BRANCH   8   9
ATOM      9  O   LIG    1       27.538 -21.596   6.953  0.00  0.00    -0.460 OA
BRANCH   9  10
ATOM     10  C   LIG    1       27.909 -20.348   6.361  0.00  0.00    +0.247 C 
BRANCH  10  11
ATOM     11  C   LIG    1       29.323 -19.951   6.810  0.00  0.00    +0.125 C 
BRANCH  11  12
ATOM     12  N   LIG    1       29.440 -19.729   8.259  0.00  0.00    -0.295 NA
ATOM     13  C   LIG    1       30.144 -20.851   8.922  0.00  0.00    +0.112 C 
ATOM     14  C   LIG    1       31.671 -20.854   8.725  0.00  0.00    +0.175 C 
ATOM     15  O   LIG    1       32.256 -19.611   9.120  0.00  0.00    -0.377 OA
ATOM     16  C   LIG    1       31.666 -18.519   8.409  0.00  0.00    +0.175 C 
ATOM     17  C   LIG    1       30.144 -18.476   8.611  0.00  0.00    +0.112 C 
ENDBRANCH  11  12
ENDBRANCH  10  11
ENDBRANCH   9  10
ENDBRANCH   8   9
ENDBRANCH   1   8
BRANCH   2  18
ATOM     18  N   LIG    1       25.726 -24.188   6.994  0.00  0.00    -0.299 N 
ATOM     19  H   LIG    1       26.641 -23.936   7.363  0.00  0.00    +0.154 HD
BRANCH  18  20
ATOM     20  C   LIG    1       25.669 -25.475   6.412  0.00  0.00    +0.033 A 
ATOM     21  C   LIG    1       25.515 -26.609   7.231  0.00  0.00    +0.035 A 
ATOM     22  C   LIG    1       25.365 -27.903   6.679  0.00  0.00    +0.057 A 
ATOM     23  C   LIG    1       25.359 -28.058   5.287  0.00  0.00    +0.012 A 
ATOM     24  C   LIG    1       25.486 -26.952   4.465  0.00  0.00    +0.002 A 
ATOM     25  C   LIG    1       25.626 -25.686   5.028  0.00  0.00    +0.023 A 
BRANCH  22  26
ATOM     26  C   LIG    1       25.200 -29.112   7.565  0.00  0.00    +0.417 C 
ATOM     27  F   LIG    1       25.896 -29.011   8.729  0.00  0.00    -0.166 F 
ATOM     28  F   LIG    1       25.624 -30.260   6.969  0.00  0.00    -0.166 F 
ATOM     29  F   LIG    1       23.905 -29.342   7.928  0.00  0.00    -0.166 F 
ENDBRANCH  22  26
ENDBRANCH  18  20
ENDBRANCH   2  18
TORSDOF 8
ENDMDL
MODEL 8
REMARK VINA RESULT:      -8.1      2.559      3.794
REMARK  Name = *****
REMARK                            x       y       z     vdW  Elec       q    Type
REMARK                         _______ _______ _______ _____ _____    ______ ____
ROOT
ATOM      1  C   LIG    1       24.591 -23.496   6.521  0.00  0.00    +0.099 A 
ATOM      2  C   LIG    1       25.327 -22.452   7.112  0.00  0.00    +0.137 A 
ATOM      3  N   LIG    1       24.683 -21.446   7.732  0.00  0.00    -0.239 NA
ATOM      4  C   LIG    1       23.333 -21.404   7.763  0.00  0.00    +0.113 A 
ATOM      5  C   LIG    1       22.542 -22.377   7.207  0.00  0.00    +0.021 A 
ATOM      6  C   LIG    1       23.175 -23.445   6.591  0.00  0.00    +0.020 A 
ENDROOT
BRANCH   1   8
ATOM      7  O   LIG    1       25.178 -24.831   4.659  0.00  0.00    -0.245 OA
ATOM      8  C   LIG    1       25.262 -24.621   5.849  0.00  0.00    +0.343 C 
BRANCH   8   9
ATOM      9  O   LIG    1       25.962 -25.349   6.745  0.00  0.00    -0.460 OA
BRANCH   9  10
ATOM     10  C   LIG    1       26.394 -26.647   6.327  0.00  0.00    +0.247 C 
BRANCH  10  11
ATOM     11  C   LIG    1       25.915 -27.710   7.326  0.00  0.00    +0.125 C 
BRANCH  11  12
ATOM     12  N   LIG    1       24.633 -28.329   6.957  0.00  0.00    -0.295 NA
ATOM     13  C   LIG    1       24.631 -28.762   5.540  0.00  0.00    +0.112 C 
ATOM     14  C   LIG    1       25.419 -30.055   5.264  0.00  0.00    +0.175 C 
ATOM     15  O   LIG    1       24.982 -31.128   6.102  0.00  0.00    -0.377 OA
ATOM     16  C   LIG    1       25.081 -30.772   7.484  0.00  0.00    +0.175 C 
ATOM     17  C   LIG    1       24.279 -29.498   7.792  0.00  0.00    +0.112 C 
ENDBRANCH  11  12
ENDBRANCH  10  11
ENDBRANCH   9  10
ENDBRANCH   8   9
ENDBRANCH   1   8
BRANCH   2  18
ATOM     18  N   LIG    1       26.740 -22.379   6.959  0.00  0.00    -0.299 N 
ATOM     19  H   LIG    1       27.216 -23.201   7.326  0.00  0.00    +0.154 HD
BRANCH  18  20
ATOM     20  C   LIG    1       27.578 -21.254   6.779  0.00  0.00    +0.033 A 
ATOM     21  C   LIG    1       28.749 -21.123   7.548  0.00  0.00    +0.035 A 
ATOM     22  C   LIG    1       29.656 -20.058   7.334  0.00  0.00    +0.057 A 
ATOM     23  C   LIG    1       29.387 -19.120   6.329  0.00  0.00    +0.012 A 
ATOM     24  C   LIG    1       28.252 -19.246   5.548  0.00  0.00    +0.002 A 
ATOM     25  C   LIG    1       27.375 -20.305   5.769  0.00  0.00    +0.023 A 
BRANCH  22  26
ATOM     26  C   LIG    1       30.909 -19.926   8.162  0.00  0.00    +0.417 C 
ATOM     27  F   LIG    1       31.460 -21.128   8.479  0.00  0.00    -0.166 F 
ATOM     28  F   LIG    1       30.691 -19.287   9.345  0.00  0.00    -0.166 F 
ATOM     29  F   LIG    1       31.896 -19.220   7.539  0.00  0.00    -0.166 F 
ENDBRANCH  22  26
ENDBRANCH  18  20
ENDBRANCH   2  18
TORSDOF 8
ENDMDL
MODEL 9
REMARK VINA RESULT:      -7.8      4.366      6.620
REMARK  Name = *****
REMARK                            x       y       z     vdW  Elec       q    Type
REMARK                         _______ _______ _______ _____ _____    ______ ____
ROOT
ATOM      1  C   LIG    1       23.997 -21.102   6.107  0.00  0.00    +0.099 A 
ATOM      2  C   LIG    1       23.968 -22.246   5.287  0.00  0.00    +0.137 A 
ATOM      3  N   LIG    1       24.174 -22.127   3.963  0.00  0.00    -0.239 NA
ATOM      4  C   LIG    1       24.370 -20.916   3.400  0.00  0.00    +0.113 A 
ATOM      5  C   LIG    1       24.408 -19.751   4.124  0.00  0.00    +0.021 A 
ATOM      6  C   LIG    1       24.235 -19.843   5.497  0.00  0.00    +0.020 A 
ENDROOT
BRANCH   1   8
ATOM      7  O   LIG    1       22.888 -21.822   8.068  0.00  0.00    -0.245 OA
ATOM      8  C   LIG    1       23.794 -21.195   7.561  0.00  0.00    +0.343 C 
BRANCH   8   9
ATOM      9  O   LIG    1       24.749 -20.499   8.212  0.00  0.00    -0.460 OA
BRANCH   9  10
ATOM     10  C   LIG    1       26.006 -21.152   8.406  0.00  0.00    +0.247 C 
BRANCH  10  11
ATOM     11  C   LIG    1       27.152 -20.239   7.944  0.00  0.00    +0.125 C 
BRANCH  11  12
ATOM     12  N   LIG    1       28.081 -20.889   7.007  0.00  0.00    -0.295 NA
ATOM     13  C   LIG    1       28.405 -20.004   5.865  0.00  0.00    +0.112 C 
ATOM     14  C   LIG    1       29.404 -18.878   6.190  0.00  0.00    +0.175 C 
ATOM     15  O   LIG    1       30.608 -19.393   6.764  0.00  0.00    -0.377 OA
ATOM     16  C   LIG    1       30.328 -20.163   7.936  0.00  0.00    +0.175 C 
ATOM     17  C   LIG    1       29.353 -21.311   7.633  0.00  0.00    +0.112 C 
ENDBRANCH  11  12
ENDBRANCH  10  11
ENDBRANCH   9  10
ENDBRANCH   8   9
ENDBRANCH   1   8
BRANCH   2  18
ATOM     18  N   LIG    1       23.603 -23.514   5.821  0.00  0.00    -0.299 N 
ATOM     19  H   LIG    1       22.685 -23.504   6.261  0.00  0.00    +0.154 HD
BRANCH  18  20
ATOM     20  C   LIG    1       24.416 -24.609   6.197  0.00  0.00    +0.033 A 
ATOM     21  C   LIG    1       24.013 -25.920   5.883  0.00  0.00    +0.035 A 
ATOM     22  C   LIG    1       24.841 -27.033   6.164  0.00  0.00    +0.057 A 
ATOM     23  C   LIG    1       26.093 -26.824   6.756  0.00  0.00    +0.012 A 
ATOM     24  C   LIG    1       26.515 -25.540   7.050  0.00  0.00    +0.002 A 
ATOM     25  C   LIG    1       25.689 -24.457   6.759  0.00  0.00    +0.023 A 
BRANCH  22  26
ATOM     26  C   LIG    1       24.401 -28.435   5.824  0.00  0.00    +0.417 C 
ATOM     27  F   LIG    1       25.417 -29.206   5.352  0.00  0.00    -0.166 F 
ATOM     28  F   LIG    1       23.430 -28.462   4.869  0.00  0.00    -0.166 F 
ATOM     29  F   LIG    1       23.887 -29.113   6.890  0.00  0.00    -0.166 F 
ENDBRANCH  22  26
ENDBRANCH  18  20
ENDBRANCH   2  18
TORSDOF 8
ENDMDL
