MODEL 1
REMARK VINA RESULT:      -8.1      0.000      0.000
REMARK  Name = *****
REMARK                            x       y       z     vdW  Elec       q    Type
REMARK                         _______ _______ _______ _____ _____    ______ ____
ROOT
ATOM      1  C   LIG    1       27.213 -21.898   7.760  0.00  0.00    +0.051 C 
ATOM      2  C   LIG    1       26.311 -22.698   6.718  0.00  0.00    +0.065 C 
ATOM      3  C   LIG    1       25.480 -21.522   6.239  0.00  0.00    +0.140 C 
ATOM      4  O   LIG    1       25.173 -21.370   5.060  0.00  0.00    -0.297 OA
ATOM      5  C   LIG    1       25.283 -20.443   7.285  0.00  0.00    +0.106 C 
ATOM      6  C   LIG    1       26.237 -20.877   8.394  0.00  0.00    +0.129 C 
ENDROOT
BRANCH   6   7
ATOM      7  O   LIG    1       25.511 -21.489   9.452  0.00  0.00    -0.391 OA
ATOM      8  H   LIG    1       24.753 -20.908   9.646  0.00  0.00    +0.210 HD
ENDBRANCH   6   7
BRANCH   1  10
ATOM      9  C   LIG    1       28.943 -19.956   7.471  0.00  0.00    -0.000 C 
ATOM     10  C   LIG    1       28.351 -21.106   7.090  0.00  0.00    -0.022 C 
BRANCH   9  11
ATOM     11  C   LIG    1       30.203 -19.296   6.908  0.00  0.00    +0.137 C 
BRANCH  11  12
ATOM     12  O   LIG    1       29.762 -18.218   6.076  0.00  0.00    -0.388 OA
ATOM     13  H   LIG    1       29.617 -17.444   6.646  0.00  0.00    +0.210 HD
ENDBRANCH  11  12
BRANCH  11  14
ATOM     14  C   LIG    1       31.344 -18.771   7.818  0.00  0.00    +0.035 C 
BRANCH  14  15
ATOM     15  C   LIG    1       30.991 -18.615   9.304  0.00  0.00    +0.003 C 
BRANCH  15  16
ATOM     16  C   LIG    1       30.473 -17.229   9.679  0.00  0.00    -0.000 C 
BRANCH  16  18
ATOM     17  C   LIG    1       32.593 -15.894   9.817  0.00  0.00    +0.004 C 
ATOM     18  C   LIG    1       31.448 -16.498  10.614  0.00  0.00    -0.003 C 
ENDBRANCH  16  18
ENDBRANCH  15  16
ENDBRANCH  14  15
ENDBRANCH  11  14
ENDBRANCH   9  11
ENDBRANCH   1  10
BRANCH   2  19
ATOM     19  C   LIG    1       25.490 -23.944   7.258  0.00  0.00    +0.011 C 
BRANCH  19  20
ATOM     20  C   LIG    1       24.150 -24.372   6.520  0.00  0.00    +0.001 C 
BRANCH  20  21
ATOM     21  C   LIG    1       24.104 -25.839   5.959  0.00  0.00    +0.000 C 
BRANCH  21  22
ATOM     22  C   LIG    1       25.458 -26.641   5.913  0.00  0.00    +0.000 C 
BRANCH  22  23
ATOM     23  C   LIG    1       25.600 -27.680   7.057  0.00  0.00    +0.011 C 
BRANCH  23  24
ATOM     24  C   LIG    1       24.620 -28.884   7.187  0.00  0.00    +0.120 C 
BRANCH  24  25
ATOM     25  C   LIG    1       24.390 -29.698   5.929  0.00  0.00    +0.305 C 
ATOM     26  O   LIG    1       25.247 -30.436   5.369  0.00  0.00    -0.251 OA
BRANCH  25  27
ATOM     27  O   LIG    1       23.186 -29.485   5.378  0.00  0.00    -0.481 OA
ATOM     28  H   LIG    1       22.954 -28.532   5.394  0.00  0.00    +0.295 HD
ENDBRANCH  25  27
ENDBRANCH  24  25
ENDBRANCH  23  24
ENDBRANCH  22  23
ENDBRANCH  21  22
ENDBRANCH  20  21
ENDBRANCH  19  20
ENDBRANCH   2  19
TORSDOF 16
ENDMDL
MODEL 2
REMARK VINA RESULT:      -8.0      3.492      5.977
REMARK  Name = *****
REMARK                            x       y       z     vdW  Elec       q    Type
REMARK                         _______ _______ _______ _____ _____    ______ ____
ROOT
ATOM      1  C   LIG    1       26.298 -21.002   6.296  0.00  0.00    +0.051 C 
ATOM      2  C   LIG    1       25.205 -20.532   7.356  0.00  0.00    +0.065 C 
ATOM      3  C   LIG    1       25.931 -21.000   8.603  0.00  0.00    +0.140 C 
ATOM      4  O   LIG    1       25.952 -20.341   9.638  0.00  0.00    -0.297 OA
ATOM      5  C   LIG    1       26.819 -22.208   8.380  0.00  0.00    +0.106 C 
ATOM      6  C   LIG    1       26.812 -22.349   6.860  0.00  0.00    +0.129 C 
ENDROOT
BRANCH   6   7
ATOM      7  O   LIG    1       25.942 -23.404   6.471  0.00  0.00    -0.391 OA
ATOM      8  H   LIG    1       25.655 -23.848   7.289  0.00  0.00    +0.210 HD
ENDBRANCH   6   7
BRANCH   1  10
ATOM      9  C   LIG    1       28.805 -20.269   6.451  0.00  0.00    -0.000 C 
ATOM     10  C   LIG    1       27.500 -20.043   6.203  0.00  0.00    -0.022 C 
BRANCH   9  11
ATOM     11  C   LIG    1       30.006 -19.368   6.156  0.00  0.00    +0.137 C 
BRANCH  11  12
ATOM     12  O   LIG    1       29.479 -18.146   5.629  0.00  0.00    -0.388 OA
ATOM     13  H   LIG    1       28.562 -18.314   5.352  0.00  0.00    +0.210 HD
ENDBRANCH  11  12
BRANCH  11  14
ATOM     14  C   LIG    1       31.064 -19.015   7.233  0.00  0.00    +0.035 C 
BRANCH  14  15
ATOM     15  C   LIG    1       30.569 -19.034   8.685  0.00  0.00    +0.003 C 
BRANCH  15  16
ATOM     16  C   LIG    1       30.106 -17.675   9.204  0.00  0.00    -0.000 C 
BRANCH  16  18
ATOM     17  C   LIG    1       32.176 -16.281   9.461  0.00  0.00    +0.004 C 
ATOM     18  C   LIG    1       31.113 -17.080  10.199  0.00  0.00    -0.003 C 
ENDBRANCH  16  18
ENDBRANCH  15  16
ENDBRANCH  14  15
ENDBRANCH  11  14
ENDBRANCH   9  11
ENDBRANCH   1  10
BRANCH   2  19
ATOM     19  C   LIG    1       23.724 -21.076   7.178  0.00  0.00    +0.011 C 
BRANCH  19  20
ATOM     20  C   LIG    1       23.262 -21.624   5.761  0.00  0.00    +0.001 C 
BRANCH  20  21
ATOM     21  C   LIG    1       22.306 -20.693   4.932  0.00  0.00    +0.000 C 
BRANCH  21  22
ATOM     22  C   LIG    1       22.600 -19.146   4.957  0.00  0.00    +0.000 C 
BRANCH  22  23
ATOM     23  C   LIG    1       23.396 -18.649   3.722  0.00  0.00    +0.011 C 
BRANCH  23  24
ATOM     24  C   LIG    1       24.916 -18.950   3.560  0.00  0.00    +0.120 C 
BRANCH  24  25
ATOM     25  C   LIG    1       25.830 -17.746   3.462  0.00  0.00    +0.305 C 
ATOM     26  O   LIG    1       25.519 -16.631   2.957  0.00  0.00    -0.251 OA
BRANCH  25  27
ATOM     27  O   LIG    1       27.079 -17.998   3.880  0.00  0.00    -0.481 OA
ATOM     28  H   LIG    1       27.532 -17.174   4.157  0.00  0.00    +0.295 HD
ENDBRANCH  25  27
ENDBRANCH  24  25
ENDBRANCH  23  24
ENDBRANCH  22  23
ENDBRANCH  21  22
ENDBRANCH  20  21
ENDBRANCH  19  20
ENDBRANCH   2  19
TORSDOF 16
ENDMDL
MODEL 3
REMARK VINA RESULT:      -7.8      2.093      9.859
REMARK  Name = *****
REMARK                            x       y       z     vdW  Elec       q    Type
REMARK                         _______ _______ _______ _____ _____    ______ ____
ROOT
ATOM      1  C   LIG    1       25.647 -22.227   6.043  0.00  0.00    +0.051 C 
ATOM      2  C   LIG    1       25.397 -21.475   7.426  0.00  0.00    +0.065 C 
ATOM      3  C   LIG    1       23.990 -20.989   7.130  0.00  0.00    +0.140 C 
ATOM      4  O   LIG    1       23.100 -20.998   7.974  0.00  0.00    -0.297 OA
ATOM      5  C   LIG    1       23.726 -20.735   5.659  0.00  0.00    +0.106 C 
ATOM      6  C   LIG    1       24.970 -21.314   4.992  0.00  0.00    +0.129 C 
ENDROOT
BRANCH   6   7
ATOM      7  O   LIG    1       25.854 -20.268   4.614  0.00  0.00    -0.391 OA
ATOM      8  H   LIG    1       26.030 -20.378   3.661  0.00  0.00    +0.210 HD
ENDBRANCH   6   7
BRANCH   1  10
ATOM      9  C   LIG    1       25.479 -24.834   6.192  0.00  0.00    -0.000 C 
ATOM     10  C   LIG    1       24.966 -23.607   5.974  0.00  0.00    -0.022 C 
BRANCH   9  11
ATOM     11  C   LIG    1       24.744 -26.170   6.322  0.00  0.00    +0.137 C 
BRANCH  11  12
ATOM     12  O   LIG    1       23.615 -26.101   5.445  0.00  0.00    -0.388 OA
ATOM     13  H   LIG    1       22.935 -25.559   5.880  0.00  0.00    +0.210 HD
ENDBRANCH  11  12
BRANCH  11  14
ATOM     14  C   LIG    1       25.449 -27.532   6.098  0.00  0.00    +0.035 C 
BRANCH  14  15
ATOM     15  C   LIG    1       24.680 -28.547   5.241  0.00  0.00    +0.003 C 
BRANCH  15  16
ATOM     16  C   LIG    1       23.935 -29.607   6.049  0.00  0.00    -0.000 C 
BRANCH  16  18
ATOM     17  C   LIG    1       25.258 -31.070   7.600  0.00  0.00    +0.004 C 
ATOM     18  C   LIG    1       24.517 -29.749   7.463  0.00  0.00    -0.003 C 
ENDBRANCH  16  18
ENDBRANCH  15  16
ENDBRANCH  14  15
ENDBRANCH  11  14
ENDBRANCH   9  11
ENDBRANCH   1  10
BRANCH   2  19
ATOM     19  C   LIG    1       26.436 -20.354   7.853  0.00  0.00    +0.011 C 
BRANCH  19  20
ATOM     20  C   LIG    1       27.984 -20.589   7.594  0.00  0.00    +0.001 C 
BRANCH  20  21
ATOM     21  C   LIG    1       28.655 -19.671   6.509  0.00  0.00    +0.000 C 
BRANCH  21  22
ATOM     22  C   LIG    1       29.981 -18.923   6.913  0.00  0.00    +0.000 C 
BRANCH  22  23
ATOM     23  C   LIG    1       30.194 -18.828   8.447  0.00  0.00    +0.011 C 
BRANCH  23  24
ATOM     24  C   LIG    1       30.254 -17.451   9.174  0.00  0.00    +0.120 C 
BRANCH  24  25
ATOM     25  C   LIG    1       30.481 -17.495  10.672  0.00  0.00    +0.305 C 
ATOM     26  O   LIG    1       30.773 -18.527  11.337  0.00  0.00    -0.251 OA
BRANCH  25  27
ATOM     27  O   LIG    1       30.238 -16.322  11.275  0.00  0.00    -0.481 OA
ATOM     28  H   LIG    1       30.998 -15.710  11.175  0.00  0.00    +0.295 HD
ENDBRANCH  25  27
ENDBRANCH  24  25
ENDBRANCH  23  24
ENDBRANCH  22  23
ENDBRANCH  21  22
ENDBRANCH  20  21
ENDBRANCH  19  20
ENDBRANCH   2  19
TORSDOF 16
ENDMDL
MODEL 4
REMARK VINA RESULT:      -7.8      2.009      9.390
REMARK  Name = *****
REMARK                            x       y       z     vdW  Elec       q    Type
REMARK                         _______ _______ _______ _____ _____    ______ ____
ROOT
ATOM      1  C   LIG    1       25.511 -22.172   5.846  0.00  0.00    +0.051 C 
ATOM      2  C   LIG    1       25.297 -21.593   7.315  0.00  0.00    +0.065 C 
ATOM      3  C   LIG    1       23.830 -21.234   7.170  0.00  0.00    +0.140 C 
ATOM      4  O   LIG    1       23.014 -21.424   8.068  0.00  0.00    -0.297 OA
ATOM      5  C   LIG    1       23.425 -20.864   5.757  0.00  0.00    +0.106 C 
ATOM      6  C   LIG    1       24.664 -21.237   4.948  0.00  0.00    +0.129 C 
ENDROOT
BRANCH   6   7
ATOM      7  O   LIG    1       25.407 -20.069   4.625  0.00  0.00    -0.391 OA
ATOM      8  H   LIG    1       26.068 -20.330   3.959  0.00  0.00    +0.210 HD
ENDBRANCH   6   7
BRANCH   1  10
ATOM      9  C   LIG    1       25.104 -24.678   6.478  0.00  0.00    -0.000 C 
ATOM     10  C   LIG    1       24.968 -23.603   5.676  0.00  0.00    -0.022 C 
BRANCH   9  11
ATOM     11  C   LIG    1       24.389 -26.029   6.398  0.00  0.00    +0.137 C 
BRANCH  11  12
ATOM     12  O   LIG    1       23.567 -25.986   5.226  0.00  0.00    -0.388 OA
ATOM     13  H   LIG    1       23.236 -25.078   5.130  0.00  0.00    +0.210 HD
ENDBRANCH  11  12
BRANCH  11  14
ATOM     14  C   LIG    1       25.155 -27.376   6.405  0.00  0.00    +0.035 C 
BRANCH  14  15
ATOM     15  C   LIG    1       26.157 -27.567   7.552  0.00  0.00    +0.003 C 
BRANCH  15  16
ATOM     16  C   LIG    1       25.788 -28.687   8.521  0.00  0.00    -0.000 C 
BRANCH  16  18
ATOM     17  C   LIG    1       23.863 -30.190   9.096  0.00  0.00    +0.004 C 
ATOM     18  C   LIG    1       24.661 -29.568   7.962  0.00  0.00    -0.003 C 
ENDBRANCH  16  18
ENDBRANCH  15  16
ENDBRANCH  14  15
ENDBRANCH  11  14
ENDBRANCH   9  11
ENDBRANCH   1  10
BRANCH   2  19
ATOM     19  C   LIG    1       26.249 -20.415   7.789  0.00  0.00    +0.011 C 
BRANCH  19  20
ATOM     20  C   LIG    1       27.822 -20.584   7.655  0.00  0.00    +0.001 C 
BRANCH  20  21
ATOM     21  C   LIG    1       28.439 -20.265   6.246  0.00  0.00    +0.000 C 
BRANCH  21  22
ATOM     22  C   LIG    1       29.308 -18.959   6.115  0.00  0.00    +0.000 C 
BRANCH  22  23
ATOM     23  C   LIG    1       30.570 -18.963   7.019  0.00  0.00    +0.011 C 
BRANCH  23  24
ATOM     24  C   LIG    1       30.580 -18.246   8.403  0.00  0.00    +0.120 C 
BRANCH  24  25
ATOM     25  C   LIG    1       31.652 -18.689   9.378  0.00  0.00    +0.305 C 
ATOM     26  O   LIG    1       32.214 -17.949  10.233  0.00  0.00    -0.251 OA
BRANCH  25  27
ATOM     27  O   LIG    1       32.047 -19.956   9.185  0.00  0.00    -0.481 OA
ATOM     28  H   LIG    1       32.821 -19.998   8.586  0.00  0.00    +0.295 HD
ENDBRANCH  25  27
ENDBRANCH  24  25
ENDBRANCH  23  24
ENDBRANCH  22  23
ENDBRANCH  21  22
ENDBRANCH  20  21
ENDBRANCH  19  20
ENDBRANCH   2  19
TORSDOF 16
ENDMDL
MODEL 5
REMARK VINA RESULT:      -7.8      1.228      1.579
REMARK  Name = *****
REMARK                            x       y       z     vdW  Elec       q    Type
REMARK                         _______ _______ _______ _____ _____    ______ ____
ROOT
ATOM      1  C   LIG    1       25.326 -21.584   7.043  0.00  0.00    +0.051 C 
ATOM      2  C   LIG    1       24.872 -22.723   6.024  0.00  0.00    +0.065 C 
ATOM      3  C   LIG    1       24.094 -21.833   5.073  0.00  0.00    +0.140 C 
ATOM      4  O   LIG    1       24.137 -21.976   3.855  0.00  0.00    -0.297 OA
ATOM      5  C   LIG    1       23.473 -20.621   5.737  0.00  0.00    +0.106 C 
ATOM      6  C   LIG    1       24.096 -20.648   7.130  0.00  0.00    +0.129 C 
ENDROOT
BRANCH   6   7
ATOM      7  O   LIG    1       23.162 -21.157   8.073  0.00  0.00    -0.391 OA
ATOM      8  H   LIG    1       22.402 -21.492   7.564  0.00  0.00    +0.210 HD
ENDBRANCH   6   7
BRANCH   1  10
ATOM      9  C   LIG    1       27.781 -20.682   6.981  0.00  0.00    -0.000 C 
ATOM     10  C   LIG    1       26.514 -20.751   6.526  0.00  0.00    -0.022 C 
BRANCH   9  11
ATOM     11  C   LIG    1       28.995 -20.011   6.333  0.00  0.00    +0.137 C 
BRANCH  11  12
ATOM     12  O   LIG    1       28.486 -19.147   5.312  0.00  0.00    -0.388 OA
ATOM     13  H   LIG    1       27.855 -19.658   4.779  0.00  0.00    +0.210 HD
ENDBRANCH  11  12
BRANCH  11  14
ATOM     14  C   LIG    1       30.046 -19.223   7.156  0.00  0.00    +0.035 C 
BRANCH  14  15
ATOM     15  C   LIG    1       29.594 -18.765   8.549  0.00  0.00    +0.003 C 
BRANCH  15  16
ATOM     16  C   LIG    1       30.345 -17.546   9.079  0.00  0.00    -0.000 C 
BRANCH  16  18
ATOM     17  C   LIG    1       31.369 -16.540  11.137  0.00  0.00    +0.004 C 
ATOM     18  C   LIG    1       30.290 -17.473  10.612  0.00  0.00    -0.003 C 
ENDBRANCH  16  18
ENDBRANCH  15  16
ENDBRANCH  14  15
ENDBRANCH  11  14
ENDBRANCH   9  11
ENDBRANCH   1  10
BRANCH   2  19
ATOM     19  C   LIG    1       24.075 -23.963   6.613  0.00  0.00    +0.011 C 
BRANCH  19  20
ATOM     20  C   LIG    1       23.992 -25.306   5.770  0.00  0.00    +0.001 C 
BRANCH  20  21
ATOM     21  C   LIG    1       25.314 -25.759   5.052  0.00  0.00    +0.000 C 
BRANCH  21  22
ATOM     22  C   LIG    1       26.170 -26.881   5.751  0.00  0.00    +0.000 C 
BRANCH  22  23
ATOM     23  C   LIG    1       25.531 -27.423   7.056  0.00  0.00    +0.011 C 
BRANCH  23  24
ATOM     24  C   LIG    1       24.949 -28.866   7.138  0.00  0.00    +0.120 C 
BRANCH  24  25
ATOM     25  C   LIG    1       24.567 -29.509   5.819  0.00  0.00    +0.305 C 
ATOM     26  O   LIG    1       25.334 -30.202   5.095  0.00  0.00    -0.251 OA
BRANCH  25  27
ATOM     27  O   LIG    1       23.330 -29.187   5.417  0.00  0.00    -0.481 OA
ATOM     28  H   LIG    1       23.351 -28.465   4.753  0.00  0.00    +0.295 HD
ENDBRANCH  25  27
ENDBRANCH  24  25
ENDBRANCH  23  24
ENDBRANCH  22  23
ENDBRANCH  21  22
ENDBRANCH  20  21
ENDBRANCH  19  20
ENDBRANCH   2  19
TORSDOF 16
ENDMDL
MODEL 6
REMARK VINA RESULT:      -7.6      2.075      9.826
REMARK  Name = *****
REMARK                            x       y       z     vdW  Elec       q    Type
REMARK                         _______ _______ _______ _____ _____    ______ ____
ROOT
ATOM      1  C   LIG    1       25.138 -22.521   5.671  0.00  0.00    +0.051 C 
ATOM      2  C   LIG    1       26.078 -21.723   6.681  0.00  0.00    +0.065 C 
ATOM      3  C   LIG    1       25.163 -21.788   7.889  0.00  0.00    +0.140 C 
ATOM      4  O   LIG    1       25.586 -21.988   9.024  0.00  0.00    -0.297 OA
ATOM      5  C   LIG    1       23.689 -21.836   7.541  0.00  0.00    +0.106 C 
ATOM      6  C   LIG    1       23.711 -22.040   6.029  0.00  0.00    +0.129 C 
ENDROOT
BRANCH   6   7
ATOM      7  O   LIG    1       23.428 -20.815   5.366  0.00  0.00    -0.391 OA
ATOM      8  H   LIG    1       22.473 -20.812   5.173  0.00  0.00    +0.210 HD
ENDBRANCH   6   7
BRANCH   1  10
ATOM      9  C   LIG    1       25.198 -25.041   4.970  0.00  0.00    -0.000 C 
ATOM     10  C   LIG    1       25.186 -24.046   5.879  0.00  0.00    -0.022 C 
BRANCH   9  11
ATOM     11  C   LIG    1       25.453 -26.534   5.188  0.00  0.00    +0.137 C 
BRANCH  11  12
ATOM     12  O   LIG    1       26.817 -26.658   5.605  0.00  0.00    -0.388 OA
ATOM     13  H   LIG    1       26.841 -26.564   6.572  0.00  0.00    +0.210 HD
ENDBRANCH  11  12
BRANCH  11  14
ATOM     14  C   LIG    1       24.577 -27.398   6.131  0.00  0.00    +0.035 C 
BRANCH  14  15
ATOM     15  C   LIG    1       25.332 -28.154   7.232  0.00  0.00    +0.003 C 
BRANCH  15  16
ATOM     16  C   LIG    1       24.733 -29.517   7.575  0.00  0.00    -0.000 C 
BRANCH  16  18
ATOM     17  C   LIG    1       25.529 -30.845   5.601  0.00  0.00    +0.004 C 
ATOM     18  C   LIG    1       24.309 -30.279   6.311  0.00  0.00    -0.003 C 
ENDBRANCH  16  18
ENDBRANCH  15  16
ENDBRANCH  14  15
ENDBRANCH  11  14
ENDBRANCH   9  11
ENDBRANCH   1  10
BRANCH   2  19
ATOM     19  C   LIG    1       26.551 -20.269   6.255  0.00  0.00    +0.011 C 
BRANCH  19  20
ATOM     20  C   LIG    1       28.078 -20.021   5.896  0.00  0.00    +0.001 C 
BRANCH  20  21
ATOM     21  C   LIG    1       29.085 -20.023   7.103  0.00  0.00    +0.000 C 
BRANCH  21  22
ATOM     22  C   LIG    1       30.422 -19.210   6.931  0.00  0.00    +0.000 C 
BRANCH  22  23
ATOM     23  C   LIG    1       31.004 -18.687   8.271  0.00  0.00    +0.011 C 
BRANCH  23  24
ATOM     24  C   LIG    1       30.321 -17.526   9.056  0.00  0.00    +0.120 C 
BRANCH  24  25
ATOM     25  C   LIG    1       30.460 -17.566  10.564  0.00  0.00    +0.305 C 
ATOM     26  O   LIG    1       30.700 -18.599  11.249  0.00  0.00    -0.251 OA
BRANCH  25  27
ATOM     27  O   LIG    1       30.197 -16.388  11.147  0.00  0.00    -0.481 OA
ATOM     28  H   LIG    1       30.421 -16.409  12.102  0.00  0.00    +0.295 HD
ENDBRANCH  25  27
ENDBRANCH  24  25
ENDBRANCH  23  24
ENDBRANCH  22  23
ENDBRANCH  21  22
ENDBRANCH  20  21
ENDBRANCH  19  20
ENDBRANCH   2  19
TORSDOF 16
ENDMDL
MODEL 7
REMARK VINA RESULT:      -7.6      3.466      8.773
REMARK  Name = *****
REMARK                            x       y       z     vdW  Elec       q    Type
REMARK                         _______ _______ _______ _____ _____    ______ ____
ROOT
ATOM      1  C   LIG    1       25.920 -20.550   6.896  0.00  0.00    +0.051 C 
ATOM      2  C   LIG    1       27.087 -21.631   6.794  0.00  0.00    +0.065 C 
ATOM      3  C   LIG    1       26.299 -22.816   7.321  0.00  0.00    +0.140 C 
ATOM      4  O   LIG    1       26.401 -23.940   6.840  0.00  0.00    -0.297 OA
ATOM      5  C   LIG    1       25.211 -22.440   8.307  0.00  0.00    +0.106 C 
ATOM      6  C   LIG    1       25.182 -20.918   8.206  0.00  0.00    +0.129 C 
ENDROOT
BRANCH   6   7
ATOM      7  O   LIG    1       25.850 -20.341   9.320  0.00  0.00    -0.391 OA
ATOM      8  H   LIG    1       25.272 -19.634   9.660  0.00  0.00    +0.210 HD
ENDBRANCH   6   7
BRANCH   1  10
ATOM      9  C   LIG    1       23.559 -20.579   5.769  0.00  0.00    -0.000 C 
ATOM     10  C   LIG    1       24.905 -20.648   5.742  0.00  0.00    -0.022 C 
BRANCH   9  11
ATOM     11  C   LIG    1       22.582 -20.471   4.596  0.00  0.00    +0.137 C 
BRANCH  11  12
ATOM     12  O   LIG    1       21.549 -21.432   4.836  0.00  0.00    -0.388 OA
ATOM     13  H   LIG    1       21.945 -22.317   4.765  0.00  0.00    +0.210 HD
ENDBRANCH  11  12
BRANCH  11  14
ATOM     14  C   LIG    1       21.914 -19.132   4.191  0.00  0.00    +0.035 C 
BRANCH  14  15
ATOM     15  C   LIG    1       22.350 -17.900   4.997  0.00  0.00    +0.003 C 
BRANCH  15  16
ATOM     16  C   LIG    1       23.042 -16.824   4.164  0.00  0.00    -0.000 C 
BRANCH  16  18
ATOM     17  C   LIG    1       23.859 -14.451   4.194  0.00  0.00    +0.004 C 
ATOM     18  C   LIG    1       22.850 -15.428   4.776  0.00  0.00    -0.003 C 
ENDBRANCH  16  18
ENDBRANCH  15  16
ENDBRANCH  14  15
ENDBRANCH  11  14
ENDBRANCH   9  11
ENDBRANCH   1  10
BRANCH   2  19
ATOM     19  C   LIG    1       28.448 -21.320   7.550  0.00  0.00    +0.011 C 
BRANCH  19  20
ATOM     20  C   LIG    1       28.837 -19.813   7.862  0.00  0.00    +0.001 C 
BRANCH  20  21
ATOM     21  C   LIG    1       29.799 -19.115   6.835  0.00  0.00    +0.000 C 
BRANCH  21  22
ATOM     22  C   LIG    1       31.342 -19.151   7.148  0.00  0.00    +0.000 C 
BRANCH  22  23
ATOM     23  C   LIG    1       31.690 -18.700   8.591  0.00  0.00    +0.011 C 
BRANCH  23  24
ATOM     24  C   LIG    1       31.193 -17.336   9.158  0.00  0.00    +0.120 C 
BRANCH  24  25
ATOM     25  C   LIG    1       30.579 -17.372  10.544  0.00  0.00    +0.305 C 
ATOM     26  O   LIG    1       30.230 -16.361  11.215  0.00  0.00    -0.251 OA
BRANCH  25  27
ATOM     27  O   LIG    1       30.526 -18.607  11.063  0.00  0.00    -0.481 OA
ATOM     28  H   LIG    1       30.975 -19.255  10.480  0.00  0.00    +0.295 HD
ENDBRANCH  25  27
ENDBRANCH  24  25
ENDBRANCH  23  24
ENDBRANCH  22  23
ENDBRANCH  21  22
ENDBRANCH  20  21
ENDBRANCH  19  20
ENDBRANCH   2  19
TORSDOF 16
ENDMDL
MODEL 8
REMARK VINA RESULT:      -7.5      2.296      9.421
REMARK  Name = *****
REMARK                            x       y       z     vdW  Elec       q    Type
REMARK                         _______ _______ _______ _____ _____    ______ ____
ROOT
ATOM      1  C   LIG    1       24.936 -22.700   5.637  0.00  0.00    +0.051 C 
ATOM      2  C   LIG    1       25.861 -21.761   6.533  0.00  0.00    +0.065 C 
ATOM      3  C   LIG    1       25.037 -21.833   7.805  0.00  0.00    +0.140 C 
ATOM      4  O   LIG    1       25.549 -21.924   8.916  0.00  0.00    -0.297 OA
ATOM      5  C   LIG    1       23.554 -22.034   7.564  0.00  0.00    +0.106 C 
ATOM      6  C   LIG    1       23.496 -22.328   6.068  0.00  0.00    +0.129 C 
ENDROOT
BRANCH   6   7
ATOM      7  O   LIG    1       23.058 -21.176   5.360  0.00  0.00    -0.391 OA
ATOM      8  H   LIG    1       22.411 -20.723   5.930  0.00  0.00    +0.210 HD
ENDBRANCH   6   7
BRANCH   1  10
ATOM      9  C   LIG    1       25.215 -25.240   5.072  0.00  0.00    -0.000 C 
ATOM     10  C   LIG    1       25.139 -24.200   5.926  0.00  0.00    -0.022 C 
BRANCH   9  11
ATOM     11  C   LIG    1       25.622 -26.687   5.360  0.00  0.00    +0.137 C 
BRANCH  11  12
ATOM     12  O   LIG    1       27.007 -26.657   5.721  0.00  0.00    -0.388 OA
ATOM     13  H   LIG    1       27.491 -26.220   5.000  0.00  0.00    +0.210 HD
ENDBRANCH  11  12
BRANCH  11  14
ATOM     14  C   LIG    1       24.872 -27.572   6.388  0.00  0.00    +0.035 C 
BRANCH  14  15
ATOM     15  C   LIG    1       24.272 -28.871   5.836  0.00  0.00    +0.003 C 
BRANCH  15  16
ATOM     16  C   LIG    1       25.312 -29.901   5.397  0.00  0.00    -0.000 C 
BRANCH  16  18
ATOM     17  C   LIG    1       23.916 -31.758   6.345  0.00  0.00    +0.004 C 
ATOM     18  C   LIG    1       25.302 -31.134   6.313  0.00  0.00    -0.003 C 
ENDBRANCH  16  18
ENDBRANCH  15  16
ENDBRANCH  14  15
ENDBRANCH  11  14
ENDBRANCH   9  11
ENDBRANCH   1  10
BRANCH   2  19
ATOM     19  C   LIG    1       26.168 -20.300   5.995  0.00  0.00    +0.011 C 
BRANCH  19  20
ATOM     20  C   LIG    1       27.647 -19.927   5.555  0.00  0.00    +0.001 C 
BRANCH  20  21
ATOM     21  C   LIG    1       28.661 -19.615   6.714  0.00  0.00    +0.000 C 
BRANCH  21  22
ATOM     22  C   LIG    1       29.996 -18.876   6.330  0.00  0.00    +0.000 C 
BRANCH  22  23
ATOM     23  C   LIG    1       31.204 -19.280   7.216  0.00  0.00    +0.011 C 
BRANCH  23  24
ATOM     24  C   LIG    1       31.021 -19.644   8.721  0.00  0.00    +0.120 C 
BRANCH  24  25
ATOM     25  C   LIG    1       31.078 -21.119   9.063  0.00  0.00    +0.305 C 
ATOM     26  O   LIG    1       30.085 -21.897   9.113  0.00  0.00    -0.251 OA
BRANCH  25  27
ATOM     27  O   LIG    1       32.304 -21.528   9.422  0.00  0.00    -0.481 OA
ATOM     28  H   LIG    1       32.331 -21.771  10.372  0.00  0.00    +0.295 HD
ENDBRANCH  25  27
ENDBRANCH  24  25
ENDBRANCH  23  24
ENDBRANCH  22  23
ENDBRANCH  21  22
ENDBRANCH  20  21
ENDBRANCH  19  20
ENDBRANCH   2  19
TORSDOF 16
ENDMDL
MODEL 9
REMARK VINA RESULT:      -7.1      5.023      6.660
REMARK  Name = *****
REMARK                            x       y       z     vdW  Elec       q    Type
REMARK                         _______ _______ _______ _____ _____    ______ ____
ROOT
ATOM      1  C   LIG    1       24.208 -25.944   5.651  0.00  0.00    +0.051 C 
ATOM      2  C   LIG    1       24.360 -27.338   6.408  0.00  0.00    +0.065 C 
ATOM      3  C   LIG    1       25.784 -27.141   6.893  0.00  0.00    +0.140 C 
ATOM      4  O   LIG    1       26.152 -27.486   8.012  0.00  0.00    -0.297 OA
ATOM      5  C   LIG    1       26.627 -26.269   5.984  0.00  0.00    +0.106 C 
ATOM      6  C   LIG    1       25.596 -25.716   5.004  0.00  0.00    +0.129 C 
ENDROOT
BRANCH   6   7
ATOM      7  O   LIG    1       25.677 -26.409   3.766  0.00  0.00    -0.391 OA
ATOM      8  H   LIG    1       26.074 -27.278   3.955  0.00  0.00    +0.210 HD
ENDBRANCH   6   7
BRANCH   1  10
ATOM      9  C   LIG    1       24.444 -23.517   6.601  0.00  0.00    -0.000 C 
ATOM     10  C   LIG    1       23.936 -24.766   6.605  0.00  0.00    -0.022 C 
BRANCH   9  11
ATOM     11  C   LIG    1       24.010 -22.305   7.427  0.00  0.00    +0.137 C 
BRANCH  11  12
ATOM     12  O   LIG    1       25.205 -21.730   7.968  0.00  0.00    -0.388 OA
ATOM     13  H   LIG    1       24.971 -21.295   8.805  0.00  0.00    +0.210 HD
ENDBRANCH  11  12
BRANCH  11  14
ATOM     14  C   LIG    1       23.148 -21.161   6.834  0.00  0.00    +0.035 C 
BRANCH  14  15
ATOM     15  C   LIG    1       23.095 -21.093   5.302  0.00  0.00    +0.003 C 
BRANCH  15  16
ATOM     16  C   LIG    1       24.203 -20.247   4.677  0.00  0.00    -0.000 C 
BRANCH  16  18
ATOM     17  C   LIG    1       22.320 -18.610   4.406  0.00  0.00    +0.004 C 
ATOM     18  C   LIG    1       23.627 -19.115   3.813  0.00  0.00    -0.003 C 
ENDBRANCH  16  18
ENDBRANCH  15  16
ENDBRANCH  14  15
ENDBRANCH  11  14
ENDBRANCH   9  11
ENDBRANCH   1  10
BRANCH   2  19
ATOM     19  C   LIG    1       24.096 -28.662   5.573  0.00  0.00    +0.011 C 
BRANCH  19  20
ATOM     20  C   LIG    1       25.279 -29.701   5.367  0.00  0.00    +0.001 C 
BRANCH  20  21
ATOM     21  C   LIG    1       25.378 -30.860   6.424  0.00  0.00    +0.000 C 
BRANCH  21  22
ATOM     22  C   LIG    1       24.174 -31.034   7.423  0.00  0.00    +0.000 C 
BRANCH  22  23
ATOM     23  C   LIG    1       24.293 -30.152   8.694  0.00  0.00    +0.011 C 
BRANCH  23  24
ATOM     24  C   LIG    1       25.206 -30.565   9.888  0.00  0.00    +0.120 C 
BRANCH  24  25
ATOM     25  C   LIG    1       26.667 -30.801   9.562  0.00  0.00    +0.305 C 
ATOM     26  O   LIG    1       27.251 -31.919   9.587  0.00  0.00    -0.251 OA
BRANCH  25  27
ATOM     27  O   LIG    1       27.344 -29.666   9.332  0.00  0.00    -0.481 OA
ATOM     28  H   LIG    1       27.217 -29.360   8.409  0.00  0.00    +0.295 HD
ENDBRANCH  25  27
ENDBRANCH  24  25
ENDBRANCH  23  24
ENDBRANCH  22  23
ENDBRANCH  21  22
ENDBRANCH  20  21
ENDBRANCH  19  20
ENDBRANCH   2  19
TORSDOF 16
ENDMDL
