MODEL 1
REMARK VINA RESULT:     -10.4      0.000      0.000
REMARK  Name = *****
REMARK                            x       y       z     vdW  Elec       q    Type
REMARK                         _______ _______ _______ _____ _____    ______ ____
ROOT
ATOM      1  C   LIG    1       26.833 -21.453   6.588  0.00  0.00    -0.017 C 
ATOM      2  C   LIG    1       25.699 -21.707   5.905  0.00  0.00    -0.013 C 
ATOM      3  C   LIG    1       25.079 -23.049   6.109  0.00  0.00    -0.003 A 
ATOM      4  C   LIG    1       23.689 -23.139   6.295  0.00  0.00    +0.021 A 
ATOM      5  C   LIG    1       23.099 -24.392   6.516  0.00  0.00    +0.016 A 
ATOM      6  C   LIG    1       23.883 -25.548   6.578  0.00  0.00    +0.013 A 
ATOM      7  C   LIG    1       25.271 -25.473   6.410  0.00  0.00    +0.056 A 
ATOM      8  S   LIG    1       22.634 -21.692   6.347  0.00  0.00    -0.088 S 
ATOM      9  C   LIG    1       23.571 -20.525   5.361  0.00  0.00    +0.021 A 
ATOM     10  C   LIG    1       22.869 -19.469   4.761  0.00  0.00    +0.015 A 
ATOM     11  C   LIG    1       23.524 -18.580   3.910  0.00  0.00    +0.001 A 
ATOM     12  C   LIG    1       24.875 -18.758   3.630  0.00  0.00    +0.001 A 
ATOM     13  C   LIG    1       25.587 -19.792   4.248  0.00  0.00    +0.009 A 
ATOM     14  C   LIG    1       25.853 -24.224   6.139  0.00  0.00    +0.022 A 
ATOM     15  C   LIG    1       24.958 -20.649   5.164  0.00  0.00    -0.004 A 
ENDROOT
BRANCH   7  16
ATOM     16  C   LIG    1       26.152 -26.690   6.555  0.00  0.00    +0.417 C 
ATOM     17  F   LIG    1       27.385 -26.502   6.007  0.00  0.00    -0.166 F 
ATOM     18  F   LIG    1       25.635 -27.789   5.940  0.00  0.00    -0.166 F 
ATOM     19  F   LIG    1       26.373 -27.053   7.850  0.00  0.00    -0.166 F 
ENDBRANCH   7  16
BRANCH   1  20
ATOM     20  C   LIG    1       27.591 -20.156   6.735  0.00  0.00    +0.043 C 
BRANCH  20  21
ATOM     21  C   LIG    1       29.129 -20.335   6.856  0.00  0.00    +0.088 C 
BRANCH  21  25
ATOM     22  N   LIG    1       31.500 -17.808   8.391  0.00  0.00    -0.298 NA
ATOM     23  C   LIG    1       31.881 -19.070   7.730  0.00  0.00    +0.100 C 
ATOM     24  C   LIG    1       31.168 -20.330   8.265  0.00  0.00    +0.100 C 
ATOM     25  N   LIG    1       29.696 -20.257   8.221  0.00  0.00    -0.300 NA
ATOM     26  C   LIG    1       29.277 -19.010   8.904  0.00  0.00    +0.100 C 
ATOM     27  C   LIG    1       30.021 -17.718   8.458  0.00  0.00    +0.100 C 
BRANCH  22  28
ATOM     28  C   LIG    1       32.101 -17.623   9.726  0.00  0.00    +0.112 C 
BRANCH  28  29
ATOM     29  C   LIG    1       32.298 -16.157  10.153  0.00  0.00    +0.171 C 
BRANCH  29  30
ATOM     30  O   LIG    1       32.958 -15.432   9.118  0.00  0.00    -0.394 OA
ATOM     31  H   LIG    1       33.791 -15.102   9.498  0.00  0.00    +0.209 HD
ENDBRANCH  29  30
ENDBRANCH  28  29
ENDBRANCH  22  28
ENDBRANCH  21  25
ENDBRANCH  20  21
ENDBRANCH   1  20
TORSDOF 7
ENDMDL
MODEL 2
REMARK VINA RESULT:      -9.9      5.139      8.495
REMARK  Name = *****
REMARK                            x       y       z     vdW  Elec       q    Type
REMARK                         _______ _______ _______ _____ _____    ______ ____
ROOT
ATOM      1  C   LIG    1       26.582 -22.623   7.231  0.00  0.00    -0.017 C 
ATOM      2  C   LIG    1       26.337 -21.365   6.809  0.00  0.00    -0.013 C 
ATOM      3  C   LIG    1       27.514 -20.455   6.697  0.00  0.00    -0.003 A 
ATOM      4  C   LIG    1       27.641 -19.639   5.559  0.00  0.00    +0.021 A 
ATOM      5  C   LIG    1       28.756 -18.800   5.430  0.00  0.00    +0.016 A 
ATOM      6  C   LIG    1       29.755 -18.786   6.408  0.00  0.00    +0.013 A 
ATOM      7  C   LIG    1       29.651 -19.602   7.540  0.00  0.00    +0.056 A 
ATOM      8  S   LIG    1       26.464 -19.689   4.209  0.00  0.00    -0.088 S 
ATOM      9  C   LIG    1       24.979 -20.245   5.043  0.00  0.00    +0.021 A 
ATOM     10  C   LIG    1       23.746 -19.938   4.449  0.00  0.00    +0.015 A 
ATOM     11  C   LIG    1       22.552 -20.264   5.092  0.00  0.00    +0.001 A 
ATOM     12  C   LIG    1       22.584 -20.869   6.344  0.00  0.00    +0.001 A 
ATOM     13  C   LIG    1       23.810 -21.204   6.929  0.00  0.00    +0.009 A 
ATOM     14  C   LIG    1       28.508 -20.404   7.691  0.00  0.00    +0.022 A 
ATOM     15  C   LIG    1       25.017 -20.949   6.260  0.00  0.00    -0.004 A 
ENDROOT
BRANCH   7  16
ATOM     16  C   LIG    1       30.751 -19.671   8.570  0.00  0.00    +0.417 C 
ATOM     17  F   LIG    1       31.948 -19.249   8.075  0.00  0.00    -0.166 F 
ATOM     18  F   LIG    1       30.963 -20.934   9.030  0.00  0.00    -0.166 F 
ATOM     19  F   LIG    1       30.516 -18.905   9.673  0.00  0.00    -0.166 F 
ENDBRANCH   7  16
BRANCH   1  20
ATOM     20  C   LIG    1       25.655 -23.813   7.279  0.00  0.00    +0.043 C 
BRANCH  20  21
ATOM     21  C   LIG    1       25.567 -24.598   5.942  0.00  0.00    +0.088 C 
BRANCH  21  25
ATOM     22  N   LIG    1       24.506 -28.235   5.855  0.00  0.00    -0.298 NA
ATOM     23  C   LIG    1       24.858 -27.460   7.059  0.00  0.00    +0.100 C 
ATOM     24  C   LIG    1       26.223 -26.742   6.998  0.00  0.00    +0.100 C 
ATOM     25  N   LIG    1       26.378 -25.832   5.849  0.00  0.00    -0.300 NA
ATOM     26  C   LIG    1       26.059 -26.592   4.616  0.00  0.00    +0.100 C 
ATOM     27  C   LIG    1       24.729 -27.398   4.651  0.00  0.00    +0.100 C 
BRANCH  22  28
ATOM     28  C   LIG    1       25.217 -29.523   5.741  0.00  0.00    +0.112 C 
BRANCH  28  29
ATOM     29  C   LIG    1       24.501 -30.721   6.393  0.00  0.00    +0.171 C 
BRANCH  29  30
ATOM     30  O   LIG    1       23.288 -31.002   5.698  0.00  0.00    -0.394 OA
ATOM     31  H   LIG    1       22.825 -31.685   6.214  0.00  0.00    +0.209 HD
ENDBRANCH  29  30
ENDBRANCH  28  29
ENDBRANCH  22  28
ENDBRANCH  21  25
ENDBRANCH  20  21
ENDBRANCH   1  20
TORSDOF 7
ENDMDL
MODEL 3
REMARK VINA RESULT:      -8.2      1.785      2.261
REMARK  Name = *****
REMARK                            x       y       z     vdW  Elec       q    Type
REMARK                         _______ _______ _______ _____ _____    ______ ____
ROOT
ATOM      1  C   LIG    1       26.396 -21.383   6.545  0.00  0.00    -0.017 C 
ATOM      2  C   LIG    1       25.280 -21.748   5.883  0.00  0.00    -0.013 C 
ATOM      3  C   LIG    1       24.836 -23.162   6.045  0.00  0.00    -0.003 A 
ATOM      4  C   LIG    1       23.473 -23.431   6.265  0.00  0.00    +0.021 A 
ATOM      5  C   LIG    1       23.048 -24.754   6.447  0.00  0.00    +0.016 A 
ATOM      6  C   LIG    1       23.969 -25.806   6.437  0.00  0.00    +0.013 A 
ATOM      7  C   LIG    1       25.331 -25.555   6.233  0.00  0.00    +0.056 A 
ATOM      8  S   LIG    1       22.252 -22.127   6.409  0.00  0.00    -0.088 S 
ATOM      9  C   LIG    1       23.007 -20.815   5.450  0.00  0.00    +0.021 A 
ATOM     10  C   LIG    1       22.162 -19.831   4.916  0.00  0.00    +0.015 A 
ATOM     11  C   LIG    1       22.676 -18.834   4.088  0.00  0.00    +0.001 A 
ATOM     12  C   LIG    1       24.029 -18.833   3.763  0.00  0.00    +0.001 A 
ATOM     13  C   LIG    1       24.882 -19.795   4.315  0.00  0.00    +0.009 A 
ATOM     14  C   LIG    1       25.747 -24.234   6.002  0.00  0.00    +0.022 A 
ATOM     15  C   LIG    1       24.391 -20.759   5.209  0.00  0.00    -0.004 A 
ENDROOT
BRANCH   7  16
ATOM     16  C   LIG    1       26.358 -26.658   6.301  0.00  0.00    +0.417 C 
ATOM     17  F   LIG    1       26.006 -27.737   5.546  0.00  0.00    -0.166 F 
ATOM     18  F   LIG    1       26.538 -27.132   7.565  0.00  0.00    -0.166 F 
ATOM     19  F   LIG    1       27.592 -26.285   5.860  0.00  0.00    -0.166 F 
ENDBRANCH   7  16
BRANCH   1  20
ATOM     20  C   LIG    1       26.995 -20.010   6.727  0.00  0.00    +0.043 C 
BRANCH  20  21
ATOM     21  C   LIG    1       28.081 -19.651   5.676  0.00  0.00    +0.088 C 
BRANCH  21  25
ATOM     22  N   LIG    1       30.143 -19.791   8.852  0.00  0.00    -0.298 NA
ATOM     23  C   LIG    1       30.173 -18.718   7.842  0.00  0.00    +0.100 C 
ATOM     24  C   LIG    1       30.409 -19.192   6.392  0.00  0.00    +0.100 C 
ATOM     25  N   LIG    1       29.436 -20.194   5.917  0.00  0.00    -0.300 NA
ATOM     26  C   LIG    1       29.402 -21.303   6.900  0.00  0.00    +0.100 C 
ATOM     27  C   LIG    1       29.245 -20.876   8.388  0.00  0.00    +0.100 C 
BRANCH  22  28
ATOM     28  C   LIG    1       31.473 -20.322   9.206  0.00  0.00    +0.112 C 
BRANCH  28  29
ATOM     29  C   LIG    1       31.513 -21.832   9.506  0.00  0.00    +0.171 C 
BRANCH  29  30
ATOM     30  O   LIG    1       32.309 -22.503   8.533  0.00  0.00    -0.394 OA
ATOM     31  H   LIG    1       32.716 -23.263   8.983  0.00  0.00    +0.209 HD
ENDBRANCH  29  30
ENDBRANCH  28  29
ENDBRANCH  22  28
ENDBRANCH  21  25
ENDBRANCH  20  21
ENDBRANCH   1  20
TORSDOF 7
ENDMDL
MODEL 4
REMARK VINA RESULT:      -7.7      4.549      7.822
REMARK  Name = *****
REMARK                            x       y       z     vdW  Elec       q    Type
REMARK                         _______ _______ _______ _____ _____    ______ ____
ROOT
ATOM      1  C   LIG    1       26.383 -22.003   7.820  0.00  0.00    -0.017 C 
ATOM      2  C   LIG    1       26.282 -20.863   7.107  0.00  0.00    -0.013 C 
ATOM      3  C   LIG    1       27.545 -20.103   6.875  0.00  0.00    -0.003 A 
ATOM      4  C   LIG    1       27.808 -19.589   5.593  0.00  0.00    +0.021 A 
ATOM      5  C   LIG    1       29.004 -18.897   5.356  0.00  0.00    +0.016 A 
ATOM      6  C   LIG    1       29.948 -18.736   6.375  0.00  0.00    +0.013 A 
ATOM      7  C   LIG    1       29.708 -19.254   7.653  0.00  0.00    +0.056 A 
ATOM      8  S   LIG    1       26.702 -19.857   4.208  0.00  0.00    -0.088 S 
ATOM      9  C   LIG    1       25.130 -20.080   5.038  0.00  0.00    +0.021 A 
ATOM     10  C   LIG    1       23.964 -19.821   4.302  0.00  0.00    +0.015 A 
ATOM     11  C   LIG    1       22.714 -19.889   4.915  0.00  0.00    +0.001 A 
ATOM     12  C   LIG    1       22.623 -20.185   6.271  0.00  0.00    +0.001 A 
ATOM     13  C   LIG    1       23.779 -20.473   7.004  0.00  0.00    +0.009 A 
ATOM     14  C   LIG    1       28.487 -19.903   7.900  0.00  0.00    +0.022 A 
ATOM     15  C   LIG    1       25.038 -20.481   6.383  0.00  0.00    -0.004 A 
ENDROOT
BRANCH   7  16
ATOM     16  C   LIG    1       30.742 -19.169   8.748  0.00  0.00    +0.417 C 
ATOM     17  F   LIG    1       31.898 -18.587   8.322  0.00  0.00    -0.166 F 
ATOM     18  F   LIG    1       31.098 -20.391   9.231  0.00  0.00    -0.166 F 
ATOM     19  F   LIG    1       30.337 -18.442   9.827  0.00  0.00    -0.166 F 
ENDBRANCH   7  16
BRANCH   1  20
ATOM     20  C   LIG    1       25.345 -23.069   8.072  0.00  0.00    +0.043 C 
BRANCH  20  21
ATOM     21  C   LIG    1       24.703 -23.642   6.779  0.00  0.00    +0.088 C 
BRANCH  21  25
ATOM     22  N   LIG    1       24.918 -27.375   6.164  0.00  0.00    -0.298 NA
ATOM     23  C   LIG    1       25.695 -26.610   7.157  0.00  0.00    +0.100 C 
ATOM     24  C   LIG    1       26.451 -25.388   6.594  0.00  0.00    +0.100 C 
ATOM     25  N   LIG    1       25.595 -24.418   5.889  0.00  0.00    -0.300 NA
ATOM     26  C   LIG    1       24.819 -25.152   4.861  0.00  0.00    +0.100 C 
ATOM     27  C   LIG    1       24.098 -26.439   5.357  0.00  0.00    +0.100 C 
BRANCH  22  28
ATOM     28  C   LIG    1       25.739 -28.240   5.295  0.00  0.00    +0.112 C 
BRANCH  28  29
ATOM     29  C   LIG    1       26.537 -27.499   4.207  0.00  0.00    +0.171 C 
BRANCH  29  30
ATOM     30  O   LIG    1       27.927 -27.517   4.522  0.00  0.00    -0.394 OA
ATOM     31  H   LIG    1       27.996 -27.377   5.483  0.00  0.00    +0.209 HD
ENDBRANCH  29  30
ENDBRANCH  28  29
ENDBRANCH  22  28
ENDBRANCH  21  25
ENDBRANCH  20  21
ENDBRANCH   1  20
TORSDOF 7
ENDMDL
