MODEL 1
REMARK VINA RESULT:      -3.7      0.000      0.000
REMARK  Name = *****
REMARK                            x       y       z     vdW  Elec       q    Type
REMARK                         _______ _______ _______ _____ _____    ______ ____
ROOT
ATOM      1  C   LIG    1       24.766 -13.437   4.261  0.00  0.00    +0.175 C 
ENDROOT
BRANCH   1   3
ATOM      2  O   LIG    1       23.473 -11.447   3.642  0.00  0.00    -0.250 OA
ATOM      3  C   LIG    1       23.984 -12.519   3.337  0.00  0.00    +0.319 C 
BRANCH   3   4
ATOM      4  O   LIG    1       23.915 -12.961   2.070  0.00  0.00    -0.480 OA
ATOM      5  H   LIG    1       23.105 -12.551   1.698  0.00  0.00    +0.295 HD
ENDBRANCH   3   4
ENDBRANCH   1   3
BRANCH   1   6
ATOM      6  S   LIG    1       24.145 -15.156   4.065  0.00  0.00    -0.162 S 
ATOM      7  H   LIG    1       23.129 -14.862   3.238  0.00  0.00    +0.102 HD
ENDBRANCH   1   6
BRANCH   1   8
ATOM      8  C   LIG    1       26.284 -13.326   4.038  0.00  0.00    +0.175 C 
BRANCH   8   9
ATOM      9  C   LIG    1       26.740 -14.419   3.075  0.00  0.00    +0.319 C 
ATOM     10  O   LIG    1       26.488 -14.411   1.879  0.00  0.00    -0.250 OA
BRANCH   9  11
ATOM     11  O   LIG    1       27.520 -15.378   3.625  0.00  0.00    -0.480 OA
ATOM     12  H   LIG    1       27.562 -16.186   3.067  0.00  0.00    +0.295 HD
ENDBRANCH   9  11
ENDBRANCH   8   9
BRANCH   8  13
ATOM     13  S   LIG    1       27.333 -13.326   5.564  0.00  0.00    -0.162 S 
ATOM     14  H   LIG    1       27.984 -12.175   5.288  0.00  0.00    +0.102 HD
ENDBRANCH   8  13
ENDBRANCH   1   8
TORSDOF 7
ENDMDL
MODEL 2
REMARK VINA RESULT:      -3.7      1.865      1.966
REMARK  Name = *****
REMARK                            x       y       z     vdW  Elec       q    Type
REMARK                         _______ _______ _______ _____ _____    ______ ____
ROOT
ATOM      1  C   LIG    1       25.097 -13.782   2.991  0.00  0.00    +0.175 C 
ENDROOT
BRANCH   1   3
ATOM      2  O   LIG    1       23.787 -12.605   4.697  0.00  0.00    -0.250 OA
ATOM      3  C   LIG    1       24.109 -13.646   4.137  0.00  0.00    +0.319 C 
BRANCH   3   4
ATOM      4  O   LIG    1       23.539 -14.809   4.497  0.00  0.00    -0.480 OA
ATOM      5  H   LIG    1       22.873 -14.996   3.802  0.00  0.00    +0.295 HD
ENDBRANCH   3   4
ENDBRANCH   1   3
BRANCH   1   6
ATOM      6  S   LIG    1       25.022 -12.269   1.949  0.00  0.00    -0.162 S 
ATOM      7  H   LIG    1       25.731 -11.479   2.771  0.00  0.00    +0.102 HD
ENDBRANCH   1   6
BRANCH   1   8
ATOM      8  C   LIG    1       26.521 -14.090   3.487  0.00  0.00    +0.175 C 
BRANCH   8   9
ATOM      9  C   LIG    1       26.730 -15.601   3.531  0.00  0.00    +0.319 C 
ATOM     10  O   LIG    1       25.931 -16.405   3.074  0.00  0.00    -0.250 OA
BRANCH   9  11
ATOM     11  O   LIG    1       27.914 -16.000   4.051  0.00  0.00    -0.480 OA
ATOM     12  H   LIG    1       28.129 -16.928   3.811  0.00  0.00    +0.295 HD
ENDBRANCH   9  11
ENDBRANCH   8   9
BRANCH   8  13
ATOM     13  S   LIG    1       27.005 -13.320   5.100  0.00  0.00    -0.162 S 
ATOM     14  H   LIG    1       25.865 -12.614   5.267  0.00  0.00    +0.102 HD
ENDBRANCH   8  13
ENDBRANCH   1   8
TORSDOF 7
ENDMDL
MODEL 3
REMARK VINA RESULT:      -3.7      1.110      3.601
REMARK  Name = *****
REMARK                            x       y       z     vdW  Elec       q    Type
REMARK                         _______ _______ _______ _____ _____    ______ ____
ROOT
ATOM      1  C   LIG    1       26.267 -14.284   4.067  0.00  0.00    +0.175 C 
ENDROOT
BRANCH   1   3
ATOM      2  O   LIG    1       28.425 -13.355   3.364  0.00  0.00    -0.250 OA
ATOM      3  C   LIG    1       27.359 -13.893   3.086  0.00  0.00    +0.319 C 
BRANCH   3   4
ATOM      4  O   LIG    1       27.086 -14.229   1.813  0.00  0.00    -0.480 OA
ATOM      5  H   LIG    1       26.629 -15.094   1.869  0.00  0.00    +0.295 HD
ENDBRANCH   3   4
ENDBRANCH   1   3
BRANCH   1   6
ATOM      6  S   LIG    1       26.461 -13.298   5.606  0.00  0.00    -0.162 S 
ATOM      7  H   LIG    1       27.454 -12.511   5.163  0.00  0.00    +0.102 HD
ENDBRANCH   1   6
BRANCH   1   8
ATOM      8  C   LIG    1       24.862 -14.153   3.452  0.00  0.00    +0.175 C 
BRANCH   8   9
ATOM      9  C   LIG    1       24.570 -12.684   3.155  0.00  0.00    +0.319 C 
ATOM     10  O   LIG    1       24.909 -12.126   2.121  0.00  0.00    -0.250 OA
BRANCH   9  11
ATOM     11  O   LIG    1       23.832 -12.047   4.092  0.00  0.00    -0.480 OA
ATOM     12  H   LIG    1       23.261 -11.349   3.702  0.00  0.00    +0.295 HD
ENDBRANCH   9  11
ENDBRANCH   8   9
BRANCH   8  13
ATOM     13  S   LIG    1       23.476 -14.909   4.419  0.00  0.00    -0.162 S 
ATOM     14  H   LIG    1       23.428 -13.950   5.369  0.00  0.00    +0.102 HD
ENDBRANCH   8  13
ENDBRANCH   1   8
TORSDOF 7
ENDMDL
MODEL 4
REMARK VINA RESULT:      -3.5      2.017      2.113
REMARK  Name = *****
REMARK                            x       y       z     vdW  Elec       q    Type
REMARK                         _______ _______ _______ _____ _____    ______ ____
ROOT
ATOM      1  C   LIG    1       24.946 -13.297   3.285  0.00  0.00    +0.175 C 
ENDROOT
BRANCH   1   3
ATOM      2  O   LIG    1       23.404 -14.506   4.759  0.00  0.00    -0.250 OA
ATOM      3  C   LIG    1       24.343 -14.511   3.971  0.00  0.00    +0.319 C 
BRANCH   3   4
ATOM      4  O   LIG    1       24.912 -15.673   3.607  0.00  0.00    -0.480 OA
ATOM      5  H   LIG    1       25.870 -15.555   3.779  0.00  0.00    +0.295 HD
ENDBRANCH   3   4
ENDBRANCH   1   3
BRANCH   1   6
ATOM      6  S   LIG    1       23.836 -11.852   3.533  0.00  0.00    -0.162 S 
ATOM      7  H   LIG    1       23.476 -12.148   4.793  0.00  0.00    +0.102 HD
ENDBRANCH   1   6
BRANCH   1   8
ATOM      8  C   LIG    1       26.387 -13.024   3.752  0.00  0.00    +0.175 C 
BRANCH   8   9
ATOM      9  C   LIG    1       27.368 -13.734   2.823  0.00  0.00    +0.319 C 
ATOM     10  O   LIG    1       27.025 -14.337   1.816  0.00  0.00    -0.250 OA
BRANCH   9  11
ATOM     11  O   LIG    1       28.673 -13.587   3.147  0.00  0.00    -0.480 OA
ATOM     12  H   LIG    1       29.157 -14.441   3.127  0.00  0.00    +0.295 HD
ENDBRANCH   9  11
ENDBRANCH   8   9
BRANCH   8  13
ATOM     13  S   LIG    1       26.760 -13.428   5.521  0.00  0.00    -0.162 S 
ATOM     14  H   LIG    1       27.156 -14.700   5.294  0.00  0.00    +0.102 HD
ENDBRANCH   8  13
ENDBRANCH   1   8
TORSDOF 7
ENDMDL
MODEL 5
REMARK VINA RESULT:      -3.5      2.058      3.522
REMARK  Name = *****
REMARK                            x       y       z     vdW  Elec       q    Type
REMARK                         _______ _______ _______ _____ _____    ______ ____
ROOT
ATOM      1  C   LIG    1       26.390 -14.121   4.243  0.00  0.00    +0.175 C 
ENDROOT
BRANCH   1   3
ATOM      2  O   LIG    1       26.673 -14.354   1.818  0.00  0.00    -0.250 OA
ATOM      3  C   LIG    1       26.973 -13.811   2.875  0.00  0.00    +0.319 C 
BRANCH   3   4
ATOM      4  O   LIG    1       27.870 -12.809   2.886  0.00  0.00    -0.480 OA
ATOM      5  H   LIG    1       27.840 -12.448   3.797  0.00  0.00    +0.295 HD
ENDBRANCH   3   4
ENDBRANCH   1   3
BRANCH   1   6
ATOM      6  S   LIG    1       27.358 -13.229   5.526  0.00  0.00    -0.162 S 
ATOM      7  H   LIG    1       27.753 -14.317   6.207  0.00  0.00    +0.102 HD
ENDBRANCH   1   6
BRANCH   1   8
ATOM      8  C   LIG    1       24.884 -13.811   4.314  0.00  0.00    +0.175 C 
BRANCH   8   9
ATOM      9  C   LIG    1       24.090 -15.109   4.189  0.00  0.00    +0.319 C 
ATOM     10  O   LIG    1       22.911 -15.209   4.499  0.00  0.00    -0.250 OA
BRANCH   9  11
ATOM     11  O   LIG    1       24.763 -16.141   3.632  0.00  0.00    -0.480 OA
ATOM     12  H   LIG    1       25.400 -16.548   4.259  0.00  0.00    +0.295 HD
ENDBRANCH   9  11
ENDBRANCH   8   9
BRANCH   8  13
ATOM     13  S   LIG    1       24.255 -12.546   3.117  0.00  0.00    -0.162 S 
ATOM     14  H   LIG    1       25.137 -12.832   2.135  0.00  0.00    +0.102 HD
ENDBRANCH   8  13
ENDBRANCH   1   8
TORSDOF 7
ENDMDL
MODEL 6
REMARK VINA RESULT:      -3.4      2.453      3.828
REMARK  Name = *****
REMARK                            x       y       z     vdW  Elec       q    Type
REMARK                         _______ _______ _______ _____ _____    ______ ____
ROOT
ATOM      1  C   LIG    1       27.081 -13.715   3.011  0.00  0.00    +0.175 C 
ENDROOT
BRANCH   1   3
ATOM      2  O   LIG    1       28.288 -12.731   4.906  0.00  0.00    -0.250 OA
ATOM      3  C   LIG    1       28.294 -13.224   3.783  0.00  0.00    +0.319 C 
BRANCH   3   4
ATOM      4  O   LIG    1       29.456 -13.411   3.136  0.00  0.00    -0.480 OA
ATOM      5  H   LIG    1       29.480 -14.367   2.921  0.00  0.00    +0.295 HD
ENDBRANCH   3   4
ENDBRANCH   1   3
BRANCH   1   6
ATOM      6  S   LIG    1       26.771 -15.477   3.436  0.00  0.00    -0.162 S 
ATOM      7  H   LIG    1       27.307 -16.001   2.322  0.00  0.00    +0.102 HD
ENDBRANCH   1   6
BRANCH   1   8
ATOM      8  C   LIG    1       25.848 -12.824   3.242  0.00  0.00    +0.175 C 
BRANCH   8   9
ATOM      9  C   LIG    1       25.103 -13.296   4.488  0.00  0.00    +0.319 C 
ATOM     10  O   LIG    1       24.082 -13.969   4.447  0.00  0.00    -0.250 OA
BRANCH   9  11
ATOM     11  O   LIG    1       25.695 -12.982   5.662  0.00  0.00    -0.480 OA
ATOM     12  H   LIG    1       25.041 -12.864   6.386  0.00  0.00    +0.295 HD
ENDBRANCH   9  11
ENDBRANCH   8   9
BRANCH   8  13
ATOM     13  S   LIG    1       24.683 -12.659   1.812  0.00  0.00    -0.162 S 
ATOM     14  H   LIG    1       24.765 -11.314   1.718  0.00  0.00    +0.102 HD
ENDBRANCH   8  13
ENDBRANCH   1   8
TORSDOF 7
ENDMDL
MODEL 7
REMARK VINA RESULT:      -3.4      2.700      3.538
REMARK  Name = *****
REMARK                            x       y       z     vdW  Elec       q    Type
REMARK                         _______ _______ _______ _____ _____    ______ ____
ROOT
ATOM      1  C   LIG    1       26.862 -13.761   3.020  0.00  0.00    +0.175 C 
ENDROOT
BRANCH   1   3
ATOM      2  O   LIG    1       25.888 -16.002   3.236  0.00  0.00    -0.250 OA
ATOM      3  C   LIG    1       26.814 -15.223   3.433  0.00  0.00    +0.319 C 
BRANCH   3   4
ATOM      4  O   LIG    1       27.938 -15.650   4.034  0.00  0.00    -0.480 OA
ATOM      5  H   LIG    1       28.175 -14.941   4.668  0.00  0.00    +0.295 HD
ENDBRANCH   3   4
ENDBRANCH   1   3
BRANCH   1   6
ATOM      6  S   LIG    1       25.289 -13.323   2.175  0.00  0.00    -0.162 S 
ATOM      7  H   LIG    1       24.512 -14.202   2.829  0.00  0.00    +0.102 HD
ENDBRANCH   1   6
BRANCH   1   8
ATOM      8  C   LIG    1       27.176 -12.834   4.207  0.00  0.00    +0.175 C 
BRANCH   8   9
ATOM      9  C   LIG    1       28.683 -12.612   4.296  0.00  0.00    +0.319 C 
ATOM     10  O   LIG    1       29.475 -13.021   3.458  0.00  0.00    -0.250 OA
BRANCH   9  11
ATOM     11  O   LIG    1       29.090 -11.856   5.341  0.00  0.00    -0.480 OA
ATOM     12  H   LIG    1       29.196 -12.385   6.162  0.00  0.00    +0.295 HD
ENDBRANCH   9  11
ENDBRANCH   8   9
BRANCH   8  13
ATOM     13  S   LIG    1       26.497 -13.354   5.849  0.00  0.00    -0.162 S 
ATOM     14  H   LIG    1       25.195 -13.258   5.500  0.00  0.00    +0.102 HD
ENDBRANCH   8  13
ENDBRANCH   1   8
TORSDOF 7
ENDMDL
MODEL 8
REMARK VINA RESULT:      -3.4      1.831      2.072
REMARK  Name = *****
REMARK                            x       y       z     vdW  Elec       q    Type
REMARK                         _______ _______ _______ _____ _____    ______ ____
ROOT
ATOM      1  C   LIG    1       24.620 -13.761   4.460  0.00  0.00    +0.175 C 
ENDROOT
BRANCH   1   3
ATOM      2  O   LIG    1       24.124 -11.467   3.749  0.00  0.00    -0.250 OA
ATOM      3  C   LIG    1       24.090 -12.674   3.540  0.00  0.00    +0.319 C 
BRANCH   3   4
ATOM      4  O   LIG    1       23.582 -13.144   2.388  0.00  0.00    -0.480 OA
ATOM      5  H   LIG    1       24.020 -12.623   1.683  0.00  0.00    +0.295 HD
ENDBRANCH   3   4
ENDBRANCH   1   3
BRANCH   1   6
ATOM      6  S   LIG    1       23.454 -15.182   4.447  0.00  0.00    -0.162 S 
ATOM      7  H   LIG    1       22.379 -14.505   4.881  0.00  0.00    +0.102 HD
ENDBRANCH   1   6
BRANCH   1   8
ATOM      8  C   LIG    1       26.059 -14.171   4.102  0.00  0.00    +0.175 C 
BRANCH   8   9
ATOM      9  C   LIG    1       27.039 -13.458   5.030  0.00  0.00    +0.319 C 
ATOM     10  O   LIG    1       28.070 -12.928   4.641  0.00  0.00    -0.250 OA
BRANCH   9  11
ATOM     11  O   LIG    1       26.651 -13.383   6.323  0.00  0.00    -0.480 OA
ATOM     12  H   LIG    1       25.679 -13.268   6.412  0.00  0.00    +0.295 HD
ENDBRANCH   9  11
ENDBRANCH   8   9
BRANCH   8  13
ATOM     13  S   LIG    1       26.556 -13.941   2.333  0.00  0.00    -0.162 S 
ATOM     14  H   LIG    1       27.277 -15.080   2.240  0.00  0.00    +0.102 HD
ENDBRANCH   8  13
ENDBRANCH   1   8
TORSDOF 7
ENDMDL
MODEL 9
REMARK VINA RESULT:      -3.2      6.755      7.995
REMARK  Name = *****
REMARK                            x       y       z     vdW  Elec       q    Type
REMARK                         _______ _______ _______ _____ _____    ______ ____
ROOT
ATOM      1  C   LIG    1       25.079 -21.037   5.544  0.00  0.00    +0.175 C 
ENDROOT
BRANCH   1   3
ATOM      2  O   LIG    1       26.960 -20.615   7.060  0.00  0.00    -0.250 OA
ATOM      3  C   LIG    1       26.465 -20.558   5.940  0.00  0.00    +0.319 C 
BRANCH   3   4
ATOM      4  O   LIG    1       27.181 -20.071   4.912  0.00  0.00    -0.480 OA
ATOM      5  H   LIG    1       28.119 -20.197   5.169  0.00  0.00    +0.295 HD
ENDBRANCH   3   4
ENDBRANCH   1   3
BRANCH   1   6
ATOM      6  S   LIG    1       24.141 -21.482   7.061  0.00  0.00    -0.162 S 
ATOM      7  H   LIG    1       24.972 -20.893   7.936  0.00  0.00    +0.102 HD
ENDBRANCH   1   6
BRANCH   1   8
ATOM      8  C   LIG    1       24.339 -20.009   4.670  0.00  0.00    +0.175 C 
BRANCH   8   9
ATOM      9  C   LIG    1       22.846 -20.053   4.982  0.00  0.00    +0.319 C 
ATOM     10  O   LIG    1       22.195 -19.069   5.303  0.00  0.00    -0.250 OA
BRANCH   9  11
ATOM     11  O   LIG    1       22.260 -21.259   4.806  0.00  0.00    -0.480 OA
ATOM     12  H   LIG    1       22.453 -21.638   3.920  0.00  0.00    +0.295 HD
ENDBRANCH   9  11
ENDBRANCH   8   9
BRANCH   8  13
ATOM     13  S   LIG    1       24.624 -20.136   2.845  0.00  0.00    -0.162 S 
ATOM     14  H   LIG    1       24.702 -21.485   2.809  0.00  0.00    +0.102 HD
ENDBRANCH   8  13
ENDBRANCH   1   8
TORSDOF 7
ENDMDL
