MODEL 1
REMARK VINA RESULT:      -5.7      0.000      0.000
REMARK  Name = *****
REMARK                            x       y       z     vdW  Elec       q    Type
REMARK                         _______ _______ _______ _____ _____    ______ ____
ROOT
ATOM      1  C   LIG    1       22.083 -17.897   4.190  0.00  0.00    +0.000 C 
ENDROOT
BRANCH   1   2
ATOM      2  C   LIG    1       22.158 -17.048   5.468  0.00  0.00    -0.000 C 
BRANCH   2   3
ATOM      3  C   LIG    1       22.450 -15.591   5.093  0.00  0.00    +0.000 C 
BRANCH   3   4
ATOM      4  C   LIG    1       23.631 -15.407   4.135  0.00  0.00    +0.000 C 
BRANCH   4   5
ATOM      5  C   LIG    1       23.635 -13.969   3.610  0.00  0.00    +0.011 C 
BRANCH   5   6
ATOM      6  C   LIG    1       24.962 -13.248   3.828  0.00  0.00    +0.120 C 
BRANCH   6   7
ATOM      7  C   LIG    1       25.655 -12.999   2.504  0.00  0.00    +0.307 C 
ATOM      8  O   LIG    1       25.522 -11.998   1.818  0.00  0.00    -0.251 OA
BRANCH   7   9
ATOM      9  O   LIG    1       26.449 -14.063   2.193  0.00  0.00    -0.465 OA
BRANCH   9  11
ATOM     10  C   LIG    1       28.177 -13.490   3.798  0.00  0.00    +0.048 C 
ATOM     11  C   LIG    1       27.236 -14.564   3.284  0.00  0.00    +0.228 C 
ENDBRANCH   9  11
ENDBRANCH   7   9
ENDBRANCH   6   7
ENDBRANCH   5   6
ENDBRANCH   4   5
ENDBRANCH   3   4
ENDBRANCH   2   3
ENDBRANCH   1   2
BRANCH   1  12
ATOM     12  C   LIG    1       22.083 -19.404   4.455  0.00  0.00    +0.001 C 
BRANCH  12  13
ATOM     13  C   LIG    1       23.475 -20.001   4.177  0.00  0.00    +0.008 C 
BRANCH  13  14
ATOM     14  C   LIG    1       24.008 -20.907   5.317  0.00  0.00    +0.017 C 
ATOM     15  C   LIG    1       23.171 -20.699   6.589  0.00  0.00    +0.012 C 
BRANCH  14  16
ATOM     16  C   LIG    1       25.482 -20.719   5.667  0.00  0.00    -0.031 A 
ATOM     17  C   LIG    1       26.332 -19.835   4.969  0.00  0.00    +0.017 A 
ATOM     18  I   LIG    1       25.721 -18.672   3.320  0.00  0.00    -0.043 I 
ATOM     19  C   LIG    1       27.681 -19.700   5.334  0.00  0.00    +0.014 A 
ATOM     20  C   LIG    1       28.208 -20.452   6.381  0.00  0.00    +0.001 A 
ATOM     21  C   LIG    1       27.398 -21.350   7.061  0.00  0.00    +0.000 A 
ATOM     22  C   LIG    1       26.057 -21.488   6.700  0.00  0.00    +0.005 A 
ENDBRANCH  14  16
ENDBRANCH  13  14
ENDBRANCH  12  13
ENDBRANCH   1  12
TORSDOF 12
ENDMDL
MODEL 2
REMARK VINA RESULT:      -5.5      3.127      7.727
REMARK  Name = *****
REMARK                            x       y       z     vdW  Elec       q    Type
REMARK                         _______ _______ _______ _____ _____    ______ ____
ROOT
ATOM      1  C   LIG    1       26.307 -17.849   3.563  0.00  0.00    +0.000 C 
ENDROOT
BRANCH   1   2
ATOM      2  C   LIG    1       25.104 -18.748   3.243  0.00  0.00    -0.000 C 
BRANCH   2   3
ATOM      3  C   LIG    1       25.390 -20.171   3.732  0.00  0.00    +0.000 C 
BRANCH   3   4
ATOM      4  C   LIG    1       25.855 -20.261   5.188  0.00  0.00    +0.000 C 
BRANCH   4   5
ATOM      5  C   LIG    1       24.641 -20.487   6.093  0.00  0.00    +0.011 C 
BRANCH   5   6
ATOM      6  C   LIG    1       23.643 -21.495   5.529  0.00  0.00    +0.120 C 
BRANCH   6   7
ATOM      7  C   LIG    1       22.332 -20.814   5.195  0.00  0.00    +0.307 C 
ATOM      8  O   LIG    1       21.337 -21.376   4.767  0.00  0.00    -0.251 OA
BRANCH   7   9
ATOM      9  O   LIG    1       22.431 -19.477   5.444  0.00  0.00    -0.465 OA
BRANCH   9  11
ATOM     10  C   LIG    1       22.251 -17.178   4.686  0.00  0.00    +0.048 C 
ATOM     11  C   LIG    1       21.931 -18.633   4.395  0.00  0.00    +0.228 C 
ENDBRANCH   9  11
ENDBRANCH   7   9
ENDBRANCH   6   7
ENDBRANCH   5   6
ENDBRANCH   4   5
ENDBRANCH   3   4
ENDBRANCH   2   3
ENDBRANCH   1   2
BRANCH   1  12
ATOM     12  C   LIG    1       26.068 -16.370   3.252  0.00  0.00    +0.001 C 
BRANCH  12  13
ATOM     13  C   LIG    1       27.316 -15.536   3.598  0.00  0.00    +0.008 C 
BRANCH  13  14
ATOM     14  C   LIG    1       27.330 -14.128   2.950  0.00  0.00    +0.017 C 
ATOM     15  C   LIG    1       28.515 -13.313   3.489  0.00  0.00    +0.012 C 
BRANCH  14  16
ATOM     16  C   LIG    1       26.053 -13.312   3.132  0.00  0.00    -0.031 A 
ATOM     17  C   LIG    1       25.562 -12.921   4.396  0.00  0.00    +0.017 A 
ATOM     18  I   LIG    1       26.482 -13.432   6.223  0.00  0.00    -0.043 I 
ATOM     19  C   LIG    1       24.382 -12.170   4.505  0.00  0.00    +0.014 A 
ATOM     20  C   LIG    1       23.664 -11.811   3.367  0.00  0.00    +0.001 A 
ATOM     21  C   LIG    1       24.112 -12.211   2.116  0.00  0.00    +0.000 A 
ATOM     22  C   LIG    1       25.283 -12.960   2.003  0.00  0.00    +0.005 A 
ENDBRANCH  14  16
ENDBRANCH  13  14
ENDBRANCH  12  13
ENDBRANCH   1  12
TORSDOF 12
ENDMDL
MODEL 3
REMARK VINA RESULT:      -5.3      1.610      2.340
REMARK  Name = *****
REMARK                            x       y       z     vdW  Elec       q    Type
REMARK                         _______ _______ _______ _____ _____    ______ ____
ROOT
ATOM      1  C   LIG    1       22.454 -19.709   4.906  0.00  0.00    +0.000 C 
ENDROOT
BRANCH   1   2
ATOM      2  C   LIG    1       21.803 -18.468   4.278  0.00  0.00    -0.000 C 
BRANCH   2   3
ATOM      3  C   LIG    1       22.394 -17.206   4.917  0.00  0.00    +0.000 C 
BRANCH   3   4
ATOM      4  C   LIG    1       22.765 -16.104   3.919  0.00  0.00    +0.000 C 
BRANCH   4   5
ATOM      5  C   LIG    1       23.454 -14.959   4.665  0.00  0.00    +0.011 C 
BRANCH   5   6
ATOM      6  C   LIG    1       24.813 -14.585   4.080  0.00  0.00    +0.120 C 
BRANCH   6   7
ATOM      7  C   LIG    1       24.736 -13.251   3.368  0.00  0.00    +0.307 C 
ATOM      8  O   LIG    1       23.785 -12.486   3.409  0.00  0.00    -0.251 OA
BRANCH   7   9
ATOM      9  O   LIG    1       25.888 -13.033   2.671  0.00  0.00    -0.465 OA
BRANCH   9  11
ATOM     10  C   LIG    1       28.089 -13.559   3.548  0.00  0.00    +0.048 C 
ATOM     11  C   LIG    1       26.872 -14.071   2.799  0.00  0.00    +0.228 C 
ENDBRANCH   9  11
ENDBRANCH   7   9
ENDBRANCH   6   7
ENDBRANCH   5   6
ENDBRANCH   4   5
ENDBRANCH   3   4
ENDBRANCH   2   3
ENDBRANCH   1   2
BRANCH   1  12
ATOM     12  C   LIG    1       23.486 -20.385   4.000  0.00  0.00    +0.001 C 
BRANCH  12  13
ATOM     13  C   LIG    1       24.196 -21.528   4.750  0.00  0.00    +0.008 C 
BRANCH  13  14
ATOM     14  C   LIG    1       25.422 -21.068   5.579  0.00  0.00    +0.017 C 
ATOM     15  C   LIG    1       24.992 -20.741   7.018  0.00  0.00    +0.012 C 
BRANCH  14  16
ATOM     16  C   LIG    1       26.182 -19.871   5.014  0.00  0.00    -0.031 A 
ATOM     17  C   LIG    1       27.483 -19.518   5.431  0.00  0.00    +0.017 A 
ATOM     18  I   LIG    1       28.562 -20.552   6.918  0.00  0.00    -0.043 I 
ATOM     19  C   LIG    1       28.136 -18.406   4.877  0.00  0.00    +0.014 A 
ATOM     20  C   LIG    1       27.503 -17.620   3.917  0.00  0.00    +0.001 A 
ATOM     21  C   LIG    1       26.212 -17.931   3.515  0.00  0.00    +0.000 A 
ATOM     22  C   LIG    1       25.559 -19.034   4.065  0.00  0.00    +0.005 A 
ENDBRANCH  14  16
ENDBRANCH  13  14
ENDBRANCH  12  13
ENDBRANCH   1  12
TORSDOF 12
ENDMDL
MODEL 4
REMARK VINA RESULT:      -5.1      2.994      6.700
REMARK  Name = *****
REMARK                            x       y       z     vdW  Elec       q    Type
REMARK                         _______ _______ _______ _____ _____    ______ ____
ROOT
ATOM      1  C   LIG    1       23.689 -17.681   4.060  0.00  0.00    +0.000 C 
ENDROOT
BRANCH   1   2
ATOM      2  C   LIG    1       23.061 -19.081   3.987  0.00  0.00    -0.000 C 
BRANCH   2   3
ATOM      3  C   LIG    1       22.494 -19.455   5.360  0.00  0.00    +0.000 C 
BRANCH   3   4
ATOM      4  C   LIG    1       22.927 -20.832   5.872  0.00  0.00    +0.000 C 
BRANCH   4   5
ATOM      5  C   LIG    1       23.917 -20.655   7.025  0.00  0.00    +0.011 C 
BRANCH   5   6
ATOM      6  C   LIG    1       25.230 -21.405   6.819  0.00  0.00    +0.120 C 
BRANCH   6   7
ATOM      7  C   LIG    1       26.259 -20.506   6.166  0.00  0.00    +0.307 C 
ATOM      8  O   LIG    1       26.214 -20.107   5.012  0.00  0.00    -0.251 OA
BRANCH   7   9
ATOM      9  O   LIG    1       27.245 -20.209   7.060  0.00  0.00    -0.465 OA
BRANCH   9  11
ATOM     10  C   LIG    1       29.357 -19.202   6.412  0.00  0.00    +0.048 C 
ATOM     11  C   LIG    1       28.576 -20.491   6.600  0.00  0.00    +0.228 C 
ENDBRANCH   9  11
ENDBRANCH   7   9
ENDBRANCH   6   7
ENDBRANCH   5   6
ENDBRANCH   4   5
ENDBRANCH   3   4
ENDBRANCH   2   3
ENDBRANCH   1   2
BRANCH   1  12
ATOM     12  C   LIG    1       22.671 -16.563   4.292  0.00  0.00    +0.001 C 
BRANCH  12  13
ATOM     13  C   LIG    1       23.332 -15.371   5.009  0.00  0.00    +0.008 C 
BRANCH  13  14
ATOM     14  C   LIG    1       23.671 -14.184   4.071  0.00  0.00    +0.017 C 
ATOM     15  C   LIG    1       22.916 -14.334   2.741  0.00  0.00    +0.012 C 
BRANCH  14  16
ATOM     16  C   LIG    1       25.155 -13.990   3.771  0.00  0.00    -0.031 A 
ATOM     17  C   LIG    1       25.651 -12.920   2.997  0.00  0.00    +0.017 A 
ATOM     18  I   LIG    1       24.430 -11.451   2.103  0.00  0.00    -0.043 I 
ATOM     19  C   LIG    1       27.026 -12.789   2.753  0.00  0.00    +0.014 A 
ATOM     20  C   LIG    1       27.926 -13.726   3.257  0.00  0.00    +0.001 A 
ATOM     21  C   LIG    1       27.457 -14.803   3.995  0.00  0.00    +0.000 A 
ATOM     22  C   LIG    1       26.090 -14.938   4.238  0.00  0.00    +0.005 A 
ENDBRANCH  14  16
ENDBRANCH  13  14
ENDBRANCH  12  13
ENDBRANCH   1  12
TORSDOF 12
ENDMDL
MODEL 5
REMARK VINA RESULT:      -4.6      3.212      6.938
REMARK  Name = *****
REMARK                            x       y       z     vdW  Elec       q    Type
REMARK                         _______ _______ _______ _____ _____    ______ ____
ROOT
ATOM      1  C   LIG    1       23.523 -16.667   4.130  0.00  0.00    +0.000 C 
ENDROOT
BRANCH   1   2
ATOM      2  C   LIG    1       22.106 -17.111   4.521  0.00  0.00    -0.000 C 
BRANCH   2   3
ATOM      3  C   LIG    1       22.002 -18.636   4.408  0.00  0.00    +0.000 C 
BRANCH   3   4
ATOM      4  C   LIG    1       23.197 -19.398   4.990  0.00  0.00    +0.000 C 
BRANCH   4   5
ATOM      5  C   LIG    1       22.692 -20.436   5.995  0.00  0.00    +0.011 C 
BRANCH   5   6
ATOM      6  C   LIG    1       23.776 -20.937   6.946  0.00  0.00    +0.120 C 
BRANCH   6   7
ATOM      7  C   LIG    1       25.110 -21.019   6.234  0.00  0.00    +0.307 C 
ATOM      8  O   LIG    1       25.303 -21.571   5.162  0.00  0.00    -0.251 OA
BRANCH   7   9
ATOM      9  O   LIG    1       26.066 -20.386   6.973  0.00  0.00    -0.465 OA
BRANCH   9  11
ATOM     10  C   LIG    1       28.174 -19.747   5.952  0.00  0.00    +0.048 C 
ATOM     11  C   LIG    1       27.410 -20.818   6.711  0.00  0.00    +0.228 C 
ENDBRANCH   9  11
ENDBRANCH   7   9
ENDBRANCH   6   7
ENDBRANCH   5   6
ENDBRANCH   4   5
ENDBRANCH   3   4
ENDBRANCH   2   3
ENDBRANCH   1   2
BRANCH   1  12
ATOM     12  C   LIG    1       23.608 -15.202   3.697  0.00  0.00    +0.001 C 
BRANCH  12  13
ATOM     13  C   LIG    1       23.196 -14.272   4.854  0.00  0.00    +0.008 C 
BRANCH  13  14
ATOM     14  C   LIG    1       24.229 -13.158   5.162  0.00  0.00    +0.017 C 
ATOM     15  C   LIG    1       23.670 -11.791   4.739  0.00  0.00    +0.012 C 
BRANCH  14  16
ATOM     16  C   LIG    1       25.602 -13.343   4.521  0.00  0.00    -0.031 A 
ATOM     17  C   LIG    1       25.880 -12.992   3.183  0.00  0.00    +0.017 A 
ATOM     18  I   LIG    1       24.449 -12.201   1.852  0.00  0.00    -0.043 I 
ATOM     19  C   LIG    1       27.161 -13.184   2.644  0.00  0.00    +0.014 A 
ATOM     20  C   LIG    1       28.178 -13.741   3.416  0.00  0.00    +0.001 A 
ATOM     21  C   LIG    1       27.918 -14.122   4.725  0.00  0.00    +0.000 A 
ATOM     22  C   LIG    1       26.644 -13.935   5.264  0.00  0.00    +0.005 A 
ENDBRANCH  14  16
ENDBRANCH  13  14
ENDBRANCH  12  13
ENDBRANCH   1  12
TORSDOF 12
ENDMDL
MODEL 6
REMARK VINA RESULT:      -4.5      1.643      2.473
REMARK  Name = *****
REMARK                            x       y       z     vdW  Elec       q    Type
REMARK                         _______ _______ _______ _____ _____    ______ ____
ROOT
ATOM      1  C   LIG    1       24.401 -15.906   4.202  0.00  0.00    +0.000 C 
ENDROOT
BRANCH   1   2
ATOM      2  C   LIG    1       23.276 -14.865   4.284  0.00  0.00    -0.000 C 
BRANCH   2   3
ATOM      3  C   LIG    1       23.885 -13.460   4.334  0.00  0.00    +0.000 C 
BRANCH   3   4
ATOM      4  C   LIG    1       23.767 -12.670   3.027  0.00  0.00    +0.000 C 
BRANCH   4   5
ATOM      5  C   LIG    1       25.160 -12.212   2.587  0.00  0.00    +0.011 C 
BRANCH   5   6
ATOM      6  C   LIG    1       26.283 -12.753   3.467  0.00  0.00    +0.120 C 
BRANCH   6   7
ATOM      7  C   LIG    1       26.953 -13.939   2.804  0.00  0.00    +0.307 C 
ATOM      8  O   LIG    1       26.535 -14.521   1.815  0.00  0.00    -0.251 OA
BRANCH   7   9
ATOM      9  O   LIG    1       28.094 -14.260   3.479  0.00  0.00    -0.465 OA
BRANCH   9  11
ATOM     10  C   LIG    1       28.399 -12.445   5.061  0.00  0.00    +0.048 C 
ATOM     11  C   LIG    1       28.926 -13.140   3.819  0.00  0.00    +0.228 C 
ENDBRANCH   9  11
ENDBRANCH   7   9
ENDBRANCH   6   7
ENDBRANCH   5   6
ENDBRANCH   4   5
ENDBRANCH   3   4
ENDBRANCH   2   3
ENDBRANCH   1   2
BRANCH   1  12
ATOM     12  C   LIG    1       23.924 -17.292   3.763  0.00  0.00    +0.001 C 
BRANCH  12  13
ATOM     13  C   LIG    1       25.122 -18.176   3.368  0.00  0.00    +0.008 C 
BRANCH  13  14
ATOM     14  C   LIG    1       25.016 -19.638   3.872  0.00  0.00    +0.017 C 
ATOM     15  C   LIG    1       23.591 -19.920   4.372  0.00  0.00    +0.012 C 
BRANCH  14  16
ATOM     16  C   LIG    1       26.004 -20.026   4.968  0.00  0.00    -0.031 A 
ATOM     17  C   LIG    1       25.649 -20.817   6.081  0.00  0.00    +0.017 A 
ATOM     18  I   LIG    1       23.703 -21.552   6.427  0.00  0.00    -0.043 I 
ATOM     19  C   LIG    1       26.598 -21.144   7.060  0.00  0.00    +0.014 A 
ATOM     20  C   LIG    1       27.907 -20.678   6.960  0.00  0.00    +0.001 A 
ATOM     21  C   LIG    1       28.271 -19.872   5.891  0.00  0.00    +0.000 A 
ATOM     22  C   LIG    1       27.329 -19.543   4.916  0.00  0.00    +0.005 A 
ENDBRANCH  14  16
ENDBRANCH  13  14
ENDBRANCH  12  13
ENDBRANCH   1  12
TORSDOF 12
ENDMDL
MODEL 7
REMARK VINA RESULT:      -4.3      3.073      7.661
REMARK  Name = *****
REMARK                            x       y       z     vdW  Elec       q    Type
REMARK                         _______ _______ _______ _____ _____    ______ ____
ROOT
ATOM      1  C   LIG    1       25.804 -18.744   4.294  0.00  0.00    +0.000 C 
ENDROOT
BRANCH   1   2
ATOM      2  C   LIG    1       26.552 -20.073   4.474  0.00  0.00    -0.000 C 
BRANCH   2   3
ATOM      3  C   LIG    1       27.159 -20.128   5.880  0.00  0.00    +0.000 C 
BRANCH   3   4
ATOM      4  C   LIG    1       26.148 -20.399   6.998  0.00  0.00    +0.000 C 
BRANCH   4   5
ATOM      5  C   LIG    1       25.170 -21.485   6.542  0.00  0.00    +0.011 C 
BRANCH   5   6
ATOM      6  C   LIG    1       23.707 -21.057   6.625  0.00  0.00    +0.120 C 
BRANCH   6   7
ATOM      7  C   LIG    1       23.113 -20.926   5.239  0.00  0.00    +0.307 C 
ATOM      8  O   LIG    1       23.513 -21.509   4.243  0.00  0.00    -0.251 OA
BRANCH   7   9
ATOM      9  O   LIG    1       22.062 -20.056   5.268  0.00  0.00    -0.465 OA
BRANCH   9  11
ATOM     10  C   LIG    1       21.118 -18.473   3.689  0.00  0.00    +0.048 C 
ATOM     11  C   LIG    1       22.294 -18.814   4.587  0.00  0.00    +0.228 C 
ENDBRANCH   9  11
ENDBRANCH   7   9
ENDBRANCH   6   7
ENDBRANCH   5   6
ENDBRANCH   4   5
ENDBRANCH   3   4
ENDBRANCH   2   3
ENDBRANCH   1   2
BRANCH   1  12
ATOM     12  C   LIG    1       26.654 -17.646   3.651  0.00  0.00    +0.001 C 
BRANCH  12  13
ATOM     13  C   LIG    1       25.775 -16.441   3.265  0.00  0.00    +0.008 C 
BRANCH  13  14
ATOM     14  C   LIG    1       26.558 -15.109   3.138  0.00  0.00    +0.017 C 
ATOM     15  C   LIG    1       27.438 -14.895   4.379  0.00  0.00    +0.012 C 
BRANCH  14  16
ATOM     16  C   LIG    1       25.701 -13.864   2.927  0.00  0.00    -0.031 A 
ATOM     17  C   LIG    1       24.414 -13.712   3.484  0.00  0.00    +0.017 A 
ATOM     18  I   LIG    1       23.457 -15.183   4.652  0.00  0.00    -0.043 I 
ATOM     19  C   LIG    1       23.669 -12.544   3.259  0.00  0.00    +0.014 A 
ATOM     20  C   LIG    1       24.182 -11.521   2.465  0.00  0.00    +0.001 A 
ATOM     21  C   LIG    1       25.433 -11.662   1.883  0.00  0.00    +0.000 A 
ATOM     22  C   LIG    1       26.175 -12.822   2.102  0.00  0.00    +0.005 A 
ENDBRANCH  14  16
ENDBRANCH  13  14
ENDBRANCH  12  13
ENDBRANCH   1  12
TORSDOF 12
ENDMDL
MODEL 8
REMARK VINA RESULT:      -4.0      3.222      7.404
REMARK  Name = *****
REMARK                            x       y       z     vdW  Elec       q    Type
REMARK                         _______ _______ _______ _____ _____    ______ ____
ROOT
ATOM      1  C   LIG    1       24.036 -17.457   3.740  0.00  0.00    +0.000 C 
ENDROOT
BRANCH   1   2
ATOM      2  C   LIG    1       22.617 -17.518   4.324  0.00  0.00    -0.000 C 
BRANCH   2   3
ATOM      3  C   LIG    1       22.166 -18.980   4.409  0.00  0.00    +0.000 C 
BRANCH   3   4
ATOM      4  C   LIG    1       23.273 -19.965   4.798  0.00  0.00    +0.000 C 
BRANCH   4   5
ATOM      5  C   LIG    1       22.946 -20.580   6.161  0.00  0.00    +0.011 C 
BRANCH   5   6
ATOM      6  C   LIG    1       24.168 -20.742   7.062  0.00  0.00    +0.120 C 
BRANCH   6   7
ATOM      7  C   LIG    1       25.402 -21.036   6.235  0.00  0.00    +0.307 C 
ATOM      8  O   LIG    1       25.401 -21.548   5.127  0.00  0.00    -0.251 OA
BRANCH   7   9
ATOM      9  O   LIG    1       26.517 -20.645   6.917  0.00  0.00    -0.465 OA
BRANCH   9  11
ATOM     10  C   LIG    1       28.917 -20.536   6.570  0.00  0.00    +0.048 C 
ATOM     11  C   LIG    1       27.550 -20.073   6.100  0.00  0.00    +0.228 C 
ENDBRANCH   9  11
ENDBRANCH   7   9
ENDBRANCH   6   7
ENDBRANCH   5   6
ENDBRANCH   4   5
ENDBRANCH   3   4
ENDBRANCH   2   3
ENDBRANCH   1   2
BRANCH   1  12
ATOM     12  C   LIG    1       24.708 -16.092   3.904  0.00  0.00    +0.001 C 
BRANCH  12  13
ATOM     13  C   LIG    1       26.085 -16.082   3.214  0.00  0.00    +0.008 C 
BRANCH  13  14
ATOM     14  C   LIG    1       26.606 -14.662   2.873  0.00  0.00    +0.017 C 
ATOM     15  C   LIG    1       27.873 -14.358   3.688  0.00  0.00    +0.012 C 
BRANCH  14  16
ATOM     16  C   LIG    1       25.605 -13.530   3.086  0.00  0.00    -0.031 A 
ATOM     17  C   LIG    1       25.397 -12.911   4.336  0.00  0.00    +0.017 A 
ATOM     18  I   LIG    1       26.396 -13.471   6.107  0.00  0.00    -0.043 I 
ATOM     19  C   LIG    1       24.463 -11.873   4.475  0.00  0.00    +0.014 A 
ATOM     20  C   LIG    1       23.712 -11.447   3.383  0.00  0.00    +0.001 A 
ATOM     21  C   LIG    1       23.878 -12.062   2.150  0.00  0.00    +0.000 A 
ATOM     22  C   LIG    1       24.804 -13.097   2.009  0.00  0.00    +0.005 A 
ENDBRANCH  14  16
ENDBRANCH  13  14
ENDBRANCH  12  13
ENDBRANCH   1  12
TORSDOF 12
ENDMDL
MODEL 9
REMARK VINA RESULT:      -3.7      3.095      7.101
REMARK  Name = *****
REMARK                            x       y       z     vdW  Elec       q    Type
REMARK                         _______ _______ _______ _____ _____    ______ ____
ROOT
ATOM      1  C   LIG    1       26.051 -18.795   4.013  0.00  0.00    +0.000 C 
ENDROOT
BRANCH   1   2
ATOM      2  C   LIG    1       27.261 -19.343   4.785  0.00  0.00    -0.000 C 
BRANCH   2   3
ATOM      3  C   LIG    1       26.773 -20.267   5.905  0.00  0.00    +0.000 C 
BRANCH   3   4
ATOM      4  C   LIG    1       25.434 -20.956   5.622  0.00  0.00    +0.000 C 
BRANCH   4   5
ATOM      5  C   LIG    1       24.455 -20.644   6.756  0.00  0.00    +0.011 C 
BRANCH   5   6
ATOM      6  C   LIG    1       23.129 -21.390   6.635  0.00  0.00    +0.120 C 
BRANCH   6   7
ATOM      7  C   LIG    1       22.389 -20.958   5.387  0.00  0.00    +0.307 C 
ATOM      8  O   LIG    1       21.467 -21.569   4.869  0.00  0.00    -0.251 OA
BRANCH   7   9
ATOM      9  O   LIG    1       22.908 -19.784   4.926  0.00  0.00    -0.465 OA
BRANCH   9  11
ATOM     10  C   LIG    1       22.029 -17.530   4.726  0.00  0.00    +0.048 C 
ATOM     11  C   LIG    1       21.978 -18.957   4.210  0.00  0.00    +0.228 C 
ENDBRANCH   9  11
ENDBRANCH   7   9
ENDBRANCH   6   7
ENDBRANCH   5   6
ENDBRANCH   4   5
ENDBRANCH   3   4
ENDBRANCH   2   3
ENDBRANCH   1   2
BRANCH   1  12
ATOM     12  C   LIG    1       26.308 -17.438   3.354  0.00  0.00    +0.001 C 
BRANCH  12  13
ATOM     13  C   LIG    1       25.015 -16.602   3.322  0.00  0.00    +0.008 C 
BRANCH  13  14
ATOM     14  C   LIG    1       25.069 -15.329   4.206  0.00  0.00    +0.017 C 
ATOM     15  C   LIG    1       23.743 -14.560   4.102  0.00  0.00    +0.012 C 
BRANCH  14  16
ATOM     16  C   LIG    1       26.215 -14.369   3.900  0.00  0.00    -0.031 A 
ATOM     17  C   LIG    1       26.089 -13.275   3.018  0.00  0.00    +0.017 A 
ATOM     18  I   LIG    1       24.325 -12.817   1.957  0.00  0.00    -0.043 I 
ATOM     19  C   LIG    1       27.177 -12.422   2.774  0.00  0.00    +0.014 A 
ATOM     20  C   LIG    1       28.407 -12.652   3.386  0.00  0.00    +0.001 A 
ATOM     21  C   LIG    1       28.562 -13.740   4.233  0.00  0.00    +0.000 A 
ATOM     22  C   LIG    1       27.484 -14.591   4.477  0.00  0.00    +0.005 A 
ENDBRANCH  14  16
ENDBRANCH  13  14
ENDBRANCH  12  13
ENDBRANCH   1  12
TORSDOF 12
ENDMDL
