MODEL 1
REMARK VINA RESULT:      -8.5      0.000      0.000
REMARK  Name = *****
REMARK                            x       y       z     vdW  Elec       q    Type
REMARK                         _______ _______ _______ _____ _____    ______ ____
ROOT
ATOM      1  C   LIG    1       24.253 -20.240   5.200  0.00  0.00    +0.065 C 
ATOM      2  C   LIG    1       24.716 -20.949   6.471  0.00  0.00    +0.096 C 
ATOM      3  C   LIG    1       26.198 -20.721   6.786  0.00  0.00    +0.065 C 
ATOM      4  C   LIG    1       27.034 -20.277   5.815  0.00  0.00    +0.016 C 
ATOM      5  C   LIG    1       28.517 -20.075   5.994  0.00  0.00    +0.061 C 
ATOM      6  N   LIG    1       26.522 -19.948   4.565  0.00  0.00    -0.321 N 
ATOM      7  H   LIG    1       27.160 -19.473   3.929  0.00  0.00    +0.152 HD
ATOM      8  C   LIG    1       25.165 -19.782   4.307  0.00  0.00    +0.016 C 
ATOM      9  C   LIG    1       24.817 -19.052   3.032  0.00  0.00    +0.061 C 
ENDROOT
BRANCH   2  10
ATOM     10  C   LIG    1       24.369 -22.450   6.444  0.00  0.00    -0.029 A 
ATOM     11  C   LIG    1       25.307 -23.381   5.962  0.00  0.00    +0.088 A 
ATOM     12  C   LIG    1       24.991 -24.746   5.904  0.00  0.00    +0.273 A 
ATOM     13  C   LIG    1       23.755 -25.212   6.362  0.00  0.00    +0.084 A 
ATOM     14  C   LIG    1       22.826 -24.299   6.859  0.00  0.00    +0.007 A 
ATOM     15  C   LIG    1       23.124 -22.931   6.888  0.00  0.00    +0.005 A 
BRANCH  12  16
ATOM     16  N   LIG    1       25.957 -25.689   5.330  0.00  0.00    +0.080 N 
ATOM     17  O   LIG    1       25.744 -26.105   4.180  0.00  0.00    -0.576 OA
ATOM     18  O   LIG    1       26.923 -26.027   6.029  0.00  0.00    +0.041 OA
ENDBRANCH  12  16
ENDBRANCH   2  10
BRANCH   1  19
ATOM     19  C   LIG    1       22.793 -20.011   5.032  0.00  0.00    +0.338 C 
ATOM     20  O   LIG    1       22.011 -20.825   4.554  0.00  0.00    -0.245 OA
BRANCH  19  21
ATOM     21  O   LIG    1       22.449 -18.773   5.461  0.00  0.00    -0.462 OA
BRANCH  21  23
ATOM     22  C   LIG    1       22.401 -16.476   4.757  0.00  0.00    +0.048 C 
ATOM     23  C   LIG    1       21.893 -17.879   4.490  0.00  0.00    +0.229 C 
ENDBRANCH  21  23
ENDBRANCH  19  21
ENDBRANCH   1  19
BRANCH   3  24
ATOM     24  C   LIG    1       26.634 -20.895   8.208  0.00  0.00    +0.337 C 
ATOM     25  O   LIG    1       26.137 -20.343   9.179  0.00  0.00    -0.245 OA
BRANCH  24  26
ATOM     26  O   LIG    1       27.609 -21.834   8.254  0.00  0.00    -0.465 OA
ATOM     27  C   LIG    1       28.928 -21.421   8.614  0.00  0.00    +0.280 C 
ENDBRANCH  24  26
ENDBRANCH   3  24
TORSDOF 7
ENDMDL
MODEL 2
REMARK VINA RESULT:      -8.3      2.391      5.029
REMARK  Name = *****
REMARK                            x       y       z     vdW  Elec       q    Type
REMARK                         _______ _______ _______ _____ _____    ______ ____
ROOT
ATOM      1  C   LIG    1       24.519 -20.230   4.604  0.00  0.00    +0.065 C 
ATOM      2  C   LIG    1       25.400 -21.315   5.219  0.00  0.00    +0.096 C 
ATOM      3  C   LIG    1       24.599 -22.440   5.883  0.00  0.00    +0.065 C 
ATOM      4  C   LIG    1       23.297 -22.241   6.207  0.00  0.00    +0.016 C 
ATOM      5  C   LIG    1       22.430 -23.251   6.915  0.00  0.00    +0.061 C 
ATOM      6  N   LIG    1       22.676 -21.049   5.854  0.00  0.00    -0.321 N 
ATOM      7  H   LIG    1       21.665 -21.015   5.978  0.00  0.00    +0.152 HD
ATOM      8  C   LIG    1       23.212 -20.138   4.949  0.00  0.00    +0.016 C 
ATOM      9  C   LIG    1       22.251 -19.118   4.388  0.00  0.00    +0.061 C 
ENDROOT
BRANCH   2  10
ATOM     10  C   LIG    1       26.445 -20.722   6.184  0.00  0.00    -0.029 A 
ATOM     11  C   LIG    1       27.613 -20.126   5.674  0.00  0.00    +0.088 A 
ATOM     12  C   LIG    1       28.586 -19.609   6.543  0.00  0.00    +0.273 A 
ATOM     13  C   LIG    1       28.394 -19.640   7.928  0.00  0.00    +0.084 A 
ATOM     14  C   LIG    1       27.231 -20.213   8.441  0.00  0.00    +0.007 A 
ATOM     15  C   LIG    1       26.272 -20.759   7.579  0.00  0.00    +0.005 A 
BRANCH  12  16
ATOM     16  N   LIG    1       29.829 -19.058   5.992  0.00  0.00    +0.080 N 
ATOM     17  O   LIG    1       30.900 -19.541   6.390  0.00  0.00    -0.576 OA
ATOM     18  O   LIG    1       29.739 -18.134   5.171  0.00  0.00    +0.041 OA
ENDBRANCH  12  16
ENDBRANCH   2  10
BRANCH   1  19
ATOM     19  C   LIG    1       25.132 -19.350   3.572  0.00  0.00    +0.338 C 
ATOM     20  O   LIG    1       25.499 -19.727   2.465  0.00  0.00    -0.245 OA
BRANCH  19  21
ATOM     21  O   LIG    1       25.249 -18.081   4.032  0.00  0.00    -0.462 OA
BRANCH  21  23
ATOM     22  C   LIG    1       25.733 -15.814   3.402  0.00  0.00    +0.048 C 
ATOM     23  C   LIG    1       26.226 -17.247   3.399  0.00  0.00    +0.229 C 
ENDBRANCH  21  23
ENDBRANCH  19  21
ENDBRANCH   1  19
BRANCH   3  24
ATOM     24  C   LIG    1       25.275 -23.767   6.040  0.00  0.00    +0.337 C 
ATOM     25  O   LIG    1       25.828 -24.170   7.053  0.00  0.00    -0.245 OA
BRANCH  24  26
ATOM     26  O   LIG    1       25.093 -24.486   4.907  0.00  0.00    -0.465 OA
ATOM     27  C   LIG    1       25.220 -25.907   4.981  0.00  0.00    +0.280 C 
ENDBRANCH  24  26
ENDBRANCH   3  24
TORSDOF 7
ENDMDL
MODEL 3
REMARK VINA RESULT:      -6.2      2.223      4.820
REMARK  Name = *****
REMARK                            x       y       z     vdW  Elec       q    Type
REMARK                         _______ _______ _______ _____ _____    ______ ____
ROOT
ATOM      1  C   LIG    1       24.455 -19.892   4.492  0.00  0.00    +0.065 C 
ATOM      2  C   LIG    1       25.378 -21.022   4.943  0.00  0.00    +0.096 C 
ATOM      3  C   LIG    1       24.705 -22.004   5.908  0.00  0.00    +0.065 C 
ATOM      4  C   LIG    1       23.571 -21.641   6.557  0.00  0.00    +0.016 C 
ATOM      5  C   LIG    1       22.858 -22.499   7.571  0.00  0.00    +0.061 C 
ATOM      6  N   LIG    1       22.980 -20.415   6.275  0.00  0.00    -0.321 N 
ATOM      7  H   LIG    1       22.053 -20.262   6.668  0.00  0.00    +0.152 HD
ATOM      8  C   LIG    1       23.313 -19.634   5.173  0.00  0.00    +0.016 C 
ATOM      9  C   LIG    1       22.323 -18.556   4.802  0.00  0.00    +0.061 C 
ENDROOT
BRANCH   2  10
ATOM     10  C   LIG    1       26.701 -20.481   5.519  0.00  0.00    -0.029 A 
ATOM     11  C   LIG    1       27.283 -21.097   6.642  0.00  0.00    +0.088 A 
ATOM     12  C   LIG    1       28.471 -20.595   7.194  0.00  0.00    +0.273 A 
ATOM     13  C   LIG    1       29.120 -19.501   6.614  0.00  0.00    +0.084 A 
ATOM     14  C   LIG    1       28.560 -18.896   5.489  0.00  0.00    +0.007 A 
ATOM     15  C   LIG    1       27.357 -19.373   4.954  0.00  0.00    +0.005 A 
BRANCH  12  16
ATOM     16  N   LIG    1       29.020 -21.208   8.408  0.00  0.00    +0.080 N 
ATOM     17  O   LIG    1       30.161 -20.869   8.760  0.00  0.00    -0.576 OA
ATOM     18  O   LIG    1       28.320 -22.038   9.006  0.00  0.00    +0.041 OA
ENDBRANCH  12  16
ENDBRANCH   2  10
BRANCH   1  19
ATOM     19  C   LIG    1       24.823 -19.158   3.250  0.00  0.00    +0.338 C 
ATOM     20  O   LIG    1       25.096 -19.691   2.182  0.00  0.00    -0.245 OA
BRANCH  19  21
ATOM     21  O   LIG    1       24.835 -17.821   3.469  0.00  0.00    -0.462 OA
BRANCH  21  23
ATOM     22  C   LIG    1       25.843 -15.641   3.403  0.00  0.00    +0.048 C 
ATOM     23  C   LIG    1       26.052 -17.125   3.177  0.00  0.00    +0.229 C 
ENDBRANCH  21  23
ENDBRANCH  19  21
ENDBRANCH   1  19
BRANCH   3  24
ATOM     24  C   LIG    1       25.282 -23.382   6.001  0.00  0.00    +0.337 C 
ATOM     25  O   LIG    1       25.865 -23.848   6.969  0.00  0.00    -0.245 OA
BRANCH  24  26
ATOM     26  O   LIG    1       24.971 -24.062   4.872  0.00  0.00    -0.465 OA
ATOM     27  C   LIG    1       25.105 -25.485   4.882  0.00  0.00    +0.280 C 
ENDBRANCH  24  26
ENDBRANCH   3  24
TORSDOF 7
ENDMDL
MODEL 4
REMARK VINA RESULT:      -6.0      6.687     10.478
REMARK  Name = *****
REMARK                            x       y       z     vdW  Elec       q    Type
REMARK                         _______ _______ _______ _____ _____    ______ ____
ROOT
ATOM      1  C   LIG    1       23.653 -31.090   9.036  0.00  0.00    +0.065 C 
ATOM      2  C   LIG    1       24.383 -29.756   8.897  0.00  0.00    +0.096 C 
ATOM      3  C   LIG    1       24.906 -29.496   7.481  0.00  0.00    +0.065 C 
ATOM      4  C   LIG    1       25.031 -30.527   6.609  0.00  0.00    +0.016 C 
ATOM      5  C   LIG    1       25.589 -30.400   5.214  0.00  0.00    +0.061 C 
ATOM      6  N   LIG    1       24.601 -31.796   6.978  0.00  0.00    -0.321 N 
ATOM      7  H   LIG    1       24.571 -32.494   6.237  0.00  0.00    +0.152 HD
ATOM      8  C   LIG    1       23.797 -32.046   8.086  0.00  0.00    +0.016 C 
ATOM      9  C   LIG    1       23.108 -33.388   8.115  0.00  0.00    +0.061 C 
ENDROOT
BRANCH   2  10
ATOM     10  C   LIG    1       25.500 -29.606   9.948  0.00  0.00    -0.029 A 
ATOM     11  C   LIG    1       25.241 -28.943  11.161  0.00  0.00    +0.088 A 
ATOM     12  C   LIG    1       26.258 -28.774  12.112  0.00  0.00    +0.273 A 
ATOM     13  C   LIG    1       27.535 -29.298  11.891  0.00  0.00    +0.084 A 
ATOM     14  C   LIG    1       27.796 -29.973  10.699  0.00  0.00    +0.007 A 
ATOM     15  C   LIG    1       26.793 -30.116   9.733  0.00  0.00    +0.005 A 
BRANCH  12  16
ATOM     16  N   LIG    1       25.984 -28.015  13.337  0.00  0.00    +0.080 N 
ATOM     17  O   LIG    1       24.916 -27.388  13.401  0.00  0.00    -0.576 OA
ATOM     18  O   LIG    1       26.842 -28.032  14.232  0.00  0.00    +0.041 OA
ENDBRANCH  12  16
ENDBRANCH   2  10
BRANCH   1  19
ATOM     19  C   LIG    1       22.735 -31.255  10.196  0.00  0.00    +0.338 C 
ATOM     20  O   LIG    1       23.049 -31.764  11.265  0.00  0.00    -0.245 OA
BRANCH  19  21
ATOM     21  O   LIG    1       21.500 -30.785   9.900  0.00  0.00    -0.462 OA
BRANCH  21  23
ATOM     22  C   LIG    1       19.171 -31.232  10.288  0.00  0.00    +0.048 C 
ATOM     23  C   LIG    1       20.503 -30.885  10.923  0.00  0.00    +0.229 C 
ENDBRANCH  21  23
ENDBRANCH  19  21
ENDBRANCH   1  19
BRANCH   3  24
ATOM     24  C   LIG    1       25.149 -28.073   7.087  0.00  0.00    +0.337 C 
ATOM     25  O   LIG    1       26.150 -27.421   7.349  0.00  0.00    -0.245 OA
BRANCH  24  26
ATOM     26  O   LIG    1       24.120 -27.651   6.313  0.00  0.00    -0.465 OA
ATOM     27  C   LIG    1       24.286 -26.445   5.567  0.00  0.00    +0.280 C 
ENDBRANCH  24  26
ENDBRANCH   3  24
TORSDOF 7
ENDMDL
MODEL 5
REMARK VINA RESULT:      -6.0      8.657     10.645
REMARK  Name = *****
REMARK                            x       y       z     vdW  Elec       q    Type
REMARK                         _______ _______ _______ _____ _____    ______ ____
ROOT
ATOM      1  C   LIG    1       24.112 -30.199  11.990  0.00  0.00    +0.065 C 
ATOM      2  C   LIG    1       25.559 -30.409  11.545  0.00  0.00    +0.096 C 
ATOM      3  C   LIG    1       26.493 -29.272  11.971  0.00  0.00    +0.065 C 
ATOM      4  C   LIG    1       25.975 -28.073  12.335  0.00  0.00    +0.016 C 
ATOM      5  C   LIG    1       26.798 -26.868  12.713  0.00  0.00    +0.061 C 
ATOM      6  N   LIG    1       24.596 -27.913  12.404  0.00  0.00    -0.321 N 
ATOM      7  H   LIG    1       24.264 -27.051  12.833  0.00  0.00    +0.152 HD
ATOM      8  C   LIG    1       23.695 -28.973  12.388  0.00  0.00    +0.016 C 
ATOM      9  C   LIG    1       22.296 -28.662  12.863  0.00  0.00    +0.061 C 
ENDROOT
BRANCH   2  10
ATOM     10  C   LIG    1       25.655 -30.683  10.032  0.00  0.00    -0.029 A 
ATOM     11  C   LIG    1       25.029 -29.816   9.119  0.00  0.00    +0.088 A 
ATOM     12  C   LIG    1       25.084 -30.072   7.741  0.00  0.00    +0.273 A 
ATOM     13  C   LIG    1       25.797 -31.169   7.247  0.00  0.00    +0.084 A 
ATOM     14  C   LIG    1       26.437 -32.024   8.145  0.00  0.00    +0.007 A 
ATOM     15  C   LIG    1       26.357 -31.790   9.523  0.00  0.00    +0.005 A 
BRANCH  12  16
ATOM     16  N   LIG    1       24.362 -29.195   6.812  0.00  0.00    +0.080 N 
ATOM     17  O   LIG    1       23.493 -29.710   6.092  0.00  0.00    -0.576 OA
ATOM     18  O   LIG    1       24.672 -27.995   6.789  0.00  0.00    +0.041 OA
ENDBRANCH  12  16
ENDBRANCH   2  10
BRANCH   1  19
ATOM     19  C   LIG    1       23.228 -31.395  12.039  0.00  0.00    +0.338 C 
ATOM     20  O   LIG    1       23.225 -32.222  12.943  0.00  0.00    -0.245 OA
BRANCH  19  21
ATOM     21  O   LIG    1       22.441 -31.454  10.938  0.00  0.00    -0.462 OA
BRANCH  21  23
ATOM     22  C   LIG    1       22.712 -32.771   8.945  0.00  0.00    +0.048 C 
ATOM     23  C   LIG    1       22.207 -32.750  10.375  0.00  0.00    +0.229 C 
ENDBRANCH  21  23
ENDBRANCH  19  21
ENDBRANCH   1  19
BRANCH   3  24
ATOM     24  C   LIG    1       27.954 -29.583  12.074  0.00  0.00    +0.337 C 
ATOM     25  O   LIG    1       28.794 -29.358  11.214  0.00  0.00    -0.245 OA
BRANCH  24  26
ATOM     26  O   LIG    1       28.210 -30.071  13.311  0.00  0.00    -0.465 OA
ATOM     27  C   LIG    1       29.425 -29.680  13.953  0.00  0.00    +0.280 C 
ENDBRANCH  24  26
ENDBRANCH   3  24
TORSDOF 7
ENDMDL
MODEL 6
REMARK VINA RESULT:      -5.8      7.882     10.962
REMARK  Name = *****
REMARK                            x       y       z     vdW  Elec       q    Type
REMARK                         _______ _______ _______ _____ _____    ______ ____
ROOT
ATOM      1  C   LIG    1       23.803 -30.313  12.289  0.00  0.00    +0.065 C 
ATOM      2  C   LIG    1       24.760 -29.367  11.566  0.00  0.00    +0.096 C 
ATOM      3  C   LIG    1       25.509 -30.033  10.407  0.00  0.00    +0.065 C 
ATOM      4  C   LIG    1       25.577 -31.386  10.337  0.00  0.00    +0.016 C 
ATOM      5  C   LIG    1       26.334 -32.147   9.279  0.00  0.00    +0.061 C 
ATOM      6  N   LIG    1       24.892 -32.158  11.268  0.00  0.00    -0.321 N 
ATOM      7  H   LIG    1       24.846 -33.157  11.077  0.00  0.00    +0.152 HD
ATOM      8  C   LIG    1       23.913 -31.653  12.118  0.00  0.00    +0.016 C 
ATOM      9  C   LIG    1       23.010 -32.673  12.768  0.00  0.00    +0.061 C 
ENDROOT
BRANCH   2  10
ATOM     10  C   LIG    1       25.732 -28.682  12.547  0.00  0.00    -0.029 A 
ATOM     11  C   LIG    1       25.779 -27.278  12.623  0.00  0.00    +0.088 A 
ATOM     12  C   LIG    1       26.680 -26.642  13.490  0.00  0.00    +0.273 A 
ATOM     13  C   LIG    1       27.518 -27.391  14.322  0.00  0.00    +0.084 A 
ATOM     14  C   LIG    1       27.465 -28.783  14.266  0.00  0.00    +0.007 A 
ATOM     15  C   LIG    1       26.590 -29.422  13.379  0.00  0.00    +0.005 A 
BRANCH  12  16
ATOM     16  N   LIG    1       26.764 -25.177  13.500  0.00  0.00    +0.080 N 
ATOM     17  O   LIG    1       25.709 -24.539  13.359  0.00  0.00    -0.576 OA
ATOM     18  O   LIG    1       27.883 -24.662  13.635  0.00  0.00    +0.041 OA
ENDBRANCH  12  16
ENDBRANCH   2  10
BRANCH   1  19
ATOM     19  C   LIG    1       22.720 -29.703  13.108  0.00  0.00    +0.338 C 
ATOM     20  O   LIG    1       22.535 -29.929  14.298  0.00  0.00    -0.245 OA
BRANCH  19  21
ATOM     21  O   LIG    1       21.955 -28.880  12.352  0.00  0.00    -0.462 OA
BRANCH  21  23
ATOM     22  C   LIG    1       22.204 -26.638  13.183  0.00  0.00    +0.048 C 
ATOM     23  C   LIG    1       21.269 -27.822  13.033  0.00  0.00    +0.229 C 
ENDBRANCH  21  23
ENDBRANCH  19  21
ENDBRANCH   1  19
BRANCH   3  24
ATOM     24  C   LIG    1       26.041 -29.142   9.329  0.00  0.00    +0.337 C 
ATOM     25  O   LIG    1       27.152 -28.632   9.308  0.00  0.00    -0.245 OA
BRANCH  24  26
ATOM     26  O   LIG    1       25.125 -29.066   8.334  0.00  0.00    -0.465 OA
ATOM     27  C   LIG    1       25.424 -28.248   7.202  0.00  0.00    +0.280 C 
ENDBRANCH  24  26
ENDBRANCH   3  24
TORSDOF 7
ENDMDL
MODEL 7
REMARK VINA RESULT:      -5.7      8.500     10.900
REMARK  Name = *****
REMARK                            x       y       z     vdW  Elec       q    Type
REMARK                         _______ _______ _______ _____ _____    ______ ____
ROOT
ATOM      1  C   LIG    1       26.196 -29.635  11.914  0.00  0.00    +0.065 C 
ATOM      2  C   LIG    1       24.968 -29.715  11.009  0.00  0.00    +0.096 C 
ATOM      3  C   LIG    1       23.776 -30.416  11.667  0.00  0.00    +0.065 C 
ATOM      4  C   LIG    1       23.971 -31.200  12.756  0.00  0.00    +0.016 C 
ATOM      5  C   LIG    1       22.885 -31.985  13.447  0.00  0.00    +0.061 C 
ATOM      6  N   LIG    1       25.238 -31.291  13.319  0.00  0.00    -0.321 N 
ATOM      7  H   LIG    1       25.297 -31.761  14.220  0.00  0.00    +0.152 HD
ATOM      8  C   LIG    1       26.282 -30.423  13.014  0.00  0.00    +0.016 C 
ATOM      9  C   LIG    1       27.438 -30.410  13.984  0.00  0.00    +0.061 C 
ENDROOT
BRANCH   2  10
ATOM     10  C   LIG    1       25.308 -30.341   9.643  0.00  0.00    -0.029 A 
ATOM     11  C   LIG    1       24.811 -29.763   8.461  0.00  0.00    +0.088 A 
ATOM     12  C   LIG    1       25.088 -30.342   7.214  0.00  0.00    +0.273 A 
ATOM     13  C   LIG    1       25.898 -31.478   7.118  0.00  0.00    +0.084 A 
ATOM     14  C   LIG    1       26.411 -32.046   8.284  0.00  0.00    +0.007 A 
ATOM     15  C   LIG    1       26.110 -31.491   9.533  0.00  0.00    +0.005 A 
BRANCH  12  16
ATOM     16  N   LIG    1       24.498 -29.765   6.001  0.00  0.00    +0.080 N 
ATOM     17  O   LIG    1       25.244 -29.118   5.248  0.00  0.00    -0.576 OA
ATOM     18  O   LIG    1       23.287 -29.943   5.804  0.00  0.00    +0.041 OA
ENDBRANCH  12  16
ENDBRANCH   2  10
BRANCH   1  19
ATOM     19  C   LIG    1       27.230 -28.618  11.583  0.00  0.00    +0.338 C 
ATOM     20  O   LIG    1       28.361 -28.879  11.188  0.00  0.00    -0.245 OA
BRANCH  19  21
ATOM     21  O   LIG    1       26.759 -27.367  11.797  0.00  0.00    -0.462 OA
BRANCH  21  23
ATOM     22  C   LIG    1       26.120 -25.560  13.246  0.00  0.00    +0.048 C 
ATOM     23  C   LIG    1       26.971 -26.806  13.097  0.00  0.00    +0.229 C 
ENDBRANCH  21  23
ENDBRANCH  19  21
ENDBRANCH   1  19
BRANCH   3  24
ATOM     24  C   LIG    1       22.413 -30.103  11.132  0.00  0.00    +0.337 C 
ATOM     25  O   LIG    1       21.850 -30.695  10.223  0.00  0.00    -0.245 OA
BRANCH  24  26
ATOM     26  O   LIG    1       21.866 -29.116  11.882  0.00  0.00    -0.465 OA
ATOM     27  C   LIG    1       20.639 -29.386  12.563  0.00  0.00    +0.280 C 
ENDBRANCH  24  26
ENDBRANCH   3  24
TORSDOF 7
ENDMDL
MODEL 8
REMARK VINA RESULT:      -5.7      7.909     10.992
REMARK  Name = *****
REMARK                            x       y       z     vdW  Elec       q    Type
REMARK                         _______ _______ _______ _____ _____    ______ ____
ROOT
ATOM      1  C   LIG    1       24.312 -30.405   9.582  0.00  0.00    +0.065 C 
ATOM      2  C   LIG    1       23.162 -30.096  10.538  0.00  0.00    +0.096 C 
ATOM      3  C   LIG    1       23.618 -29.874  11.983  0.00  0.00    +0.065 C 
ATOM      4  C   LIG    1       24.841 -30.308  12.379  0.00  0.00    +0.016 C 
ATOM      5  C   LIG    1       25.370 -30.198  13.786  0.00  0.00    +0.061 C 
ATOM      6  N   LIG    1       25.705 -30.871  11.447  0.00  0.00    -0.321 N 
ATOM      7  H   LIG    1       26.661 -31.032  11.759  0.00  0.00    +0.152 HD
ATOM      8  C   LIG    1       25.519 -30.782  10.071  0.00  0.00    +0.016 C 
ATOM      9  C   LIG    1       26.725 -31.091   9.218  0.00  0.00    +0.061 C 
ENDROOT
BRANCH   2  10
ATOM     10  C   LIG    1       22.050 -31.161  10.454  0.00  0.00    -0.029 A 
ATOM     11  C   LIG    1       20.700 -30.768  10.437  0.00  0.00    +0.088 A 
ATOM     12  C   LIG    1       19.679 -31.728  10.392  0.00  0.00    +0.273 A 
ATOM     13  C   LIG    1       19.985 -33.091  10.319  0.00  0.00    +0.084 A 
ATOM     14  C   LIG    1       21.322 -33.489  10.317  0.00  0.00    +0.007 A 
ATOM     15  C   LIG    1       22.343 -32.535  10.395  0.00  0.00    +0.005 A 
BRANCH  12  16
ATOM     16  N   LIG    1       18.277 -31.299  10.449  0.00  0.00    +0.080 N 
ATOM     17  O   LIG    1       17.717 -31.307  11.556  0.00  0.00    -0.576 OA
ATOM     18  O   LIG    1       17.729 -30.967   9.388  0.00  0.00    +0.041 OA
ENDBRANCH  12  16
ENDBRANCH   2  10
BRANCH   1  19
ATOM     19  C   LIG    1       24.073 -30.198   8.128  0.00  0.00    +0.338 C 
ATOM     20  O   LIG    1       23.639 -31.054   7.366  0.00  0.00    -0.245 OA
BRANCH  19  21
ATOM     21  O   LIG    1       24.421 -28.943   7.759  0.00  0.00    -0.462 OA
BRANCH  21  23
ATOM     22  C   LIG    1       24.441 -27.496   5.840  0.00  0.00    +0.048 C 
ATOM     23  C   LIG    1       24.972 -28.779   6.447  0.00  0.00    +0.229 C 
ENDBRANCH  21  23
ENDBRANCH  19  21
ENDBRANCH   1  19
BRANCH   3  24
ATOM     24  C   LIG    1       22.720 -29.074  12.874  0.00  0.00    +0.337 C 
ATOM     25  O   LIG    1       21.840 -29.526  13.593  0.00  0.00    -0.245 OA
BRANCH  24  26
ATOM     26  O   LIG    1       23.101 -27.775  12.825  0.00  0.00    -0.465 OA
ATOM     27  C   LIG    1       22.151 -26.777  13.204  0.00  0.00    +0.280 C 
ENDBRANCH  24  26
ENDBRANCH   3  24
TORSDOF 7
ENDMDL
MODEL 9
REMARK VINA RESULT:      -5.6      8.240     11.146
REMARK  Name = *****
REMARK                            x       y       z     vdW  Elec       q    Type
REMARK                         _______ _______ _______ _____ _____    ______ ____
ROOT
ATOM      1  C   LIG    1       25.632 -30.310  10.711  0.00  0.00    +0.065 C 
ATOM      2  C   LIG    1       25.843 -29.843  12.149  0.00  0.00    +0.096 C 
ATOM      3  C   LIG    1       25.885 -30.994  13.160  0.00  0.00    +0.065 C 
ATOM      4  C   LIG    1       25.388 -32.208  12.819  0.00  0.00    +0.016 C 
ATOM      5  C   LIG    1       25.321 -33.393  13.749  0.00  0.00    +0.061 C 
ATOM      6  N   LIG    1       24.926 -32.424  11.526  0.00  0.00    -0.321 N 
ATOM      7  H   LIG    1       24.713 -33.389  11.280  0.00  0.00    +0.152 HD
ATOM      8  C   LIG    1       25.180 -31.563  10.463  0.00  0.00    +0.016 C 
ATOM      9  C   LIG    1       24.955 -32.131   9.082  0.00  0.00    +0.061 C 
ENDROOT
BRANCH   2  10
ATOM     10  C   LIG    1       24.814 -28.770  12.557  0.00  0.00    -0.029 A 
ATOM     11  C   LIG    1       25.251 -27.535  13.068  0.00  0.00    +0.088 A 
ATOM     12  C   LIG    1       24.324 -26.563  13.470  0.00  0.00    +0.273 A 
ATOM     13  C   LIG    1       22.950 -26.787  13.332  0.00  0.00    +0.084 A 
ATOM     14  C   LIG    1       22.508 -28.002  12.809  0.00  0.00    +0.007 A 
ATOM     15  C   LIG    1       23.430 -28.988  12.436  0.00  0.00    +0.005 A 
BRANCH  12  16
ATOM     16  N   LIG    1       24.800 -25.311  14.068  0.00  0.00    +0.080 N 
ATOM     17  O   LIG    1       25.469 -24.548  13.353  0.00  0.00    -0.576 OA
ATOM     18  O   LIG    1       24.521 -25.093  15.256  0.00  0.00    +0.041 OA
ENDBRANCH  12  16
ENDBRANCH   2  10
BRANCH   1  19
ATOM     19  C   LIG    1       26.013 -29.373   9.620  0.00  0.00    +0.338 C 
ATOM     20  O   LIG    1       27.137 -28.910   9.461  0.00  0.00    -0.245 OA
BRANCH  19  21
ATOM     21  O   LIG    1       24.944 -29.084   8.840  0.00  0.00    -0.462 OA
BRANCH  21  23
ATOM     22  C   LIG    1       24.334 -29.371   6.533  0.00  0.00    +0.048 C 
ATOM     23  C   LIG    1       25.213 -28.619   7.513  0.00  0.00    +0.229 C 
ENDBRANCH  21  23
ENDBRANCH  19  21
ENDBRANCH   1  19
BRANCH   3  24
ATOM     24  C   LIG    1       26.588 -30.745  14.458  0.00  0.00    +0.337 C 
ATOM     25  O   LIG    1       26.060 -30.374  15.496  0.00  0.00    -0.245 OA
BRANCH  24  26
ATOM     26  O   LIG    1       27.892 -31.087  14.320  0.00  0.00    -0.465 OA
ATOM     27  C   LIG    1       28.870 -30.046  14.349  0.00  0.00    +0.280 C 
ENDBRANCH  24  26
ENDBRANCH   3  24
TORSDOF 7
ENDMDL
