MODEL 1
REMARK VINA RESULT:      -0.9      0.000      0.000
REMARK  Name = *****
REMARK                            x       y       z     vdW  Elec       q    Type
REMARK                         _______ _______ _______ _____ _____    ______ ____
ROOT
ATOM      1  N   UNK A  1       26.656 -18.221   4.369  0.00  0.00    -0.296 N 
ATOM      2  H   UNK A  1       27.095 -18.182   5.285  0.00  0.00    +0.150 HD
ATOM      3  C   UNK A  0       26.024 -19.411   4.048  0.00  0.00    +0.268 C 
ATOM      4  O   UNK A  0       25.601 -19.651   2.928  0.00  0.00    -0.268 OA
ENDROOT
BRANCH   1  12
ATOM      5  C   UNK A  1       24.906 -13.494   4.081  0.00  0.00    -0.010 C 
ATOM      6  C   UNK A  1       23.791 -14.520   4.112  0.00  0.00    +0.108 C 
ATOM      7  S   UNK A  1       24.360 -16.214   4.369  0.00  0.00    -0.131 S 
ATOM      8  C   UNK A  1       25.650 -16.157   3.098  0.00  0.00    +0.169 C 
ATOM      9  N   UNK A  1       26.568 -15.043   3.324  0.00  0.00    -0.249 N 
ATOM     10  C   UNK A  1       27.532 -15.818   3.878  0.00  0.00    +0.244 C 
ATOM     11  O   UNK A  1       28.488 -15.468   4.557  0.00  0.00    -0.273 OA
ATOM     12  C   UNK A  1       26.865 -17.120   3.379  0.00  0.00    +0.191 C 
ATOM     13  C   UNK A  1       26.187 -13.769   3.723  0.00  0.00    +0.126 C 
BRANCH   5  15
ATOM     14  C   UNK A  1       23.405 -11.521   3.961  0.00  0.00    +0.009 C 
ATOM     15  C   UNK A  1       24.393 -12.205   4.553  0.00  0.00    -0.001 C 
ENDBRANCH   5  15
BRANCH  13  16
ATOM     16  C   UNK A  1       27.232 -12.662   3.666  0.00  0.00    +0.352 C 
ATOM     17  O   UNK A  1       27.991 -12.382   4.583  0.00  0.00    -0.244 OA
BRANCH  16  18
ATOM     18  O   UNK A  1       27.201 -11.891   2.557  0.00  0.00    -0.476 OA
ATOM     19  H   UNK A  1       27.236 -12.378   1.706  0.00  0.00    +0.295 HD
ENDBRANCH  16  18
ENDBRANCH  13  16
ENDBRANCH   1  12
BRANCH   3  20
ATOM     20  C   UNK A  0       25.837 -20.400   5.225  0.00  0.00    +0.190 C 
ATOM     21  N   UNK A  0       26.823 -20.948   5.892  0.00  0.00    -0.077 NA
BRANCH  20  22
ATOM     22  C   UNK A  0       24.491 -20.789   5.664  0.00  0.00    +0.107 A 
ATOM     23  N   UNK A  0       23.437 -20.921   4.768  0.00  0.00    -0.223 NA
ATOM     24  C   UNK A  0       22.348 -21.323   5.371  0.00  0.00    +0.156 A 
ATOM     25  S   UNK A  0       22.500 -21.570   7.060  0.00  0.00    -0.060 S 
ATOM     26  C   UNK A  0       24.148 -21.109   6.969  0.00  0.00    +0.078 A 
BRANCH  24  27
ATOM     27  N   UNK A  0       21.193 -21.541   4.724  0.00  0.00    -0.338 N 
ATOM     28  H   UNK A  0       20.781 -22.458   4.855  0.00  0.00    +0.144 HD
ATOM     29  H   UNK A  0       20.526 -20.784   4.643  0.00  0.00    +0.144 HD
ENDBRANCH  24  27
ENDBRANCH  20  22
BRANCH  21  30
ATOM     30  O   UNK A  0       28.104 -20.675   5.391  0.00  0.00    -0.382 OA
BRANCH  30  31
ATOM     31  C   UNK A  0       28.905 -20.143   6.453  0.00  0.00    +0.382 C 
BRANCH  31  32
ATOM     32  C   UNK A  0       29.280 -18.698   6.170  0.00  0.00    +0.345 C 
ATOM     33  O   UNK A  0       29.474 -17.862   7.042  0.00  0.00    -0.247 OA
BRANCH  32  34
ATOM     34  O   UNK A  0       29.467 -18.420   4.858  0.00  0.00    -0.478 OA
ATOM     35  H   UNK A  0       30.092 -19.042   4.433  0.00  0.00    +0.295 HD
ENDBRANCH  32  34
ENDBRANCH  31  32
ENDBRANCH  30  31
ENDBRANCH  21  30
ENDBRANCH   3  20
TORSDOF 11
ENDMDL
MODEL 2
REMARK VINA RESULT:       1.7      2.171      4.158
REMARK  Name = *****
REMARK                            x       y       z     vdW  Elec       q    Type
REMARK                         _______ _______ _______ _____ _____    ______ ____
ROOT
ATOM      1  N   UNK A  1       25.677 -18.128   3.802  0.00  0.00    -0.296 N 
ATOM      2  H   UNK A  1       26.259 -18.042   4.631  0.00  0.00    +0.150 HD
ATOM      3  C   UNK A  0       25.133 -19.380   3.568  0.00  0.00    +0.268 C 
ATOM      4  O   UNK A  0       24.554 -19.663   2.532  0.00  0.00    -0.268 OA
ENDROOT
BRANCH   1  12
ATOM      5  C   UNK A  1       24.455 -13.250   4.251  0.00  0.00    -0.010 C 
ATOM      6  C   UNK A  1       23.343 -14.167   4.718  0.00  0.00    +0.108 C 
ATOM      7  S   UNK A  1       23.789 -15.917   4.722  0.00  0.00    -0.131 S 
ATOM      8  C   UNK A  1       24.470 -15.924   3.043  0.00  0.00    +0.169 C 
ATOM      9  N   UNK A  1       25.513 -14.912   2.890  0.00  0.00    -0.249 N 
ATOM     10  C   UNK A  1       26.532 -15.797   3.013  0.00  0.00    +0.244 C 
ATOM     11  O   UNK A  1       27.709 -15.569   3.258  0.00  0.00    -0.273 OA
ATOM     12  C   UNK A  1       25.591 -17.008   2.814  0.00  0.00    +0.191 C 
ATOM     13  C   UNK A  1       25.455 -13.627   3.413  0.00  0.00    +0.126 C 
BRANCH   5  15
ATOM     14  C   UNK A  1       23.336 -11.629   5.761  0.00  0.00    +0.009 C 
ATOM     15  C   UNK A  1       24.306 -11.941   4.893  0.00  0.00    -0.001 C 
ENDBRANCH   5  15
BRANCH  13  16
ATOM     16  C   UNK A  1       26.501 -12.621   2.950  0.00  0.00    +0.352 C 
ATOM     17  O   UNK A  1       26.301 -11.754   2.112  0.00  0.00    -0.244 OA
BRANCH  16  18
ATOM     18  O   UNK A  1       27.747 -12.816   3.435  0.00  0.00    -0.476 OA
ATOM     19  H   UNK A  1       28.462 -12.341   2.958  0.00  0.00    +0.295 HD
ENDBRANCH  16  18
ENDBRANCH  13  16
ENDBRANCH   1  12
BRANCH   3  20
ATOM     20  C   UNK A  0       25.260 -20.386   4.738  0.00  0.00    +0.190 C 
ATOM     21  N   UNK A  0       24.301 -21.189   5.128  0.00  0.00    -0.077 NA
BRANCH  20  22
ATOM     22  C   UNK A  0       26.512 -20.489   5.500  0.00  0.00    +0.107 A 
ATOM     23  N   UNK A  0       27.439 -19.454   5.529  0.00  0.00    -0.223 NA
ATOM     24  C   UNK A  0       28.450 -19.745   6.307  0.00  0.00    +0.156 A 
ATOM     25  S   UNK A  0       28.372 -21.282   7.061  0.00  0.00    -0.060 S 
ATOM     26  C   UNK A  0       26.869 -21.572   6.289  0.00  0.00    +0.078 A 
BRANCH  24  27
ATOM     27  N   UNK A  0       29.474 -18.904   6.517  0.00  0.00    -0.338 N 
ATOM     28  H   UNK A  0       29.265 -18.085   7.076  0.00  0.00    +0.144 HD
ATOM     29  H   UNK A  0       30.402 -19.285   6.656  0.00  0.00    +0.144 HD
ENDBRANCH  24  27
ENDBRANCH  20  22
BRANCH  21  30
ATOM     30  O   UNK A  0       23.070 -21.001   4.485  0.00  0.00    -0.382 OA
BRANCH  30  31
ATOM     31  C   UNK A  0       22.266 -20.126   5.285  0.00  0.00    +0.382 C 
BRANCH  31  32
ATOM     32  C   UNK A  0       21.371 -19.267   4.409  0.00  0.00    +0.345 C 
ATOM     33  O   UNK A  0       21.663 -18.138   4.040  0.00  0.00    -0.247 OA
BRANCH  32  34
ATOM     34  O   UNK A  0       20.242 -19.887   3.992  0.00  0.00    -0.478 OA
ATOM     35  H   UNK A  0       20.432 -20.707   3.492  0.00  0.00    +0.295 HD
ENDBRANCH  32  34
ENDBRANCH  31  32
ENDBRANCH  30  31
ENDBRANCH  21  30
ENDBRANCH   3  20
TORSDOF 11
ENDMDL
