MODEL 1
REMARK VINA RESULT:      -2.8      0.000      0.000
REMARK  Name = *****
REMARK                            x       y       z     vdW  Elec       q    Type
REMARK                         _______ _______ _______ _____ _____    ______ ____
ROOT
ATOM      1  C   LIG    1       27.616 -13.789   4.218  0.00  0.00    +0.078 C 
ENDROOT
BRANCH   1   2
ATOM      2  S   LIG    1       26.916 -14.070   2.539  0.00  0.00    -0.172 S 
ATOM      3  H   LIG    1       27.949 -14.802   2.089  0.00  0.00    +0.102 HD
ENDBRANCH   1   2
BRANCH   1   4
ATOM      4  C   LIG    1       28.694 -12.698   4.136  0.00  0.00    +0.170 C 
BRANCH   4   5
ATOM      5  O   LIG    1       28.872 -12.046   5.392  0.00  0.00    -0.394 OA
ATOM      6  H   LIG    1       29.639 -11.457   5.302  0.00  0.00    +0.209 HD
ENDBRANCH   4   5
ENDBRANCH   1   4
BRANCH   1   7
ATOM      7  C   LIG    1       26.520 -13.402   5.224  0.00  0.00    +0.081 C 
BRANCH   7   8
ATOM      8  S   LIG    1       24.874 -13.233   4.453  0.00  0.00    -0.177 S 
ATOM      9  H   LIG    1       24.906 -11.893   4.355  0.00  0.00    +0.102 HD
ENDBRANCH   7   8
ENDBRANCH   1   7
TORSDOF 5
ENDMDL
MODEL 2
REMARK VINA RESULT:      -2.8      7.813      8.131
REMARK  Name = *****
REMARK                            x       y       z     vdW  Elec       q    Type
REMARK                         _______ _______ _______ _____ _____    ______ ____
ROOT
ATOM      1  C   LIG    1       23.941 -20.653   4.341  0.00  0.00    +0.078 C 
ENDROOT
BRANCH   1   2
ATOM      2  S   LIG    1       22.577 -19.543   4.888  0.00  0.00    -0.172 S 
ATOM      3  H   LIG    1       23.317 -18.421   4.891  0.00  0.00    +0.102 HD
ENDBRANCH   1   2
BRANCH   1   4
ATOM      4  C   LIG    1       25.104 -19.797   3.816  0.00  0.00    +0.170 C 
BRANCH   4   5
ATOM      5  O   LIG    1       26.354 -20.243   4.337  0.00  0.00    -0.394 OA
ATOM      6  H   LIG    1       26.157 -20.852   5.068  0.00  0.00    +0.209 HD
ENDBRANCH   4   5
ENDBRANCH   1   4
BRANCH   1   7
ATOM      7  C   LIG    1       24.407 -21.570   5.482  0.00  0.00    +0.081 C 
BRANCH   7   8
ATOM      8  S   LIG    1       23.556 -21.232   7.062  0.00  0.00    -0.177 S 
ATOM      9  H   LIG    1       24.423 -21.909   7.833  0.00  0.00    +0.102 HD
ENDBRANCH   7   8
ENDBRANCH   1   7
TORSDOF 5
ENDMDL
MODEL 3
REMARK VINA RESULT:      -2.7      1.832      2.254
REMARK  Name = *****
REMARK                            x       y       z     vdW  Elec       q    Type
REMARK                         _______ _______ _______ _____ _____    ______ ____
ROOT
ATOM      1  C   LIG    1       26.909 -13.947   3.692  0.00  0.00    +0.078 C 
ENDROOT
BRANCH   1   2
ATOM      2  S   LIG    1       28.551 -13.118   3.757  0.00  0.00    -0.172 S 
ATOM      3  H   LIG    1       28.919 -13.462   2.512  0.00  0.00    +0.102 HD
ENDBRANCH   1   2
BRANCH   1   4
ATOM      4  C   LIG    1       26.120 -13.598   4.964  0.00  0.00    +0.170 C 
BRANCH   4   5
ATOM      5  O   LIG    1       26.993 -13.301   6.052  0.00  0.00    -0.394 OA
ATOM      6  H   LIG    1       26.799 -12.391   6.333  0.00  0.00    +0.209 HD
ENDBRANCH   4   5
ENDBRANCH   1   4
BRANCH   1   7
ATOM      7  C   LIG    1       26.127 -13.542   2.433  0.00  0.00    +0.081 C 
BRANCH   7   8
ATOM      8  S   LIG    1       24.426 -12.986   2.799  0.00  0.00    -0.177 S 
ATOM      9  H   LIG    1       24.257 -13.764   3.882  0.00  0.00    +0.102 HD
ENDBRANCH   7   8
ENDBRANCH   1   7
TORSDOF 5
ENDMDL
MODEL 4
REMARK VINA RESULT:      -2.7      7.262      7.482
REMARK  Name = *****
REMARK                            x       y       z     vdW  Elec       q    Type
REMARK                         _______ _______ _______ _____ _____    ______ ____
ROOT
ATOM      1  C   LIG    1       25.224 -20.788   5.183  0.00  0.00    +0.078 C 
ENDROOT
BRANCH   1   2
ATOM      2  S   LIG    1       25.089 -19.719   3.690  0.00  0.00    -0.172 S 
ATOM      3  H   LIG    1       26.398 -19.425   3.623  0.00  0.00    +0.102 HD
ENDBRANCH   1   2
BRANCH   1   4
ATOM      4  C   LIG    1       26.492 -20.404   5.961  0.00  0.00    +0.170 C 
BRANCH   4   5
ATOM      5  O   LIG    1       27.584 -20.145   5.081  0.00  0.00    -0.394 OA
ATOM      6  H   LIG    1       27.251 -20.251   4.175  0.00  0.00    +0.209 HD
ENDBRANCH   4   5
ENDBRANCH   1   4
BRANCH   1   7
ATOM      7  C   LIG    1       23.977 -20.667   6.073  0.00  0.00    +0.081 C 
BRANCH   7   8
ATOM      8  S   LIG    1       22.600 -19.792   5.253  0.00  0.00    -0.177 S 
ATOM      9  H   LIG    1       23.024 -20.014   3.997  0.00  0.00    +0.102 HD
ENDBRANCH   7   8
ENDBRANCH   1   7
TORSDOF 5
ENDMDL
MODEL 5
REMARK VINA RESULT:      -2.7      2.578      2.770
REMARK  Name = *****
REMARK                            x       y       z     vdW  Elec       q    Type
REMARK                         _______ _______ _______ _____ _____    ______ ____
ROOT
ATOM      1  C   LIG    1       26.990 -14.025   2.724  0.00  0.00    +0.078 C 
ENDROOT
BRANCH   1   2
ATOM      2  S   LIG    1       28.290 -13.217   3.747  0.00  0.00    -0.172 S 
ATOM      3  H   LIG    1       28.948 -12.672   2.710  0.00  0.00    +0.102 HD
ENDBRANCH   1   2
BRANCH   1   4
ATOM      4  C   LIG    1       26.626 -15.379   3.354  0.00  0.00    +0.170 C 
BRANCH   4   5
ATOM      5  O   LIG    1       27.748 -15.965   4.011  0.00  0.00    -0.394 OA
ATOM      6  H   LIG    1       27.827 -15.535   4.878  0.00  0.00    +0.209 HD
ENDBRANCH   4   5
ENDBRANCH   1   4
BRANCH   1   7
ATOM      7  C   LIG    1       25.747 -13.131   2.592  0.00  0.00    +0.081 C 
BRANCH   7   8
ATOM      8  S   LIG    1       24.367 -13.665   3.661  0.00  0.00    -0.177 S 
ATOM      9  H   LIG    1       23.745 -12.474   3.689  0.00  0.00    +0.102 HD
ENDBRANCH   7   8
ENDBRANCH   1   7
TORSDOF 5
ENDMDL
MODEL 6
REMARK VINA RESULT:      -2.7      7.822      8.185
REMARK  Name = *****
REMARK                            x       y       z     vdW  Elec       q    Type
REMARK                         _______ _______ _______ _____ _____    ______ ____
ROOT
ATOM      1  C   LIG    1       24.023 -20.429   5.597  0.00  0.00    +0.078 C 
ENDROOT
BRANCH   1   2
ATOM      2  S   LIG    1       24.139 -21.540   7.061  0.00  0.00    -0.172 S 
ATOM      3  H   LIG    1       24.980 -22.418   6.489  0.00  0.00    +0.102 HD
ENDBRANCH   1   2
BRANCH   1   4
ATOM      4  C   LIG    1       24.872 -21.011   4.457  0.00  0.00    +0.170 C 
BRANCH   4   5
ATOM      5  O   LIG    1       26.124 -20.336   4.344  0.00  0.00    -0.394 OA
ATOM      6  H   LIG    1       25.942 -19.461   3.963  0.00  0.00    +0.209 HD
ENDBRANCH   4   5
ENDBRANCH   1   4
BRANCH   1   7
ATOM      7  C   LIG    1       22.564 -20.241   5.152  0.00  0.00    +0.081 C 
BRANCH   7   8
ATOM      8  S   LIG    1       22.227 -18.569   4.502  0.00  0.00    -0.177 S 
ATOM      9  H   LIG    1       21.864 -18.033   5.680  0.00  0.00    +0.102 HD
ENDBRANCH   7   8
ENDBRANCH   1   7
TORSDOF 5
ENDMDL
MODEL 7
REMARK VINA RESULT:      -2.7      2.461      3.088
REMARK  Name = *****
REMARK                            x       y       z     vdW  Elec       q    Type
REMARK                         _______ _______ _______ _____ _____    ______ ____
ROOT
ATOM      1  C   LIG    1       25.976 -14.199   4.238  0.00  0.00    +0.078 C 
ENDROOT
BRANCH   1   2
ATOM      2  S   LIG    1       24.672 -13.101   3.541  0.00  0.00    -0.172 S 
ATOM      3  H   LIG    1       24.418 -13.868   2.468  0.00  0.00    +0.102 HD
ENDBRANCH   1   2
BRANCH   1   4
ATOM      4  C   LIG    1       26.664 -14.952   3.089  0.00  0.00    +0.170 C 
BRANCH   4   5
ATOM      5  O   LIG    1       26.451 -14.299   1.838  0.00  0.00    -0.394 OA
ATOM      6  H   LIG    1       25.502 -14.097   1.780  0.00  0.00    +0.209 HD
ENDBRANCH   4   5
ENDBRANCH   1   4
BRANCH   1   7
ATOM      7  C   LIG    1       27.000 -13.399   5.059  0.00  0.00    +0.081 C 
BRANCH   7   8
ATOM      8  S   LIG    1       28.489 -12.953   4.102  0.00  0.00    -0.177 S 
ATOM      9  H   LIG    1       27.852 -12.772   2.932  0.00  0.00    +0.102 HD
ENDBRANCH   7   8
ENDBRANCH   1   7
TORSDOF 5
ENDMDL
MODEL 8
REMARK VINA RESULT:      -2.6      2.550      2.697
REMARK  Name = *****
REMARK                            x       y       z     vdW  Elec       q    Type
REMARK                         _______ _______ _______ _____ _____    ______ ____
ROOT
ATOM      1  C   LIG    1       26.429 -12.989   3.789  0.00  0.00    +0.078 C 
ENDROOT
BRANCH   1   2
ATOM      2  S   LIG    1       28.224 -13.376   3.921  0.00  0.00    -0.172 S 
ATOM      3  H   LIG    1       28.201 -14.393   3.044  0.00  0.00    +0.102 HD
ENDBRANCH   1   2
BRANCH   1   4
ATOM      4  C   LIG    1       25.946 -13.325   2.370  0.00  0.00    +0.170 C 
BRANCH   4   5
ATOM      5  O   LIG    1       26.687 -14.409   1.812  0.00  0.00    -0.394 OA
ATOM      6  H   LIG    1       26.563 -14.373   0.849  0.00  0.00    +0.209 HD
ENDBRANCH   4   5
ENDBRANCH   1   4
BRANCH   1   7
ATOM      7  C   LIG    1       25.612 -13.756   4.841  0.00  0.00    +0.081 C 
BRANCH   7   8
ATOM      8  S   LIG    1       23.983 -14.299   4.221  0.00  0.00    -0.177 S 
ATOM      9  H   LIG    1       23.531 -14.754   5.402  0.00  0.00    +0.102 HD
ENDBRANCH   7   8
ENDBRANCH   1   7
TORSDOF 5
ENDMDL
MODEL 9
REMARK VINA RESULT:      -2.6      3.340      3.893
REMARK  Name = *****
REMARK                            x       y       z     vdW  Elec       q    Type
REMARK                         _______ _______ _______ _____ _____    ______ ____
ROOT
ATOM      1  C   LIG    1       25.092 -13.408   2.460  0.00  0.00    +0.078 C 
ENDROOT
BRANCH   1   2
ATOM      2  S   LIG    1       24.191 -13.844   4.005  0.00  0.00    -0.172 S 
ATOM      3  H   LIG    1       23.029 -13.274   3.643  0.00  0.00    +0.102 HD
ENDBRANCH   1   2
BRANCH   1   4
ATOM      4  C   LIG    1       24.625 -12.025   1.981  0.00  0.00    +0.170 C 
BRANCH   4   5
ATOM      5  O   LIG    1       23.588 -11.509   2.813  0.00  0.00    -0.394 OA
ATOM      6  H   LIG    1       22.747 -11.677   2.356  0.00  0.00    +0.209 HD
ENDBRANCH   4   5
ENDBRANCH   1   4
BRANCH   1   7
ATOM      7  C   LIG    1       26.613 -13.429   2.675  0.00  0.00    +0.081 C 
BRANCH   7   8
ATOM      8  S   LIG    1       27.177 -14.878   3.631  0.00  0.00    -0.177 S 
ATOM      9  H   LIG    1       26.407 -15.774   2.991  0.00  0.00    +0.102 HD
ENDBRANCH   7   8
ENDBRANCH   1   7
TORSDOF 5
ENDMDL
