MODEL 1
REMARK VINA RESULT:      -9.4      0.000      0.000
REMARK  Name = *****
REMARK                            x       y       z     vdW  Elec       q    Type
REMARK                         _______ _______ _______ _____ _____    ______ ____
ROOT
ATOM      1  C   LIG    1       24.217 -29.711   7.191  0.00  0.00    +0.044 C 
ATOM      2  C   LIG    1       24.500 -30.974   6.346  0.00  0.00    +0.122 C 
ATOM      3  C   LIG    1       25.475 -30.513   5.255  0.00  0.00    +0.036 C 
ATOM      4  C   LIG    1       25.149 -29.030   5.011  0.00  0.00    -0.001 C 
ATOM      5  C   LIG    1       26.313 -28.063   5.242  0.00  0.00    +0.034 C 
ATOM      6  C   LIG    1       25.686 -26.896   5.959  0.00  0.00    -0.073 C 
ATOM      7  C   LIG    1       26.305 -25.721   6.151  0.00  0.00    -0.027 C 
ATOM      8  C   LIG    1       24.275 -27.195   6.376  0.00  0.00    +0.035 C 
ATOM      9  C   LIG    1       24.082 -28.663   6.054  0.00  0.00    +0.006 C 
ENDROOT
BRANCH   1  11
ATOM     10  C   LIG    1       25.504 -30.265   9.338  0.00  0.00    +0.000 C 
ATOM     11  C   LIG    1       25.310 -29.501   8.241  0.00  0.00    -0.022 C 
BRANCH  10  12
ATOM     12  C   LIG    1       26.640 -30.060  10.334  0.00  0.00    +0.141 C 
BRANCH  12  13
ATOM     13  C   LIG    1       26.256 -29.431  11.705  0.00  0.00    +0.030 C 
ATOM     14  C   LIG    1       26.464 -27.914  11.782  0.00  0.00    +0.011 C 
BRANCH  13  15
ATOM     15  C   LIG    1       24.811 -29.795  12.137  0.00  0.00    +0.095 C 
BRANCH  15  18
ATOM     16  C   LIG    1       22.561 -26.558  13.392  0.00  0.00    +0.106 C 
ATOM     17  C   LIG    1       23.367 -27.685  12.948  0.00  0.00    -0.106 C 
ATOM     18  C   LIG    1       24.030 -28.642  12.589  0.00  0.00    -0.102 C 
ENDBRANCH  15  18
ENDBRANCH  13  15
ENDBRANCH  12  13
BRANCH  12  19
ATOM     19  O   LIG    1       27.598 -29.186   9.727  0.00  0.00    -0.388 OA
ATOM     20  H   LIG    1       27.210 -28.822   8.914  0.00  0.00    +0.210 HD
ENDBRANCH  12  19
ENDBRANCH  10  12
ENDBRANCH   1  11
BRANCH   2  21
ATOM     21  O   LIG    1       23.297 -31.472   5.753  0.00  0.00    -0.391 OA
ATOM     22  H   LIG    1       22.985 -32.241   6.258  0.00  0.00    +0.210 HD
ENDBRANCH   2  21
BRANCH   7  23
ATOM     23  C   LIG    1       25.692 -24.520   6.819  0.00  0.00    +0.028 C 
BRANCH  23  24
ATOM     24  C   LIG    1       24.636 -23.833   5.950  0.00  0.00    +0.015 C 
BRANCH  24  25
ATOM     25  C   LIG    1       23.319 -23.629   6.692  0.00  0.00    +0.121 C 
BRANCH  25  26
ATOM     26  C   LIG    1       23.037 -22.174   6.942  0.00  0.00    +0.307 C 
ATOM     27  O   LIG    1       22.982 -21.639   8.042  0.00  0.00    -0.251 OA
BRANCH  26  28
ATOM     28  O   LIG    1       22.913 -21.528   5.747  0.00  0.00    -0.457 OA
BRANCH  28  29
ATOM     29  C   LIG    1       23.578 -20.269   5.706  0.00  0.00    +0.311 C 
BRANCH  29  30
ATOM     30  C   LIG    1       24.958 -20.373   5.057  0.00  0.00    +0.200 C 
ATOM     31  O   LIG    1       25.107 -20.576   3.851  0.00  0.00    -0.288 OA
BRANCH  30  32
ATOM     32  C   LIG    1       26.157 -20.290   5.933  0.00  0.00    +0.021 A 
ATOM     33  C   LIG    1       27.420 -19.990   5.411  0.00  0.00    +0.011 A 
ATOM     34  C   LIG    1       28.529 -19.928   6.252  0.00  0.00    +0.001 A 
ATOM     35  C   LIG    1       28.388 -20.178   7.614  0.00  0.00    +0.000 A 
ATOM     36  C   LIG    1       27.135 -20.490   8.142  0.00  0.00    +0.001 A 
ATOM     37  C   LIG    1       26.018 -20.549   7.303  0.00  0.00    +0.011 A 
ENDBRANCH  30  32
ENDBRANCH  29  30
ENDBRANCH  28  29
ENDBRANCH  26  28
ENDBRANCH  25  26
ENDBRANCH  24  25
ENDBRANCH  23  24
ENDBRANCH   7  23
TORSDOF 15
ENDMDL
MODEL 2
REMARK VINA RESULT:      -9.4      2.022      9.261
REMARK  Name = *****
REMARK                            x       y       z     vdW  Elec       q    Type
REMARK                         _______ _______ _______ _____ _____    ______ ____
ROOT
ATOM      1  C   LIG    1       25.116 -21.125   5.319  0.00  0.00    +0.044 C 
ATOM      2  C   LIG    1       23.971 -20.217   5.821  0.00  0.00    +0.122 C 
ATOM      3  C   LIG    1       23.139 -21.105   6.756  0.00  0.00    +0.036 C 
ATOM      4  C   LIG    1       23.304 -22.536   6.220  0.00  0.00    -0.001 C 
ATOM      5  C   LIG    1       23.896 -23.538   7.216  0.00  0.00    +0.034 C 
ATOM      6  C   LIG    1       24.864 -24.347   6.393  0.00  0.00    -0.073 C 
ATOM      7  C   LIG    1       25.433 -25.485   6.820  0.00  0.00    -0.027 C 
ATOM      8  C   LIG    1       25.063 -23.754   5.029  0.00  0.00    +0.035 C 
ATOM      9  C   LIG    1       24.320 -22.434   5.071  0.00  0.00    +0.006 C 
ENDROOT
BRANCH   1  11
ATOM     10  C   LIG    1       27.166 -20.171   6.528  0.00  0.00    +0.000 C 
ATOM     11  C   LIG    1       26.267 -21.159   6.328  0.00  0.00    -0.022 C 
BRANCH  10  12
ATOM     12  C   LIG    1       28.266 -20.217   7.583  0.00  0.00    +0.141 C 
BRANCH  12  13
ATOM     13  C   LIG    1       29.726 -20.054   7.070  0.00  0.00    +0.030 C 
ATOM     14  C   LIG    1       29.949 -18.819   6.189  0.00  0.00    +0.011 C 
BRANCH  13  15
ATOM     15  C   LIG    1       30.764 -20.083   8.223  0.00  0.00    +0.095 C 
BRANCH  15  18
ATOM     16  C   LIG    1       30.649 -16.765  10.690  0.00  0.00    +0.106 C 
ATOM     17  C   LIG    1       30.672 -17.927   9.815  0.00  0.00    -0.106 C 
ATOM     18  C   LIG    1       30.714 -18.899   9.083  0.00  0.00    -0.102 C 
ENDBRANCH  15  18
ENDBRANCH  13  15
ENDBRANCH  12  13
BRANCH  12  19
ATOM     19  O   LIG    1       28.191 -21.490   8.234  0.00  0.00    -0.388 OA
ATOM     20  H   LIG    1       28.910 -22.050   7.897  0.00  0.00    +0.210 HD
ENDBRANCH  12  19
ENDBRANCH  10  12
ENDBRANCH   1  11
BRANCH   2  21
ATOM     21  O   LIG    1       23.165 -19.761   4.730  0.00  0.00    -0.391 OA
ATOM     22  H   LIG    1       23.496 -18.900   4.424  0.00  0.00    +0.210 HD
ENDBRANCH   2  21
BRANCH   7  23
ATOM     23  C   LIG    1       26.366 -26.342   6.008  0.00  0.00    +0.028 C 
BRANCH  23  24
ATOM     24  C   LIG    1       25.626 -27.332   5.106  0.00  0.00    +0.015 C 
BRANCH  24  25
ATOM     25  C   LIG    1       24.500 -28.054   5.840  0.00  0.00    +0.121 C 
BRANCH  25  26
ATOM     26  C   LIG    1       24.639 -29.549   5.746  0.00  0.00    +0.307 C 
ATOM     27  O   LIG    1       25.520 -30.144   5.141  0.00  0.00    -0.251 OA
BRANCH  26  28
ATOM     28  O   LIG    1       23.662 -30.138   6.492  0.00  0.00    -0.457 OA
BRANCH  28  29
ATOM     29  C   LIG    1       24.160 -31.029   7.486  0.00  0.00    +0.311 C 
BRANCH  29  30
ATOM     30  C   LIG    1       23.768 -30.588   8.896  0.00  0.00    +0.200 C 
ATOM     31  O   LIG    1       22.660 -30.827   9.379  0.00  0.00    -0.288 OA
BRANCH  30  32
ATOM     32  C   LIG    1       24.743 -29.784   9.680  0.00  0.00    +0.021 A 
ATOM     33  C   LIG    1       25.867 -29.212   9.075  0.00  0.00    +0.011 A 
ATOM     34  C   LIG    1       26.772 -28.472   9.832  0.00  0.00    +0.001 A 
ATOM     35  C   LIG    1       26.568 -28.310  11.200  0.00  0.00    +0.000 A 
ATOM     36  C   LIG    1       25.457 -28.886  11.815  0.00  0.00    +0.001 A 
ATOM     37  C   LIG    1       24.544 -29.626  11.058  0.00  0.00    +0.011 A 
ENDBRANCH  30  32
ENDBRANCH  29  30
ENDBRANCH  28  29
ENDBRANCH  26  28
ENDBRANCH  25  26
ENDBRANCH  24  25
ENDBRANCH  23  24
ENDBRANCH   7  23
TORSDOF 15
ENDMDL
MODEL 3
REMARK VINA RESULT:      -9.1      1.645      2.872
REMARK  Name = *****
REMARK                            x       y       z     vdW  Elec       q    Type
REMARK                         _______ _______ _______ _____ _____    ______ ____
ROOT
ATOM      1  C   LIG    1       24.255 -29.384   7.133  0.00  0.00    +0.044 C 
ATOM      2  C   LIG    1       24.570 -30.611   6.248  0.00  0.00    +0.122 C 
ATOM      3  C   LIG    1       25.541 -30.093   5.179  0.00  0.00    +0.036 C 
ATOM      4  C   LIG    1       25.186 -28.610   4.983  0.00  0.00    -0.001 C 
ATOM      5  C   LIG    1       26.328 -27.627   5.255  0.00  0.00    +0.034 C 
ATOM      6  C   LIG    1       25.672 -26.499   6.007  0.00  0.00    -0.073 C 
ATOM      7  C   LIG    1       26.264 -25.318   6.243  0.00  0.00    -0.027 C 
ATOM      8  C   LIG    1       24.265 -26.841   6.404  0.00  0.00    +0.035 C 
ATOM      9  C   LIG    1       24.105 -28.301   6.031  0.00  0.00    +0.006 C 
ENDROOT
BRANCH   1  11
ATOM     10  C   LIG    1       25.216 -29.491   9.508  0.00  0.00    +0.000 C 
ATOM     11  C   LIG    1       25.338 -29.187   8.197  0.00  0.00    -0.022 C 
BRANCH  10  12
ATOM     12  C   LIG    1       26.337 -29.334  10.529  0.00  0.00    +0.141 C 
BRANCH  12  13
ATOM     13  C   LIG    1       25.999 -28.517  11.810  0.00  0.00    +0.030 C 
ATOM     14  C   LIG    1       25.859 -29.365  13.079  0.00  0.00    +0.011 C 
BRANCH  13  15
ATOM     15  C   LIG    1       26.998 -27.355  12.050  0.00  0.00    +0.095 C 
BRANCH  15  18
ATOM     16  C   LIG    1       25.382 -24.290  14.310  0.00  0.00    +0.106 C 
ATOM     17  C   LIG    1       25.953 -25.355  13.501  0.00  0.00    -0.106 C 
ATOM     18  C   LIG    1       26.437 -26.258  12.842  0.00  0.00    -0.102 C 
ENDBRANCH  15  18
ENDBRANCH  13  15
ENDBRANCH  12  13
BRANCH  12  19
ATOM     19  O   LIG    1       27.425 -28.666   9.882  0.00  0.00    -0.388 OA
ATOM     20  H   LIG    1       28.182 -28.649  10.490  0.00  0.00    +0.210 HD
ENDBRANCH  12  19
ENDBRANCH  10  12
ENDBRANCH   1  11
BRANCH   2  21
ATOM     21  O   LIG    1       23.381 -31.114   5.630  0.00  0.00    -0.391 OA
ATOM     22  H   LIG    1       22.634 -30.532   5.850  0.00  0.00    +0.210 HD
ENDBRANCH   2  21
BRANCH   7  23
ATOM     23  C   LIG    1       25.622 -24.154   6.947  0.00  0.00    +0.028 C 
BRANCH  23  24
ATOM     24  C   LIG    1       26.641 -23.129   7.448  0.00  0.00    +0.015 C 
BRANCH  24  25
ATOM     25  C   LIG    1       26.225 -21.696   7.128  0.00  0.00    +0.121 C 
BRANCH  25  26
ATOM     26  C   LIG    1       25.457 -21.070   8.259  0.00  0.00    +0.307 C 
ATOM     27  O   LIG    1       25.878 -20.897   9.394  0.00  0.00    -0.251 OA
BRANCH  26  28
ATOM     28  O   LIG    1       24.235 -20.670   7.804  0.00  0.00    -0.457 OA
BRANCH  28  29
ATOM     29  C   LIG    1       23.304 -21.737   7.649  0.00  0.00    +0.311 C 
BRANCH  29  30
ATOM     30  C   LIG    1       22.712 -21.778   6.240  0.00  0.00    +0.200 C 
ATOM     31  O   LIG    1       21.959 -22.678   5.867  0.00  0.00    -0.288 OA
BRANCH  30  32
ATOM     32  C   LIG    1       23.118 -20.723   5.274  0.00  0.00    +0.021 A 
ATOM     33  C   LIG    1       22.396 -19.531   5.151  0.00  0.00    +0.011 A 
ATOM     34  C   LIG    1       22.791 -18.562   4.232  0.00  0.00    +0.001 A 
ATOM     35  C   LIG    1       23.900 -18.783   3.419  0.00  0.00    +0.000 A 
ATOM     36  C   LIG    1       24.620 -19.973   3.525  0.00  0.00    +0.001 A 
ATOM     37  C   LIG    1       24.230 -20.946   4.450  0.00  0.00    +0.011 A 
ENDBRANCH  30  32
ENDBRANCH  29  30
ENDBRANCH  28  29
ENDBRANCH  26  28
ENDBRANCH  25  26
ENDBRANCH  24  25
ENDBRANCH  23  24
ENDBRANCH   7  23
TORSDOF 15
ENDMDL
MODEL 4
REMARK VINA RESULT:      -9.1      2.624      3.515
REMARK  Name = *****
REMARK                            x       y       z     vdW  Elec       q    Type
REMARK                         _______ _______ _______ _____ _____    ______ ____
ROOT
ATOM      1  C   LIG    1       24.115 -29.212   7.049  0.00  0.00    +0.044 C 
ATOM      2  C   LIG    1       24.554 -30.466   6.261  0.00  0.00    +0.122 C 
ATOM      3  C   LIG    1       25.620 -29.965   5.277  0.00  0.00    +0.036 C 
ATOM      4  C   LIG    1       25.249 -28.504   4.976  0.00  0.00    -0.001 C 
ATOM      5  C   LIG    1       26.329 -27.475   5.320  0.00  0.00    +0.034 C 
ATOM      6  C   LIG    1       25.568 -26.336   5.945  0.00  0.00    -0.073 C 
ATOM      7  C   LIG    1       26.101 -25.129   6.186  0.00  0.00    -0.027 C 
ATOM      8  C   LIG    1       24.137 -26.704   6.207  0.00  0.00    +0.035 C 
ATOM      9  C   LIG    1       24.055 -28.183   5.888  0.00  0.00    +0.006 C 
ENDROOT
BRANCH   1  11
ATOM     10  C   LIG    1       25.422 -29.820   9.170  0.00  0.00    +0.000 C 
ATOM     11  C   LIG    1       25.072 -28.935   8.211  0.00  0.00    -0.022 C 
BRANCH  10  12
ATOM     12  C   LIG    1       26.424 -29.526  10.280  0.00  0.00    +0.141 C 
BRANCH  12  13
ATOM     13  C   LIG    1       25.921 -28.626  11.447  0.00  0.00    +0.030 C 
ATOM     14  C   LIG    1       25.369 -29.402  12.648  0.00  0.00    +0.011 C 
BRANCH  13  15
ATOM     15  C   LIG    1       26.997 -27.611  11.915  0.00  0.00    +0.095 C 
BRANCH  15  18
ATOM     16  C   LIG    1       25.415 -24.426  14.027  0.00  0.00    +0.106 C 
ATOM     17  C   LIG    1       25.988 -25.544  13.295  0.00  0.00    -0.106 C 
ATOM     18  C   LIG    1       26.447 -26.488  12.678  0.00  0.00    -0.102 C 
ENDBRANCH  15  18
ENDBRANCH  13  15
ENDBRANCH  12  13
BRANCH  12  19
ATOM     19  O   LIG    1       27.544 -28.859   9.690  0.00  0.00    -0.388 OA
ATOM     20  H   LIG    1       27.888 -29.413   8.970  0.00  0.00    +0.210 HD
ENDBRANCH  12  19
ENDBRANCH  10  12
ENDBRANCH   1  11
BRANCH   2  21
ATOM     21  O   LIG    1       23.451 -31.032   5.545  0.00  0.00    -0.391 OA
ATOM     22  H   LIG    1       22.920 -30.316   5.157  0.00  0.00    +0.210 HD
ENDBRANCH   2  21
BRANCH   7  23
ATOM     23  C   LIG    1       25.357 -23.955   6.763  0.00  0.00    +0.028 C 
BRANCH  23  24
ATOM     24  C   LIG    1       26.273 -22.981   7.508  0.00  0.00    +0.015 C 
BRANCH  24  25
ATOM     25  C   LIG    1       26.127 -21.549   7.004  0.00  0.00    +0.121 C 
BRANCH  25  26
ATOM     26  C   LIG    1       26.846 -20.568   7.889  0.00  0.00    +0.307 C 
ATOM     27  O   LIG    1       26.628 -20.393   9.080  0.00  0.00    -0.251 OA
BRANCH  26  28
ATOM     28  O   LIG    1       27.822 -19.945   7.168  0.00  0.00    -0.457 OA
BRANCH  28  29
ATOM     29  C   LIG    1       29.113 -20.026   7.764  0.00  0.00    +0.311 C 
BRANCH  29  30
ATOM     30  C   LIG    1       29.963 -18.794   7.455  0.00  0.00    +0.200 C 
ATOM     31  O   LIG    1       30.188 -18.420   6.303  0.00  0.00    -0.288 OA
BRANCH  30  32
ATOM     32  C   LIG    1       30.589 -18.066   8.591  0.00  0.00    +0.021 A 
ATOM     33  C   LIG    1       31.903 -17.592   8.515  0.00  0.00    +0.011 A 
ATOM     34  C   LIG    1       32.471 -16.921   9.596  0.00  0.00    +0.001 A 
ATOM     35  C   LIG    1       31.736 -16.733  10.763  0.00  0.00    +0.000 A 
ATOM     36  C   LIG    1       30.429 -17.212  10.853  0.00  0.00    +0.001 A 
ATOM     37  C   LIG    1       29.854 -17.882   9.769  0.00  0.00    +0.011 A 
ENDBRANCH  30  32
ENDBRANCH  29  30
ENDBRANCH  28  29
ENDBRANCH  26  28
ENDBRANCH  25  26
ENDBRANCH  24  25
ENDBRANCH  23  24
ENDBRANCH   7  23
TORSDOF 15
ENDMDL
MODEL 5
REMARK VINA RESULT:      -9.1      1.867      9.373
REMARK  Name = *****
REMARK                            x       y       z     vdW  Elec       q    Type
REMARK                         _______ _______ _______ _____ _____    ______ ____
ROOT
ATOM      1  C   LIG    1       24.915 -20.425   4.823  0.00  0.00    +0.044 C 
ATOM      2  C   LIG    1       23.729 -19.458   5.038  0.00  0.00    +0.122 C 
ATOM      3  C   LIG    1       22.761 -20.214   5.959  0.00  0.00    +0.036 C 
ATOM      4  C   LIG    1       22.972 -21.704   5.644  0.00  0.00    -0.001 C 
ATOM      5  C   LIG    1       23.404 -22.565   6.834  0.00  0.00    +0.034 C 
ATOM      6  C   LIG    1       24.460 -23.476   6.267  0.00  0.00    -0.073 C 
ATOM      7  C   LIG    1       24.945 -24.547   6.914  0.00  0.00    -0.027 C 
ATOM      8  C   LIG    1       24.854 -23.069   4.877  0.00  0.00    +0.035 C 
ATOM      9  C   LIG    1       24.136 -21.755   4.642  0.00  0.00    +0.006 C 
ENDROOT
BRANCH   1  11
ATOM     10  C   LIG    1       27.261 -20.378   5.857  0.00  0.00    +0.000 C 
ATOM     11  C   LIG    1       25.917 -20.325   5.976  0.00  0.00    -0.022 C 
BRANCH  10  12
ATOM     12  C   LIG    1       28.230 -20.217   7.023  0.00  0.00    +0.141 C 
BRANCH  12  13
ATOM     13  C   LIG    1       29.702 -19.867   6.657  0.00  0.00    +0.030 C 
ATOM     14  C   LIG    1       29.878 -18.492   6.002  0.00  0.00    +0.011 C 
BRANCH  13  15
ATOM     15  C   LIG    1       30.661 -20.008   7.869  0.00  0.00    +0.095 C 
BRANCH  15  18
ATOM     16  C   LIG    1       30.477 -16.864  10.550  0.00  0.00    +0.106 C 
ATOM     17  C   LIG    1       30.523 -17.971   9.608  0.00  0.00    -0.106 C 
ATOM     18  C   LIG    1       30.580 -18.890   8.811  0.00  0.00    -0.102 C 
ENDBRANCH  15  18
ENDBRANCH  13  15
ENDBRANCH  12  13
BRANCH  12  19
ATOM     19  O   LIG    1       28.261 -21.457   7.737  0.00  0.00    -0.388 OA
ATOM     20  H   LIG    1       27.470 -21.969   7.500  0.00  0.00    +0.210 HD
ENDBRANCH  12  19
ENDBRANCH  10  12
ENDBRANCH   1  11
BRANCH   2  21
ATOM     21  O   LIG    1       23.088 -19.151   3.796  0.00  0.00    -0.391 OA
ATOM     22  H   LIG    1       22.294 -18.617   3.968  0.00  0.00    +0.210 HD
ENDBRANCH   2  21
BRANCH   7  23
ATOM     23  C   LIG    1       25.964 -25.504   6.358  0.00  0.00    +0.028 C 
BRANCH  23  24
ATOM     24  C   LIG    1       25.790 -26.928   6.890  0.00  0.00    +0.015 C 
BRANCH  24  25
ATOM     25  C   LIG    1       24.540 -27.605   6.334  0.00  0.00    +0.121 C 
BRANCH  25  26
ATOM     26  C   LIG    1       24.469 -29.056   6.724  0.00  0.00    +0.307 C 
ATOM     27  O   LIG    1       23.588 -29.838   6.395  0.00  0.00    -0.251 OA
BRANCH  26  28
ATOM     28  O   LIG    1       25.576 -29.380   7.452  0.00  0.00    -0.457 OA
BRANCH  28  29
ATOM     29  C   LIG    1       25.279 -29.992   8.703  0.00  0.00    +0.311 C 
BRANCH  29  30
ATOM     30  C   LIG    1       26.374 -29.735   9.739  0.00  0.00    +0.200 C 
ATOM     31  O   LIG    1       27.482 -30.268   9.673  0.00  0.00    -0.288 OA
BRANCH  30  32
ATOM     32  C   LIG    1       26.056 -28.860  10.898  0.00  0.00    +0.021 A 
ATOM     33  C   LIG    1       26.911 -27.821  11.281  0.00  0.00    +0.011 A 
ATOM     34  C   LIG    1       26.597 -27.021  12.377  0.00  0.00    +0.001 A 
ATOM     35  C   LIG    1       25.435 -27.262  13.106  0.00  0.00    +0.000 A 
ATOM     36  C   LIG    1       24.582 -28.302  12.740  0.00  0.00    +0.001 A 
ATOM     37  C   LIG    1       24.891 -29.105  11.638  0.00  0.00    +0.011 A 
ENDBRANCH  30  32
ENDBRANCH  29  30
ENDBRANCH  28  29
ENDBRANCH  26  28
ENDBRANCH  25  26
ENDBRANCH  24  25
ENDBRANCH  23  24
ENDBRANCH   7  23
TORSDOF 15
ENDMDL
MODEL 6
REMARK VINA RESULT:      -9.0      1.415      2.067
REMARK  Name = *****
REMARK                            x       y       z     vdW  Elec       q    Type
REMARK                         _______ _______ _______ _____ _____    ______ ____
ROOT
ATOM      1  C   LIG    1       24.134 -29.637   7.072  0.00  0.00    +0.044 C 
ATOM      2  C   LIG    1       24.469 -30.974   6.373  0.00  0.00    +0.122 C 
ATOM      3  C   LIG    1       25.515 -30.615   5.309  0.00  0.00    +0.036 C 
ATOM      4  C   LIG    1       25.209 -29.164   4.903  0.00  0.00    -0.001 C 
ATOM      5  C   LIG    1       26.356 -28.174   5.116  0.00  0.00    +0.034 C 
ATOM      6  C   LIG    1       25.686 -26.947   5.675  0.00  0.00    -0.073 C 
ATOM      7  C   LIG    1       26.292 -25.756   5.793  0.00  0.00    -0.027 C 
ATOM      8  C   LIG    1       24.250 -27.211   6.025  0.00  0.00    +0.035 C 
ATOM      9  C   LIG    1       24.076 -28.704   5.834  0.00  0.00    +0.006 C 
ENDROOT
BRANCH   1  11
ATOM     10  C   LIG    1       25.227 -29.926   9.374  0.00  0.00    +0.000 C 
ATOM     11  C   LIG    1       25.156 -29.323   8.167  0.00  0.00    -0.022 C 
BRANCH  10  12
ATOM     12  C   LIG    1       26.297 -29.625  10.418  0.00  0.00    +0.141 C 
BRANCH  12  13
ATOM     13  C   LIG    1       25.917 -28.596  11.522  0.00  0.00    +0.030 C 
ATOM     14  C   LIG    1       25.531 -29.226  12.866  0.00  0.00    +0.011 C 
BRANCH  13  15
ATOM     15  C   LIG    1       27.017 -27.522  11.732  0.00  0.00    +0.095 C 
BRANCH  15  18
ATOM     16  C   LIG    1       25.913 -24.511  14.344  0.00  0.00    +0.106 C 
ATOM     17  C   LIG    1       26.315 -25.575  13.438  0.00  0.00    -0.106 C 
ATOM     18  C   LIG    1       26.631 -26.467  12.671  0.00  0.00    -0.102 C 
ENDBRANCH  15  18
ENDBRANCH  13  15
ENDBRANCH  12  13
BRANCH  12  19
ATOM     19  O   LIG    1       27.439 -29.102   9.733  0.00  0.00    -0.388 OA
ATOM     20  H   LIG    1       27.136 -28.437   9.094  0.00  0.00    +0.210 HD
ENDBRANCH  12  19
ENDBRANCH  10  12
ENDBRANCH   1  11
BRANCH   2  21
ATOM     21  O   LIG    1       23.307 -31.532   5.753  0.00  0.00    -0.391 OA
ATOM     22  H   LIG    1       23.183 -32.444   6.066  0.00  0.00    +0.210 HD
ENDBRANCH   2  21
BRANCH   7  23
ATOM     23  C   LIG    1       25.639 -24.499   6.301  0.00  0.00    +0.028 C 
BRANCH  23  24
ATOM     24  C   LIG    1       24.861 -23.755   5.214  0.00  0.00    +0.015 C 
BRANCH  24  25
ATOM     25  C   LIG    1       24.281 -22.436   5.718  0.00  0.00    +0.121 C 
BRANCH  25  26
ATOM     26  C   LIG    1       23.282 -22.649   6.821  0.00  0.00    +0.307 C 
ATOM     27  O   LIG    1       22.351 -23.444   6.793  0.00  0.00    -0.251 OA
BRANCH  26  28
ATOM     28  O   LIG    1       23.611 -21.861   7.884  0.00  0.00    -0.457 OA
BRANCH  28  29
ATOM     29  C   LIG    1       24.456 -20.766   7.543  0.00  0.00    +0.311 C 
BRANCH  29  30
ATOM     30  C   LIG    1       25.776 -20.802   8.313  0.00  0.00    +0.200 C 
ATOM     31  O   LIG    1       25.841 -21.142   9.495  0.00  0.00    -0.288 OA
BRANCH  30  32
ATOM     32  C   LIG    1       27.009 -20.345   7.620  0.00  0.00    +0.021 A 
ATOM     33  C   LIG    1       28.156 -19.985   8.337  0.00  0.00    +0.011 A 
ATOM     34  C   LIG    1       29.296 -19.551   7.665  0.00  0.00    +0.001 A 
ATOM     35  C   LIG    1       29.294 -19.458   6.275  0.00  0.00    +0.000 A 
ATOM     36  C   LIG    1       28.152 -19.803   5.553  0.00  0.00    +0.001 A 
ATOM     37  C   LIG    1       27.007 -20.243   6.222  0.00  0.00    +0.011 A 
ENDBRANCH  30  32
ENDBRANCH  29  30
ENDBRANCH  28  29
ENDBRANCH  26  28
ENDBRANCH  25  26
ENDBRANCH  24  25
ENDBRANCH  23  24
ENDBRANCH   7  23
TORSDOF 15
ENDMDL
MODEL 7
REMARK VINA RESULT:      -8.9      1.808      9.626
REMARK  Name = *****
REMARK                            x       y       z     vdW  Elec       q    Type
REMARK                         _______ _______ _______ _____ _____    ______ ____
ROOT
ATOM      1  C   LIG    1       24.096 -21.117   4.791  0.00  0.00    +0.044 C 
ATOM      2  C   LIG    1       23.402 -19.966   5.554  0.00  0.00    +0.122 C 
ATOM      3  C   LIG    1       23.453 -20.381   7.031  0.00  0.00    +0.036 C 
ATOM      4  C   LIG    1       23.435 -21.918   7.028  0.00  0.00    -0.001 C 
ATOM      5  C   LIG    1       24.639 -22.583   7.700  0.00  0.00    +0.034 C 
ATOM      6  C   LIG    1       24.984 -23.730   6.787  0.00  0.00    -0.073 C 
ATOM      7  C   LIG    1       25.837 -24.712   7.116  0.00  0.00    -0.027 C 
ATOM      8  C   LIG    1       24.216 -23.663   5.499  0.00  0.00    +0.035 C 
ATOM      9  C   LIG    1       23.496 -22.331   5.549  0.00  0.00    +0.006 C 
ENDROOT
BRANCH   1  11
ATOM     10  C   LIG    1       26.313 -20.174   5.669  0.00  0.00    +0.000 C 
ATOM     11  C   LIG    1       25.616 -20.939   4.800  0.00  0.00    -0.022 C 
BRANCH  10  12
ATOM     12  C   LIG    1       27.834 -20.066   5.683  0.00  0.00    +0.141 C 
BRANCH  12  13
ATOM     13  C   LIG    1       28.507 -19.950   7.082  0.00  0.00    +0.030 C 
ATOM     14  C   LIG    1       28.881 -21.296   7.713  0.00  0.00    +0.011 C 
BRANCH  13  15
ATOM     15  C   LIG    1       29.738 -19.006   7.069  0.00  0.00    +0.095 C 
BRANCH  15  18
ATOM     16  C   LIG    1       30.478 -17.198  10.714  0.00  0.00    +0.106 C 
ATOM     17  C   LIG    1       30.234 -17.844   9.435  0.00  0.00    -0.106 C 
ATOM     18  C   LIG    1       30.008 -18.381   8.365  0.00  0.00    -0.102 C 
ENDBRANCH  15  18
ENDBRANCH  13  15
ENDBRANCH  12  13
BRANCH  12  19
ATOM     19  O   LIG    1       28.194 -18.892   4.947  0.00  0.00    -0.388 OA
ATOM     20  H   LIG    1       28.856 -18.399   5.459  0.00  0.00    +0.210 HD
ENDBRANCH  12  19
ENDBRANCH  10  12
ENDBRANCH   1  11
BRANCH   2  21
ATOM     21  O   LIG    1       22.044 -19.818   5.131  0.00  0.00    -0.391 OA
ATOM     22  H   LIG    1       21.515 -19.466   5.867  0.00  0.00    +0.210 HD
ENDBRANCH   2  21
BRANCH   7  23
ATOM     23  C   LIG    1       26.167 -25.897   6.248  0.00  0.00    +0.028 C 
BRANCH  23  24
ATOM     24  C   LIG    1       25.703 -27.223   6.854  0.00  0.00    +0.015 C 
BRANCH  24  25
ATOM     25  C   LIG    1       24.508 -27.812   6.112  0.00  0.00    +0.121 C 
BRANCH  25  26
ATOM     26  C   LIG    1       24.633 -29.301   5.941  0.00  0.00    +0.307 C 
ATOM     27  O   LIG    1       25.451 -29.868   5.230  0.00  0.00    -0.251 OA
BRANCH  26  28
ATOM     28  O   LIG    1       23.731 -29.923   6.752  0.00  0.00    -0.457 OA
BRANCH  28  29
ATOM     29  C   LIG    1       24.259 -31.058   7.431  0.00  0.00    +0.311 C 
BRANCH  29  30
ATOM     30  C   LIG    1       25.114 -30.657   8.633  0.00  0.00    +0.200 C 
ATOM     31  O   LIG    1       26.341 -30.767   8.637  0.00  0.00    -0.288 OA
BRANCH  30  32
ATOM     32  C   LIG    1       24.424 -30.178   9.860  0.00  0.00    +0.021 A 
ATOM     33  C   LIG    1       25.127 -29.538  10.887  0.00  0.00    +0.011 A 
ATOM     34  C   LIG    1       24.460 -29.107  12.031  0.00  0.00    +0.001 A 
ATOM     35  C   LIG    1       23.091 -29.326  12.165  0.00  0.00    +0.000 A 
ATOM     36  C   LIG    1       22.384 -29.974  11.153  0.00  0.00    +0.001 A 
ATOM     37  C   LIG    1       23.049 -30.404  10.000  0.00  0.00    +0.011 A 
ENDBRANCH  30  32
ENDBRANCH  29  30
ENDBRANCH  28  29
ENDBRANCH  26  28
ENDBRANCH  25  26
ENDBRANCH  24  25
ENDBRANCH  23  24
ENDBRANCH   7  23
TORSDOF 15
ENDMDL
MODEL 8
REMARK VINA RESULT:      -8.7      2.372      5.004
REMARK  Name = *****
REMARK                            x       y       z     vdW  Elec       q    Type
REMARK                         _______ _______ _______ _____ _____    ______ ____
ROOT
ATOM      1  C   LIG    1       25.265 -30.483  12.006  0.00  0.00    +0.044 C 
ATOM      2  C   LIG    1       26.251 -30.051  13.114  0.00  0.00    +0.122 C 
ATOM      3  C   LIG    1       27.136 -28.979  12.463  0.00  0.00    +0.036 C 
ATOM      4  C   LIG    1       27.190 -29.340  10.970  0.00  0.00    -0.001 C 
ATOM      5  C   LIG    1       26.678 -28.254  10.020  0.00  0.00    +0.034 C 
ATOM      6  C   LIG    1       25.872 -29.010   8.996  0.00  0.00    -0.073 C 
ATOM      7  C   LIG    1       25.433 -28.469   7.849  0.00  0.00    -0.027 C 
ATOM      8  C   LIG    1       25.677 -30.444   9.393  0.00  0.00    +0.035 C 
ATOM      9  C   LIG    1       26.238 -30.534  10.797  0.00  0.00    +0.006 C 
ENDROOT
BRANCH   1  11
ATOM     10  C   LIG    1       22.804 -29.823  12.292  0.00  0.00    +0.000 C 
ATOM     11  C   LIG    1       24.072 -29.527  11.934  0.00  0.00    -0.022 C 
BRANCH  10  12
ATOM     12  C   LIG    1       21.652 -28.825  12.260  0.00  0.00    +0.141 C 
BRANCH  12  13
ATOM     13  C   LIG    1       21.333 -28.091  13.595  0.00  0.00    +0.030 C 
ATOM     14  C   LIG    1       21.982 -28.723  14.832  0.00  0.00    +0.011 C 
BRANCH  13  15
ATOM     15  C   LIG    1       21.667 -26.577  13.531  0.00  0.00    +0.095 C 
BRANCH  15  18
ATOM     16  C   LIG    1       25.735 -25.831  13.591  0.00  0.00    +0.106 C 
ATOM     17  C   LIG    1       24.301 -26.075  13.576  0.00  0.00    -0.106 C 
ATOM     18  C   LIG    1       23.103 -26.295  13.547  0.00  0.00    -0.102 C 
ENDBRANCH  15  18
ENDBRANCH  13  15
ENDBRANCH  12  13
BRANCH  12  19
ATOM     19  O   LIG    1       20.469 -29.538  11.882  0.00  0.00    -0.388 OA
ATOM     20  H   LIG    1       19.707 -28.943  11.978  0.00  0.00    +0.210 HD
ENDBRANCH  12  19
ENDBRANCH  10  12
ENDBRANCH   1  11
BRANCH   2  21
ATOM     21  O   LIG    1       27.052 -31.156  13.545  0.00  0.00    -0.391 OA
ATOM     22  H   LIG    1       27.117 -31.146  14.515  0.00  0.00    +0.210 HD
ENDBRANCH   2  21
BRANCH   7  23
ATOM     23  C   LIG    1       24.668 -29.207   6.784  0.00  0.00    +0.028 C 
BRANCH  23  24
ATOM     24  C   LIG    1       24.485 -28.382   5.508  0.00  0.00    +0.015 C 
BRANCH  24  25
ATOM     25  C   LIG    1       24.329 -26.893   5.799  0.00  0.00    +0.121 C 
BRANCH  25  26
ATOM     26  C   LIG    1       25.443 -26.084   5.194  0.00  0.00    +0.307 C 
ATOM     27  O   LIG    1       26.571 -26.494   4.956  0.00  0.00    -0.251 OA
BRANCH  26  28
ATOM     28  O   LIG    1       24.980 -24.837   4.894  0.00  0.00    -0.457 OA
BRANCH  28  29
ATOM     29  C   LIG    1       25.236 -23.872   5.910  0.00  0.00    +0.311 C 
BRANCH  29  30
ATOM     30  C   LIG    1       24.006 -23.015   6.207  0.00  0.00    +0.200 C 
ATOM     31  O   LIG    1       23.128 -23.372   6.993  0.00  0.00    -0.288 OA
BRANCH  30  32
ATOM     32  C   LIG    1       23.840 -21.737   5.464  0.00  0.00    +0.021 A 
ATOM     33  C   LIG    1       24.867 -21.223   4.664  0.00  0.00    +0.011 A 
ATOM     34  C   LIG    1       24.691 -20.019   3.986  0.00  0.00    +0.001 A 
ATOM     35  C   LIG    1       23.498 -19.314   4.114  0.00  0.00    +0.000 A 
ATOM     36  C   LIG    1       22.473 -19.812   4.919  0.00  0.00    +0.001 A 
ATOM     37  C   LIG    1       22.643 -21.022   5.598  0.00  0.00    +0.011 A 
ENDBRANCH  30  32
ENDBRANCH  29  30
ENDBRANCH  28  29
ENDBRANCH  26  28
ENDBRANCH  25  26
ENDBRANCH  24  25
ENDBRANCH  23  24
ENDBRANCH   7  23
TORSDOF 15
ENDMDL
MODEL 9
REMARK VINA RESULT:      -8.6      1.362      1.932
REMARK  Name = *****
REMARK                            x       y       z     vdW  Elec       q    Type
REMARK                         _______ _______ _______ _____ _____    ______ ____
ROOT
ATOM      1  C   LIG    1       24.239 -29.407   7.175  0.00  0.00    +0.044 C 
ATOM      2  C   LIG    1       24.559 -30.626   6.280  0.00  0.00    +0.122 C 
ATOM      3  C   LIG    1       25.520 -30.093   5.209  0.00  0.00    +0.036 C 
ATOM      4  C   LIG    1       25.150 -28.612   5.024  0.00  0.00    -0.001 C 
ATOM      5  C   LIG    1       26.285 -27.620   5.295  0.00  0.00    +0.034 C 
ATOM      6  C   LIG    1       25.623 -26.503   6.058  0.00  0.00    -0.073 C 
ATOM      7  C   LIG    1       26.207 -25.318   6.297  0.00  0.00    -0.027 C 
ATOM      8  C   LIG    1       24.223 -26.860   6.461  0.00  0.00    +0.035 C 
ATOM      9  C   LIG    1       24.073 -28.319   6.080  0.00  0.00    +0.006 C 
ENDROOT
BRANCH   1  11
ATOM     10  C   LIG    1       25.356 -29.793   9.450  0.00  0.00    +0.000 C 
ATOM     11  C   LIG    1       25.326 -29.207   8.233  0.00  0.00    -0.022 C 
BRANCH  10  12
ATOM     12  C   LIG    1       26.486 -29.614  10.458  0.00  0.00    +0.141 C 
BRANCH  12  13
ATOM     13  C   LIG    1       26.071 -29.187  11.896  0.00  0.00    +0.030 C 
ATOM     14  C   LIG    1       26.273 -27.697  12.194  0.00  0.00    +0.011 C 
BRANCH  13  15
ATOM     15  C   LIG    1       24.619 -29.609  12.241  0.00  0.00    +0.095 C 
BRANCH  15  18
ATOM     16  C   LIG    1       22.263 -26.433  13.457  0.00  0.00    +0.106 C 
ATOM     17  C   LIG    1       23.093 -27.556  13.048  0.00  0.00    -0.106 C 
ATOM     18  C   LIG    1       23.778 -28.495  12.685  0.00  0.00    -0.102 C 
ENDBRANCH  15  18
ENDBRANCH  13  15
ENDBRANCH  12  13
BRANCH  12  19
ATOM     19  O   LIG    1       27.360 -28.598   9.956  0.00  0.00    -0.388 OA
ATOM     20  H   LIG    1       27.630 -28.842   9.055  0.00  0.00    +0.210 HD
ENDBRANCH  12  19
ENDBRANCH  10  12
ENDBRANCH   1  11
BRANCH   2  21
ATOM     21  O   LIG    1       23.371 -31.135   5.667  0.00  0.00    -0.391 OA
ATOM     22  H   LIG    1       22.890 -30.404   5.244  0.00  0.00    +0.210 HD
ENDBRANCH   2  21
BRANCH   7  23
ATOM     23  C   LIG    1       25.559 -24.164   7.012  0.00  0.00    +0.028 C 
BRANCH  23  24
ATOM     24  C   LIG    1       24.334 -23.622   6.273  0.00  0.00    +0.015 C 
BRANCH  24  25
ATOM     25  C   LIG    1       24.665 -22.399   5.423  0.00  0.00    +0.121 C 
BRANCH  25  26
ATOM     26  C   LIG    1       24.605 -21.128   6.225  0.00  0.00    +0.307 C 
ATOM     27  O   LIG    1       23.749 -20.850   7.054  0.00  0.00    -0.251 OA
BRANCH  26  28
ATOM     28  O   LIG    1       25.691 -20.358   5.926  0.00  0.00    -0.457 OA
BRANCH  28  29
ATOM     29  C   LIG    1       26.895 -20.805   6.542  0.00  0.00    +0.311 C 
BRANCH  29  30
ATOM     30  C   LIG    1       28.090 -19.931   6.158  0.00  0.00    +0.200 C 
ATOM     31  O   LIG    1       28.117 -19.269   5.120  0.00  0.00    -0.288 OA
BRANCH  30  32
ATOM     32  C   LIG    1       29.283 -19.941   7.045  0.00  0.00    +0.021 A 
ATOM     33  C   LIG    1       30.187 -18.873   7.059  0.00  0.00    +0.011 A 
ATOM     34  C   LIG    1       31.304 -18.910   7.892  0.00  0.00    +0.001 A 
ATOM     35  C   LIG    1       31.532 -20.017   8.704  0.00  0.00    +0.000 A 
ATOM     36  C   LIG    1       30.643 -21.091   8.688  0.00  0.00    +0.001 A 
ATOM     37  C   LIG    1       29.519 -21.057   7.858  0.00  0.00    +0.011 A 
ENDBRANCH  30  32
ENDBRANCH  29  30
ENDBRANCH  28  29
ENDBRANCH  26  28
ENDBRANCH  25  26
ENDBRANCH  24  25
ENDBRANCH  23  24
ENDBRANCH   7  23
TORSDOF 15
ENDMDL
