MODEL 1
REMARK VINA RESULT:      -8.0      0.000      0.000
REMARK  Name = *****
REMARK                            x       y       z     vdW  Elec       q    Type
REMARK                         _______ _______ _______ _____ _____    ______ ____
ROOT
ATOM      1  C   LIG    1       27.468 -20.253   6.206  0.00  0.00    +0.100 C 
ATOM      2  C   LIG    1       26.436 -21.223   6.295  0.00  0.00    +0.073 C 
ATOM      3  C   LIG    1       26.678 -22.354   7.100  0.00  0.00    +0.050 C 
ATOM      4  C   LIG    1       25.719 -23.483   7.101  0.00  0.00    +0.203 C 
ATOM      5  C   LIG    1       24.485 -23.365   6.302  0.00  0.00    +0.122 C 
ATOM      6  C   LIG    1       24.296 -22.205   5.655  0.00  0.00    +0.105 C 
ATOM      7  O   LIG    1       25.943 -24.508   7.741  0.00  0.00    -0.286 OA
ATOM      8  C   LIG    1       27.808 -22.442   7.910  0.00  0.00    +0.054 C 
ATOM      9  C   LIG    1       28.720 -21.397   7.925  0.00  0.00    +0.146 C 
ATOM     10  F   LIG    1       29.726 -21.477   8.810  0.00  0.00    -0.203 F 
ATOM     11  N   LIG    1       25.161 -21.120   5.648  0.00  0.00    -0.342 NA
ATOM     12  C   LIG    1       28.596 -20.284   7.074  0.00  0.00    +0.085 C 
ENDROOT
BRANCH  12  13
ATOM     13  N   LIG    1       29.475 -19.170   7.103  0.00  0.00    -0.323 NA
ATOM     14  C   LIG    1       29.207 -18.317   8.288  0.00  0.00    +0.138 C 
ATOM     15  C   LIG    1       30.304 -18.697   9.286  0.00  0.00    +0.154 C 
ATOM     16  C   LIG    1       31.544 -18.841   8.378  0.00  0.00    +0.102 C 
ATOM     17  N   LIG    1       32.279 -17.573   8.138  0.00  0.00    -0.307 NA
ATOM     18  H   LIG    1       31.724 -16.979   7.519  0.00  0.00    +0.122 HD
ATOM     19  C   LIG    1       32.467 -16.877   9.421  0.00  0.00    +0.109 C 
ATOM     20  C   LIG    1       31.124 -16.601  10.101  0.00  0.00    +0.175 C 
ATOM     21  O   LIG    1       30.437 -17.816  10.401  0.00  0.00    -0.372 OA
ATOM     22  C   LIG    1       30.943 -19.420   7.062  0.00  0.00    +0.126 C 
ENDBRANCH  12  13
BRANCH  11  23
ATOM     23  C   LIG    1       24.549 -19.797   5.347  0.00  0.00    +0.087 C 
ATOM     24  C   LIG    1       24.022 -19.435   3.974  0.00  0.00    +0.027 C 
ATOM     25  C   LIG    1       23.063 -19.652   5.096  0.00  0.00    +0.027 C 
ENDBRANCH  11  23
BRANCH   1  27
ATOM     26  N   LIG    1       27.468 -18.465   4.317  0.00  0.00    -0.191 NA
ATOM     27  C   LIG    1       27.464 -19.277   5.144  0.00  0.00    +0.103 C 
ENDBRANCH   1  27
BRANCH   5  28
ATOM     28  C   LIG    1       23.454 -24.421   6.233  0.00  0.00    +0.342 C 
ATOM     29  O   LIG    1       23.684 -25.560   5.855  0.00  0.00    -0.245 OA
BRANCH  28  30
ATOM     30  O   LIG    1       22.220 -24.027   6.620  0.00  0.00    -0.477 OA
ATOM     31  H   LIG    1       21.661 -24.750   6.999  0.00  0.00    +0.295 HD
ENDBRANCH  28  30
ENDBRANCH   5  28
TORSDOF 5
ENDMDL
MODEL 2
REMARK VINA RESULT:      -6.0      9.405     11.880
REMARK  Name = *****
REMARK                            x       y       z     vdW  Elec       q    Type
REMARK                         _______ _______ _______ _____ _____    ______ ____
ROOT
ATOM      1  C   LIG    1       24.471 -29.452  11.852  0.00  0.00    +0.100 C 
ATOM      2  C   LIG    1       24.688 -28.188  12.457  0.00  0.00    +0.073 C 
ATOM      3  C   LIG    1       25.946 -27.583  12.262  0.00  0.00    +0.050 C 
ATOM      4  C   LIG    1       26.301 -26.351  13.004  0.00  0.00    +0.203 C 
ATOM      5  C   LIG    1       25.290 -25.742  13.888  0.00  0.00    +0.122 C 
ATOM      6  C   LIG    1       24.087 -26.333  13.924  0.00  0.00    +0.105 C 
ATOM      7  O   LIG    1       27.417 -25.846  12.901  0.00  0.00    -0.286 OA
ATOM      8  C   LIG    1       26.880 -28.117  11.375  0.00  0.00    +0.054 C 
ATOM      9  C   LIG    1       26.570 -29.271  10.670  0.00  0.00    +0.146 C 
ATOM     10  F   LIG    1       27.451 -29.674   9.743  0.00  0.00    -0.203 F 
ATOM     11  N   LIG    1       23.713 -27.474  13.227  0.00  0.00    -0.342 NA
ATOM     12  C   LIG    1       25.376 -29.982  10.889  0.00  0.00    +0.085 C 
ENDROOT
BRANCH  12  13
ATOM     13  N   LIG    1       24.999 -31.131  10.146  0.00  0.00    -0.323 NA
ATOM     14  C   LIG    1       24.117 -30.759   9.010  0.00  0.00    +0.138 C 
ATOM     15  C   LIG    1       25.043 -30.770   7.791  0.00  0.00    +0.154 C 
ATOM     16  C   LIG    1       25.920 -32.014   8.051  0.00  0.00    +0.102 C 
ATOM     17  N   LIG    1       25.342 -33.288   7.553  0.00  0.00    -0.307 NA
ATOM     18  H   LIG    1       24.554 -33.549   8.149  0.00  0.00    +0.122 HD
ATOM     19  C   LIG    1       24.854 -33.089   6.180  0.00  0.00    +0.109 C 
ATOM     20  C   LIG    1       23.816 -31.966   6.120  0.00  0.00    +0.175 C 
ATOM     21  O   LIG    1       24.378 -30.720   6.529  0.00  0.00    -0.372 OA
ATOM     22  C   LIG    1       26.071 -32.012   9.601  0.00  0.00    +0.126 C 
ENDBRANCH  12  13
BRANCH  11  23
ATOM     23  C   LIG    1       22.255 -27.641  12.979  0.00  0.00    +0.087 C 
ATOM     24  C   LIG    1       21.247 -27.784  14.101  0.00  0.00    +0.027 C 
ATOM     25  C   LIG    1       21.268 -26.534  13.286  0.00  0.00    +0.027 C 
ENDBRANCH  11  23
BRANCH   1  27
ATOM     26  N   LIG    1       22.540 -30.992  12.668  0.00  0.00    -0.191 NA
ATOM     27  C   LIG    1       23.387 -30.296  12.290  0.00  0.00    +0.103 C 
ENDBRANCH   1  27
BRANCH   5  28
ATOM     28  C   LIG    1       25.527 -24.510  14.669  0.00  0.00    +0.342 C 
ATOM     29  O   LIG    1       24.740 -24.081  15.499  0.00  0.00    -0.245 OA
BRANCH  28  30
ATOM     30  O   LIG    1       26.690 -23.881  14.388  0.00  0.00    -0.477 OA
ATOM     31  H   LIG    1       27.429 -24.485  14.126  0.00  0.00    +0.295 HD
ENDBRANCH  28  30
ENDBRANCH   5  28
TORSDOF 5
ENDMDL
MODEL 3
REMARK VINA RESULT:      -5.4      9.561     13.289
REMARK  Name = *****
REMARK                            x       y       z     vdW  Elec       q    Type
REMARK                         _______ _______ _______ _____ _____    ______ ____
ROOT
ATOM      1  C   LIG    1       24.211 -29.203  11.867  0.00  0.00    +0.100 C 
ATOM      2  C   LIG    1       24.943 -28.205  12.559  0.00  0.00    +0.073 C 
ATOM      3  C   LIG    1       24.204 -27.210  13.231  0.00  0.00    +0.050 C 
ATOM      4  C   LIG    1       24.899 -26.045  13.826  0.00  0.00    +0.203 C 
ATOM      5  C   LIG    1       26.371 -25.989  13.759  0.00  0.00    +0.122 C 
ATOM      6  C   LIG    1       26.988 -27.036  13.193  0.00  0.00    +0.105 C 
ATOM      7  O   LIG    1       24.270 -25.131  14.356  0.00  0.00    -0.286 OA
ATOM      8  C   LIG    1       22.819 -27.293  13.357  0.00  0.00    +0.054 C 
ATOM      9  C   LIG    1       22.147 -28.374  12.807  0.00  0.00    +0.146 C 
ATOM     10  F   LIG    1       20.832 -28.469  13.060  0.00  0.00    -0.203 F 
ATOM     11  N   LIG    1       26.372 -28.152  12.645  0.00  0.00    -0.342 NA
ATOM     12  C   LIG    1       22.805 -29.351  12.038  0.00  0.00    +0.085 C 
ENDROOT
BRANCH  12  13
ATOM     13  N   LIG    1       22.162 -30.501  11.511  0.00  0.00    -0.323 NA
ATOM     14  C   LIG    1       22.118 -31.591  12.519  0.00  0.00    +0.138 C 
ATOM     15  C   LIG    1       20.692 -31.541  13.070  0.00  0.00    +0.154 C 
ATOM     16  C   LIG    1       19.853 -31.276  11.801  0.00  0.00    +0.102 C 
ATOM     17  N   LIG    1       19.463 -32.501  11.057  0.00  0.00    -0.307 NA
ATOM     18  H   LIG    1       20.291 -32.887  10.598  0.00  0.00    +0.122 HD
ATOM     19  C   LIG    1       18.941 -33.494  12.008  0.00  0.00    +0.109 C 
ATOM     20  C   LIG    1       19.976 -33.825  13.086  0.00  0.00    +0.175 C 
ATOM     21  O   LIG    1       20.309 -32.670  13.855  0.00  0.00    -0.372 OA
ATOM     22  C   LIG    1       20.786 -30.358  10.957  0.00  0.00    +0.126 C 
ENDBRANCH  12  13
BRANCH  11  23
ATOM     23  C   LIG    1       27.199 -29.388  12.575  0.00  0.00    +0.087 C 
ATOM     24  C   LIG    1       28.425 -29.501  11.692  0.00  0.00    +0.027 C 
ATOM     25  C   LIG    1       28.588 -29.445  13.175  0.00  0.00    +0.027 C 
ENDBRANCH  11  23
BRANCH   1  27
ATOM     26  N   LIG    1       25.343 -30.671  10.041  0.00  0.00    -0.191 NA
ATOM     27  C   LIG    1       24.855 -30.021  10.868  0.00  0.00    +0.103 C 
ENDBRANCH   1  27
BRANCH   5  28
ATOM     28  C   LIG    1       27.171 -24.883  14.325  0.00  0.00    +0.342 C 
ATOM     29  O   LIG    1       28.305 -25.028  14.759  0.00  0.00    -0.245 OA
BRANCH  28  30
ATOM     30  O   LIG    1       26.547 -23.684  14.334  0.00  0.00    -0.477 OA
ATOM     31  H   LIG    1       25.562 -23.737  14.412  0.00  0.00    +0.295 HD
ENDBRANCH  28  30
ENDBRANCH   5  28
TORSDOF 5
ENDMDL
MODEL 4
REMARK VINA RESULT:      -5.4     11.013     13.213
REMARK  Name = *****
REMARK                            x       y       z     vdW  Elec       q    Type
REMARK                         _______ _______ _______ _____ _____    ______ ____
ROOT
ATOM      1  C   LIG    1       21.324 -30.468  12.993  0.00  0.00    +0.100 C 
ATOM      2  C   LIG    1       20.236 -29.635  13.361  0.00  0.00    +0.073 C 
ATOM      3  C   LIG    1       20.519 -28.279  13.622  0.00  0.00    +0.050 C 
ATOM      4  C   LIG    1       19.467 -27.395  14.177  0.00  0.00    +0.203 C 
ATOM      5  C   LIG    1       18.115 -27.946  14.381  0.00  0.00    +0.122 C 
ATOM      6  C   LIG    1       17.920 -29.218  14.003  0.00  0.00    +0.105 C 
ATOM      7  O   LIG    1       19.710 -26.228  14.476  0.00  0.00    -0.286 OA
ATOM      8  C   LIG    1       21.777 -27.735  13.366  0.00  0.00    +0.054 C 
ATOM      9  C   LIG    1       22.777 -28.544  12.847  0.00  0.00    +0.146 C 
ATOM     10  F   LIG    1       23.929 -27.947  12.506  0.00  0.00    -0.203 F 
ATOM     11  N   LIG    1       18.874 -30.067  13.461  0.00  0.00    -0.342 NA
ATOM     12  C   LIG    1       22.597 -29.927  12.657  0.00  0.00    +0.085 C 
ENDROOT
BRANCH  12  13
ATOM     13  N   LIG    1       23.575 -30.774  12.074  0.00  0.00    -0.323 NA
ATOM     14  C   LIG    1       23.491 -30.736  10.592  0.00  0.00    +0.138 C 
ATOM     15  C   LIG    1       24.629 -29.803  10.170  0.00  0.00    +0.154 C 
ATOM     16  C   LIG    1       25.768 -30.214  11.128  0.00  0.00    +0.102 C 
ATOM     17  N   LIG    1       26.595 -31.349  10.646  0.00  0.00    -0.307 NA
ATOM     18  H   LIG    1       26.046 -32.209  10.708  0.00  0.00    +0.122 HD
ATOM     19  C   LIG    1       26.956 -31.117   9.239  0.00  0.00    +0.109 C 
ATOM     20  C   LIG    1       25.707 -30.952   8.368  0.00  0.00    +0.175 C 
ATOM     21  O   LIG    1       24.938 -29.821   8.777  0.00  0.00    -0.372 OA
ATOM     22  C   LIG    1       25.005 -30.567  12.439  0.00  0.00    +0.126 C 
ENDBRANCH  12  13
BRANCH  11  23
ATOM     23  C   LIG    1       18.356 -31.192  12.635  0.00  0.00    +0.087 C 
ATOM     24  C   LIG    1       17.516 -32.312  13.216  0.00  0.00    +0.027 C 
ATOM     25  C   LIG    1       16.884 -31.316  12.301  0.00  0.00    +0.027 C 
ENDBRANCH  11  23
BRANCH   1  27
ATOM     26  N   LIG    1       21.137 -33.058  13.157  0.00  0.00    -0.191 NA
ATOM     27  C   LIG    1       21.204 -31.903  13.070  0.00  0.00    +0.103 C 
ENDBRANCH   1  27
BRANCH   5  28
ATOM     28  C   LIG    1       16.987 -27.158  14.918  0.00  0.00    +0.342 C 
ATOM     29  O   LIG    1       16.035 -27.659  15.500  0.00  0.00    -0.245 OA
BRANCH  28  30
ATOM     30  O   LIG    1       17.082 -25.826  14.712  0.00  0.00    -0.477 OA
ATOM     31  H   LIG    1       17.060 -25.557  13.760  0.00  0.00    +0.295 HD
ENDBRANCH  28  30
ENDBRANCH   5  28
TORSDOF 5
ENDMDL
MODEL 5
REMARK VINA RESULT:      -5.3      9.131     10.377
REMARK  Name = *****
REMARK                            x       y       z     vdW  Elec       q    Type
REMARK                         _______ _______ _______ _____ _____    ______ ____
ROOT
ATOM      1  C   LIG    1       25.137 -29.308  11.790  0.00  0.00    +0.100 C 
ATOM      2  C   LIG    1       23.852 -29.717  11.348  0.00  0.00    +0.073 C 
ATOM      3  C   LIG    1       22.750 -29.372  12.156  0.00  0.00    +0.050 C 
ATOM      4  C   LIG    1       21.406 -29.913  11.847  0.00  0.00    +0.203 C 
ATOM      5  C   LIG    1       21.240 -30.754  10.648  0.00  0.00    +0.122 C 
ATOM      6  C   LIG    1       22.328 -30.937   9.885  0.00  0.00    +0.105 C 
ATOM      7  O   LIG    1       20.444 -29.682  12.577  0.00  0.00    -0.286 OA
ATOM      8  C   LIG    1       22.888 -28.522  13.252  0.00  0.00    +0.054 C 
ATOM      9  C   LIG    1       24.137 -28.004  13.560  0.00  0.00    +0.146 C 
ATOM     10  F   LIG    1       24.195 -27.097  14.548  0.00  0.00    -0.203 F 
ATOM     11  N   LIG    1       23.595 -30.429  10.131  0.00  0.00    -0.342 NA
ATOM     12  C   LIG    1       25.297 -28.383  12.860  0.00  0.00    +0.085 C 
ENDROOT
BRANCH  12  13
ATOM     13  N   LIG    1       26.581 -27.830  13.108  0.00  0.00    -0.323 NA
ATOM     14  C   LIG    1       26.545 -26.349  13.016  0.00  0.00    +0.138 C 
ATOM     15  C   LIG    1       26.504 -25.878  14.472  0.00  0.00    +0.154 C 
ATOM     16  C   LIG    1       27.491 -26.844  15.162  0.00  0.00    +0.102 C 
ATOM     17  N   LIG    1       28.910 -26.406  15.118  0.00  0.00    -0.307 NA
ATOM     18  H   LIG    1       29.259 -26.510  14.163  0.00  0.00    +0.122 HD
ATOM     19  C   LIG    1       28.986 -24.988  15.500  0.00  0.00    +0.109 C 
ATOM     20  C   LIG    1       28.125 -24.121  14.577  0.00  0.00    +0.175 C 
ATOM     21  O   LIG    1       26.748 -24.485  14.662  0.00  0.00    -0.372 OA
ATOM     22  C   LIG    1       27.271 -28.175  14.383  0.00  0.00    +0.126 C 
ENDBRANCH  12  13
BRANCH  11  23
ATOM     23  C   LIG    1       24.485 -30.284   8.946  0.00  0.00    +0.087 C 
ATOM     24  C   LIG    1       25.094 -31.473   8.233  0.00  0.00    +0.027 C 
ATOM     25  C   LIG    1       24.024 -30.680   7.559  0.00  0.00    +0.027 C 
ENDBRANCH  11  23
BRANCH   1  27
ATOM     26  N   LIG    1       27.299 -30.373  10.810  0.00  0.00    -0.191 NA
ATOM     27  C   LIG    1       26.325 -29.918  11.245  0.00  0.00    +0.103 C 
ENDBRANCH   1  27
BRANCH   5  28
ATOM     28  C   LIG    1       19.948 -31.340  10.235  0.00  0.00    +0.342 C 
ATOM     29  O   LIG    1       19.777 -32.539  10.071  0.00  0.00    -0.245 OA
BRANCH  28  30
ATOM     30  O   LIG    1       18.957 -30.441  10.045  0.00  0.00    -0.477 OA
ATOM     31  H   LIG    1       18.399 -30.610   9.246  0.00  0.00    +0.295 HD
ENDBRANCH  28  30
ENDBRANCH   5  28
TORSDOF 5
ENDMDL
MODEL 6
REMARK VINA RESULT:      -5.3     10.766     13.129
REMARK  Name = *****
REMARK                            x       y       z     vdW  Elec       q    Type
REMARK                         _______ _______ _______ _____ _____    ______ ____
ROOT
ATOM      1  C   LIG    1       22.937 -28.976  12.230  0.00  0.00    +0.100 C 
ATOM      2  C   LIG    1       24.318 -29.195  12.474  0.00  0.00    +0.073 C 
ATOM      3  C   LIG    1       25.025 -28.177  13.145  0.00  0.00    +0.050 C 
ATOM      4  C   LIG    1       26.498 -28.262  13.279  0.00  0.00    +0.203 C 
ATOM      5  C   LIG    1       27.189 -29.457  12.760  0.00  0.00    +0.122 C 
ATOM      6  C   LIG    1       26.415 -30.418  12.234  0.00  0.00    +0.105 C 
ATOM      7  O   LIG    1       27.144 -27.354  13.799  0.00  0.00    -0.286 OA
ATOM      8  C   LIG    1       24.370 -27.078  13.698  0.00  0.00    +0.054 C 
ATOM      9  C   LIG    1       22.992 -26.977  13.585  0.00  0.00    +0.146 C 
ATOM     10  F   LIG    1       22.398 -25.967  14.237  0.00  0.00    -0.203 F 
ATOM     11  N   LIG    1       25.033 -30.382  12.112  0.00  0.00    -0.342 NA
ATOM     12  C   LIG    1       22.233 -27.902  12.843  0.00  0.00    +0.085 C 
ENDROOT
BRANCH  12  13
ATOM     13  N   LIG    1       20.817 -27.865  12.755  0.00  0.00    -0.323 NA
ATOM     14  C   LIG    1       20.215 -29.047  13.421  0.00  0.00    +0.138 C 
ATOM     15  C   LIG    1       19.742 -28.520  14.777  0.00  0.00    +0.154 C 
ATOM     16  C   LIG    1       19.162 -27.136  14.412  0.00  0.00    +0.102 C 
ATOM     17  N   LIG    1       17.740 -27.159  13.988  0.00  0.00    -0.307 NA
ATOM     18  H   LIG    1       17.677 -27.583  13.060  0.00  0.00    +0.122 HD
ATOM     19  C   LIG    1       16.969 -27.977  14.937  0.00  0.00    +0.109 C 
ATOM     20  C   LIG    1       17.529 -29.399  15.022  0.00  0.00    +0.175 C 
ATOM     21  O   LIG    1       18.875 -29.397  15.497  0.00  0.00    -0.372 OA
ATOM     22  C   LIG    1       20.102 -26.661  13.265  0.00  0.00    +0.126 C 
ENDBRANCH  12  13
BRANCH  11  23
ATOM     23  C   LIG    1       24.349 -31.701  12.021  0.00  0.00    +0.087 C 
ATOM     24  C   LIG    1       24.494 -32.615  10.821  0.00  0.00    +0.027 C 
ATOM     25  C   LIG    1       25.121 -33.001  12.119  0.00  0.00    +0.027 C 
ENDBRANCH  11  23
BRANCH   1  27
ATOM     26  N   LIG    1       21.697 -30.393  10.435  0.00  0.00    -0.191 NA
ATOM     27  C   LIG    1       22.234 -29.767  11.250  0.00  0.00    +0.103 C 
ENDBRANCH   1  27
BRANCH   5  28
ATOM     28  C   LIG    1       28.650 -29.656  12.845  0.00  0.00    +0.342 C 
ATOM     29  O   LIG    1       29.209 -30.109  13.833  0.00  0.00    -0.245 OA
BRANCH  28  30
ATOM     30  O   LIG    1       29.333 -29.289  11.738  0.00  0.00    -0.477 OA
ATOM     31  H   LIG    1       30.194 -29.761  11.613  0.00  0.00    +0.295 HD
ENDBRANCH  28  30
ENDBRANCH   5  28
TORSDOF 5
ENDMDL
MODEL 7
REMARK VINA RESULT:      -5.1     10.205     12.750
REMARK  Name = *****
REMARK                            x       y       z     vdW  Elec       q    Type
REMARK                         _______ _______ _______ _____ _____    ______ ____
ROOT
ATOM      1  C   LIG    1       23.746 -30.374  12.189  0.00  0.00    +0.100 C 
ATOM      2  C   LIG    1       24.393 -30.561  10.940  0.00  0.00    +0.073 C 
ATOM      3  C   LIG    1       23.581 -30.868   9.830  0.00  0.00    +0.050 C 
ATOM      4  C   LIG    1       24.202 -31.245   8.539  0.00  0.00    +0.203 C 
ATOM      5  C   LIG    1       25.672 -31.222   8.426  0.00  0.00    +0.122 C 
ATOM      6  C   LIG    1       26.352 -30.813   9.508  0.00  0.00    +0.105 C 
ATOM      7  O   LIG    1       23.515 -31.584   7.577  0.00  0.00    -0.286 OA
ATOM      8  C   LIG    1       22.191 -30.825   9.911  0.00  0.00    +0.054 C 
ATOM      9  C   LIG    1       21.588 -30.475  11.110  0.00  0.00    +0.146 C 
ATOM     10  F   LIG    1       20.254 -30.330  11.103  0.00  0.00    -0.203 F 
ATOM     11  N   LIG    1       25.804 -30.433  10.724  0.00  0.00    -0.342 NA
ATOM     12  C   LIG    1       22.331 -30.254  12.284  0.00  0.00    +0.085 C 
ENDROOT
BRANCH  12  13
ATOM     13  N   LIG    1       21.755 -29.838  13.513  0.00  0.00    -0.323 NA
ATOM     14  C   LIG    1       21.700 -28.356  13.595  0.00  0.00    +0.138 C 
ATOM     15  C   LIG    1       20.248 -28.010  13.259  0.00  0.00    +0.154 C 
ATOM     16  C   LIG    1       19.462 -29.113  14.001  0.00  0.00    +0.102 C 
ATOM     17  N   LIG    1       19.152 -28.798  15.419  0.00  0.00    -0.307 NA
ATOM     18  H   LIG    1       20.013 -28.850  15.966  0.00  0.00    +0.122 HD
ATOM     19  C   LIG    1       18.619 -27.429  15.500  0.00  0.00    +0.109 C 
ATOM     20  C   LIG    1       19.613 -26.415  14.927  0.00  0.00    +0.175 C 
ATOM     21  O   LIG    1       19.867 -26.664  13.545  0.00  0.00    -0.372 OA
ATOM     22  C   LIG    1       20.402 -30.349  13.875  0.00  0.00    +0.126 C 
ENDBRANCH  12  13
BRANCH  11  23
ATOM     23  C   LIG    1       26.638 -29.531  11.565  0.00  0.00    +0.087 C 
ATOM     24  C   LIG    1       28.124 -29.347  11.339  0.00  0.00    +0.027 C 
ATOM     25  C   LIG    1       27.189 -28.229  11.021  0.00  0.00    +0.027 C 
ENDBRANCH  11  23
BRANCH   1  27
ATOM     26  N   LIG    1       25.110 -30.508  14.400  0.00  0.00    -0.191 NA
ATOM     27  C   LIG    1       24.500 -30.427  13.418  0.00  0.00    +0.103 C 
ENDBRANCH   1  27
BRANCH   5  28
ATOM     28  C   LIG    1       26.400 -31.568   7.188  0.00  0.00    +0.342 C 
ATOM     29  O   LIG    1       27.264 -32.432   7.138  0.00  0.00    -0.245 OA
BRANCH  28  30
ATOM     30  O   LIG    1       26.041 -30.847   6.104  0.00  0.00    -0.477 OA
ATOM     31  H   LIG    1       26.039 -31.357   5.256  0.00  0.00    +0.295 HD
ENDBRANCH  28  30
ENDBRANCH   5  28
TORSDOF 5
ENDMDL
