MODEL 1
REMARK VINA RESULT:      -4.2      0.000      0.000
REMARK  Name = *****
REMARK                            x       y       z     vdW  Elec       q    Type
REMARK                         _______ _______ _______ _____ _____    ______ ____
ROOT
ATOM      1  C   LIG    1       25.395 -20.519   5.434  0.00  0.00    +0.027 A 
ATOM      2  C   LIG    1       24.003 -20.511   5.410  0.00  0.00    +0.042 A 
ATOM      3  C   LIG    1       23.313 -20.699   6.597  0.00  0.00    +0.112 A 
ATOM      4  N   LIG    1       23.909 -20.859   7.796  0.00  0.00    -0.263 NA
ATOM      5  C   LIG    1       25.257 -20.799   7.806  0.00  0.00    +0.112 A 
ATOM      6  C   LIG    1       26.030 -20.611   6.670  0.00  0.00    +0.042 A 
ENDROOT
BRANCH   1   7
ATOM      7  N   LIG    1       26.127 -20.208   4.282  0.00  0.00    -0.358 N 
ATOM      8  H   LIG    1       25.569 -19.800   3.538  0.00  0.00    +0.142 HD
ATOM      9  H   LIG    1       26.712 -20.967   3.947  0.00  0.00    +0.142 HD
ENDBRANCH   1   7
TORSDOF 1
ENDMDL
MODEL 2
REMARK VINA RESULT:      -4.2      0.101      1.772
REMARK  Name = *****
REMARK                            x       y       z     vdW  Elec       q    Type
REMARK                         _______ _______ _______ _____ _____    ______ ____
ROOT
ATOM      1  C   LIG    1       25.388 -20.379   5.441  0.00  0.00    +0.027 A 
ATOM      2  C   LIG    1       25.980 -20.625   6.677  0.00  0.00    +0.042 A 
ATOM      3  C   LIG    1       25.166 -20.840   7.777  0.00  0.00    +0.112 A 
ATOM      4  N   LIG    1       23.818 -20.860   7.723  0.00  0.00    -0.263 NA
ATOM      5  C   LIG    1       23.266 -20.684   6.503  0.00  0.00    +0.112 A 
ATOM      6  C   LIG    1       24.001 -20.465   5.348  0.00  0.00    +0.042 A 
ENDROOT
BRANCH   1   7
ATOM      7  N   LIG    1       26.172 -20.282   4.285  0.00  0.00    -0.358 N 
ATOM      8  H   LIG    1       26.089 -19.392   3.805  0.00  0.00    +0.142 HD
ATOM      9  H   LIG    1       26.069 -21.069   3.650  0.00  0.00    +0.142 HD
ENDBRANCH   1   7
TORSDOF 1
ENDMDL
MODEL 3
REMARK VINA RESULT:      -4.2      2.064      2.989
REMARK  Name = *****
REMARK                            x       y       z     vdW  Elec       q    Type
REMARK                         _______ _______ _______ _____ _____    ______ ____
ROOT
ATOM      1  C   LIG    1       26.711 -20.240   5.814  0.00  0.00    +0.027 A 
ATOM      2  C   LIG    1       28.054 -20.041   6.120  0.00  0.00    +0.042 A 
ATOM      3  C   LIG    1       28.448 -20.065   7.448  0.00  0.00    +0.112 A 
ATOM      4  N   LIG    1       27.610 -20.305   8.477  0.00  0.00    -0.263 NA
ATOM      5  C   LIG    1       26.324 -20.560   8.154  0.00  0.00    +0.112 A 
ATOM      6  C   LIG    1       25.841 -20.561   6.854  0.00  0.00    +0.042 A 
ENDROOT
BRANCH   1   7
ATOM      7  N   LIG    1       26.294 -20.349   4.482  0.00  0.00    -0.358 N 
ATOM      8  H   LIG    1       27.030 -20.173   3.805  0.00  0.00    +0.142 HD
ATOM      9  H   LIG    1       25.448 -19.827   4.270  0.00  0.00    +0.142 HD
ENDBRANCH   1   7
TORSDOF 1
ENDMDL
MODEL 4
REMARK VINA RESULT:      -4.2      4.107      5.083
REMARK  Name = *****
REMARK                            x       y       z     vdW  Elec       q    Type
REMARK                         _______ _______ _______ _____ _____    ______ ____
ROOT
ATOM      1  C   LIG    1       29.277 -19.075   6.107  0.00  0.00    +0.027 A 
ATOM      2  C   LIG    1       30.439 -19.107   6.872  0.00  0.00    +0.042 A 
ATOM      3  C   LIG    1       30.556 -20.062   7.870  0.00  0.00    +0.112 A 
ATOM      4  N   LIG    1       29.619 -20.996   8.130  0.00  0.00    -0.263 NA
ATOM      5  C   LIG    1       28.529 -20.988   7.334  0.00  0.00    +0.112 A 
ATOM      6  C   LIG    1       28.328 -20.075   6.311  0.00  0.00    +0.042 A 
ENDROOT
BRANCH   1   7
ATOM      7  N   LIG    1       29.172 -18.211   5.010  0.00  0.00    -0.358 N 
ATOM      8  H   LIG    1       29.198 -18.683   4.111  0.00  0.00    +0.142 HD
ATOM      9  H   LIG    1       29.810 -17.421   5.044  0.00  0.00    +0.142 HD
ENDBRANCH   1   7
TORSDOF 1
ENDMDL
MODEL 5
REMARK VINA RESULT:      -4.2      2.871      3.292
REMARK  Name = *****
REMARK                            x       y       z     vdW  Elec       q    Type
REMARK                         _______ _______ _______ _____ _____    ______ ____
ROOT
ATOM      1  C   LIG    1       24.068 -24.109   6.590  0.00  0.00    +0.027 A 
ATOM      2  C   LIG    1       23.044 -23.180   6.756  0.00  0.00    +0.042 A 
ATOM      3  C   LIG    1       23.317 -21.997   7.424  0.00  0.00    +0.112 A 
ATOM      4  N   LIG    1       24.533 -21.667   7.903  0.00  0.00    -0.263 NA
ATOM      5  C   LIG    1       25.526 -22.552   7.674  0.00  0.00    +0.112 A 
ATOM      6  C   LIG    1       25.348 -23.758   7.013  0.00  0.00    +0.042 A 
ENDROOT
BRANCH   1   7
ATOM      7  N   LIG    1       23.867 -25.256   5.813  0.00  0.00    -0.358 N 
ATOM      8  H   LIG    1       23.261 -25.946   6.247  0.00  0.00    +0.142 HD
ATOM      9  H   LIG    1       24.725 -25.671   5.461  0.00  0.00    +0.142 HD
ENDBRANCH   1   7
TORSDOF 1
ENDMDL
MODEL 6
REMARK VINA RESULT:      -4.2      1.820      2.358
REMARK  Name = *****
REMARK                            x       y       z     vdW  Elec       q    Type
REMARK                         _______ _______ _______ _____ _____    ______ ____
ROOT
ATOM      1  C   LIG    1       25.125 -20.148   4.668  0.00  0.00    +0.027 A 
ATOM      2  C   LIG    1       24.473 -19.285   3.793  0.00  0.00    +0.042 A 
ATOM      3  C   LIG    1       23.126 -19.023   3.992  0.00  0.00    +0.112 A 
ATOM      4  N   LIG    1       22.404 -19.532   5.011  0.00  0.00    -0.263 NA
ATOM      5  C   LIG    1       23.072 -20.315   5.884  0.00  0.00    +0.112 A 
ATOM      6  C   LIG    1       24.417 -20.628   5.768  0.00  0.00    +0.042 A 
ENDROOT
BRANCH   1   7
ATOM      7  N   LIG    1       26.510 -20.339   4.577  0.00  0.00    -0.358 N 
ATOM      8  H   LIG    1       27.056 -19.537   4.876  0.00  0.00    +0.142 HD
ATOM      9  H   LIG    1       26.819 -20.696   3.678  0.00  0.00    +0.142 HD
ENDBRANCH   1   7
TORSDOF 1
ENDMDL
MODEL 7
REMARK VINA RESULT:      -4.1      5.251      6.319
REMARK  Name = *****
REMARK                            x       y       z     vdW  Elec       q    Type
REMARK                         _______ _______ _______ _____ _____    ______ ____
ROOT
ATOM      1  C   LIG    1       29.627 -19.740   7.479  0.00  0.00    +0.027 A 
ATOM      2  C   LIG    1       30.455 -18.641   7.684  0.00  0.00    +0.042 A 
ATOM      3  C   LIG    1       31.554 -18.777   8.518  0.00  0.00    +0.112 A 
ATOM      4  N   LIG    1       31.897 -19.931   9.127  0.00  0.00    -0.263 NA
ATOM      5  C   LIG    1       31.117 -21.001   8.863  0.00  0.00    +0.112 A 
ATOM      6  C   LIG    1       30.002 -20.959   8.040  0.00  0.00    +0.042 A 
ENDROOT
BRANCH   1   7
ATOM      7  N   LIG    1       28.584 -19.680   6.547  0.00  0.00    -0.358 N 
ATOM      8  H   LIG    1       28.894 -19.555   5.589  0.00  0.00    +0.142 HD
ATOM      9  H   LIG    1       27.845 -19.028   6.797  0.00  0.00    +0.142 HD
ENDBRANCH   1   7
TORSDOF 1
ENDMDL
MODEL 8
REMARK VINA RESULT:      -4.1      5.231      6.292
REMARK  Name = *****
REMARK                            x       y       z     vdW  Elec       q    Type
REMARK                         _______ _______ _______ _____ _____    ______ ____
ROOT
ATOM      1  C   LIG    1       29.720 -19.832   7.290  0.00  0.00    +0.027 A 
ATOM      2  C   LIG    1       30.011 -20.985   8.013  0.00  0.00    +0.042 A 
ATOM      3  C   LIG    1       31.098 -20.979   8.872  0.00  0.00    +0.112 A 
ATOM      4  N   LIG    1       31.886 -19.904   9.081  0.00  0.00    -0.263 NA
ATOM      5  C   LIG    1       31.547 -18.777   8.419  0.00  0.00    +0.112 A 
ATOM      6  C   LIG    1       30.476 -18.689   7.544  0.00  0.00    +0.042 A 
ENDROOT
BRANCH   1   7
ATOM      7  N   LIG    1       28.560 -19.756   6.510  0.00  0.00    -0.358 N 
ATOM      8  H   LIG    1       28.610 -20.285   5.645  0.00  0.00    +0.142 HD
ATOM      9  H   LIG    1       28.225 -18.809   6.358  0.00  0.00    +0.142 HD
ENDBRANCH   1   7
TORSDOF 1
ENDMDL
MODEL 9
REMARK VINA RESULT:      -4.1      2.775      3.627
REMARK  Name = *****
REMARK                            x       y       z     vdW  Elec       q    Type
REMARK                         _______ _______ _______ _____ _____    ______ ____
ROOT
ATOM      1  C   LIG    1       24.104 -23.949   6.516  0.00  0.00    +0.027 A 
ATOM      2  C   LIG    1       25.354 -23.671   7.061  0.00  0.00    +0.042 A 
ATOM      3  C   LIG    1       25.537 -22.475   7.736  0.00  0.00    +0.112 A 
ATOM      4  N   LIG    1       24.562 -21.564   7.932  0.00  0.00    -0.263 NA
ATOM      5  C   LIG    1       23.341 -21.884   7.452  0.00  0.00    +0.112 A 
ATOM      6  C   LIG    1       23.064 -23.057   6.767  0.00  0.00    +0.042 A 
ENDROOT
BRANCH   1   7
ATOM      7  N   LIG    1       23.843 -25.197   5.937  0.00  0.00    -0.358 N 
ATOM      8  H   LIG    1       24.585 -25.877   6.073  0.00  0.00    +0.142 HD
ATOM      9  H   LIG    1       23.544 -25.149   4.968  0.00  0.00    +0.142 HD
ENDBRANCH   1   7
TORSDOF 1
ENDMDL
