MODEL 1
REMARK VINA RESULT:      -9.6      0.000      0.000
REMARK  Name = *****
REMARK                            x       y       z     vdW  Elec       q    Type
REMARK                         _______ _______ _______ _____ _____    ______ ____
ROOT
ATOM      1  C   LIG    1       23.973 -20.286   5.875  0.00  0.00    +0.158 C 
ENDROOT
BRANCH   1   2
ATOM      2  C   LIG    1       23.727 -21.398   6.863  0.00  0.00    +0.164 C 
ATOM      3  O   LIG    1       23.350 -21.172   8.000  0.00  0.00    -0.292 OA
BRANCH   2   5
ATOM      4  C   LIG    1       24.969 -23.516   6.838  0.00  0.00    +0.011 C 
ATOM      5  C   LIG    1       23.956 -22.775   6.359  0.00  0.00    +0.047 C 
BRANCH   4  10
ATOM      6  C   LIG    1       25.925 -27.203   6.921  0.00  0.00    +0.162 A 
ATOM      7  C   LIG    1       25.866 -27.499   5.556  0.00  0.00    +0.159 A 
ATOM      8  C   LIG    1       25.511 -26.513   4.634  0.00  0.00    +0.050 A 
ATOM      9  C   LIG    1       25.213 -25.219   5.067  0.00  0.00    +0.012 A 
ATOM     10  C   LIG    1       25.250 -24.897   6.429  0.00  0.00    -0.021 A 
ATOM     11  C   LIG    1       25.618 -25.899   7.342  0.00  0.00    +0.057 A 
BRANCH   6  13
ATOM     12  C   LIG    1       25.331 -29.060   8.289  0.00  0.00    +0.277 C 
ATOM     13  O   LIG    1       26.270 -28.048   7.946  0.00  0.00    -0.491 OA
ENDBRANCH   6  13
BRANCH   7  14
ATOM     14  O   LIG    1       26.160 -28.745   5.077  0.00  0.00    -0.503 OA
ATOM     15  H   LIG    1       26.625 -29.257   5.756  0.00  0.00    +0.292 HD
ENDBRANCH   7  14
ENDBRANCH   4  10
ENDBRANCH   2   5
ENDBRANCH   1   2
BRANCH   1  16
ATOM     16  C   LIG    1       25.355 -20.384   5.259  0.00  0.00    +0.164 C 
ATOM     17  O   LIG    1       25.526 -20.265   4.048  0.00  0.00    -0.292 OA
BRANCH  16  18
ATOM     18  C   LIG    1       26.542 -20.554   6.146  0.00  0.00    +0.047 C 
ATOM     19  C   LIG    1       27.701 -19.923   5.957  0.00  0.00    +0.011 C 
BRANCH  19  20
ATOM     20  C   LIG    1       28.892 -20.081   6.800  0.00  0.00    -0.021 A 
ATOM     21  C   LIG    1       29.831 -19.058   6.958  0.00  0.00    +0.057 A 
ATOM     22  C   LIG    1       30.935 -19.207   7.807  0.00  0.00    +0.162 A 
ATOM     23  C   LIG    1       31.094 -20.408   8.503  0.00  0.00    +0.159 A 
ATOM     24  C   LIG    1       30.161 -21.438   8.358  0.00  0.00    +0.050 A 
ATOM     25  C   LIG    1       29.059 -21.270   7.519  0.00  0.00    +0.012 A 
BRANCH  22  26
ATOM     26  O   LIG    1       31.777 -18.130   7.791  0.00  0.00    -0.491 OA
ATOM     27  C   LIG    1       31.794 -17.316   8.954  0.00  0.00    +0.277 C 
ENDBRANCH  22  26
BRANCH  23  28
ATOM     28  O   LIG    1       32.170 -20.619   9.318  0.00  0.00    -0.503 OA
ATOM     29  H   LIG    1       32.807 -21.194   8.864  0.00  0.00    +0.292 HD
ENDBRANCH  23  28
ENDBRANCH  19  20
ENDBRANCH  16  18
ENDBRANCH   1  16
TORSDOF 10
ENDMDL
MODEL 2
REMARK VINA RESULT:      -9.6      0.172      8.055
REMARK  Name = *****
REMARK                            x       y       z     vdW  Elec       q    Type
REMARK                         _______ _______ _______ _____ _____    ______ ____
ROOT
ATOM      1  C   LIG    1       23.988 -20.380   5.871  0.00  0.00    +0.158 C 
ENDROOT
BRANCH   1   2
ATOM      2  C   LIG    1       25.357 -20.406   5.239  0.00  0.00    +0.164 C 
ATOM      3  O   LIG    1       25.512 -20.238   4.042  0.00  0.00    -0.292 OA
BRANCH   2   5
ATOM      4  C   LIG    1       27.660 -19.992   5.983  0.00  0.00    +0.011 C 
ATOM      5  C   LIG    1       26.494 -20.632   6.166  0.00  0.00    +0.047 C 
BRANCH   4  10
ATOM      6  C   LIG    1       30.946 -19.304   7.784  0.00  0.00    +0.162 A 
ATOM      7  C   LIG    1       31.074 -20.490   8.515  0.00  0.00    +0.159 A 
ATOM      8  C   LIG    1       30.100 -21.484   8.423  0.00  0.00    +0.050 A 
ATOM      9  C   LIG    1       28.987 -21.305   7.600  0.00  0.00    +0.012 A 
ATOM     10  C   LIG    1       28.824 -20.123   6.868  0.00  0.00    -0.021 A 
ATOM     11  C   LIG    1       29.819 -19.136   6.964  0.00  0.00    +0.057 A 
BRANCH   6  13
ATOM     12  C   LIG    1       31.885 -17.430   8.917  0.00  0.00    +0.277 C 
ATOM     13  O   LIG    1       31.817 -18.244   7.752  0.00  0.00    -0.491 OA
ENDBRANCH   6  13
BRANCH   7  14
ATOM     14  O   LIG    1       32.150 -20.721   9.326  0.00  0.00    -0.503 OA
ATOM     15  H   LIG    1       32.902 -21.025   8.796  0.00  0.00    +0.292 HD
ENDBRANCH   7  14
ENDBRANCH   4  10
ENDBRANCH   2   5
ENDBRANCH   1   2
BRANCH   1  16
ATOM     16  C   LIG    1       23.802 -21.527   6.844  0.00  0.00    +0.164 C 
ATOM     17  O   LIG    1       23.378 -21.339   7.983  0.00  0.00    -0.292 OA
BRANCH  16  18
ATOM     18  C   LIG    1       24.066 -22.924   6.391  0.00  0.00    +0.047 C 
ATOM     19  C   LIG    1       25.035 -23.690   6.892  0.00  0.00    +0.011 C 
BRANCH  19  20
ATOM     20  C   LIG    1       25.331 -25.061   6.457  0.00  0.00    -0.021 A 
ATOM     21  C   LIG    1       25.546 -26.099   7.368  0.00  0.00    +0.057 A 
ATOM     22  C   LIG    1       25.778 -27.411   6.936  0.00  0.00    +0.162 A 
ATOM     23  C   LIG    1       25.795 -27.677   5.565  0.00  0.00    +0.159 A 
ATOM     24  C   LIG    1       25.577 -26.651   4.643  0.00  0.00    +0.050 A 
ATOM     25  C   LIG    1       25.335 -25.351   5.088  0.00  0.00    +0.012 A 
BRANCH  22  26
ATOM     26  O   LIG    1       26.026 -28.280   7.962  0.00  0.00    -0.491 OA
ATOM     27  C   LIG    1       25.056 -29.292   8.191  0.00  0.00    +0.277 C 
ENDBRANCH  22  26
BRANCH  23  28
ATOM     28  O   LIG    1       26.048 -28.933   5.089  0.00  0.00    -0.503 OA
ATOM     29  H   LIG    1       26.985 -29.145   5.231  0.00  0.00    +0.292 HD
ENDBRANCH  23  28
ENDBRANCH  19  20
ENDBRANCH  16  18
ENDBRANCH   1  16
TORSDOF 10
ENDMDL
MODEL 3
REMARK VINA RESULT:      -9.5      0.890      1.675
REMARK  Name = *****
REMARK                            x       y       z     vdW  Elec       q    Type
REMARK                         _______ _______ _______ _____ _____    ______ ____
ROOT
ATOM      1  C   LIG    1       23.464 -20.355   5.792  0.00  0.00    +0.158 C 
ENDROOT
BRANCH   1   2
ATOM      2  C   LIG    1       23.472 -21.445   6.833  0.00  0.00    +0.164 C 
ATOM      3  O   LIG    1       23.238 -21.211   8.006  0.00  0.00    -0.292 OA
BRANCH   2   5
ATOM      4  C   LIG    1       24.829 -23.492   6.802  0.00  0.00    +0.011 C 
ATOM      5  C   LIG    1       23.768 -22.812   6.337  0.00  0.00    +0.047 C 
BRANCH   4  10
ATOM      6  C   LIG    1       25.978 -27.123   6.902  0.00  0.00    +0.162 A 
ATOM      7  C   LIG    1       25.918 -27.433   5.539  0.00  0.00    +0.159 A 
ATOM      8  C   LIG    1       25.502 -26.475   4.615  0.00  0.00    +0.050 A 
ATOM      9  C   LIG    1       25.141 -25.195   5.042  0.00  0.00    +0.012 A 
ATOM     10  C   LIG    1       25.177 -24.860   6.400  0.00  0.00    -0.021 A 
ATOM     11  C   LIG    1       25.608 -25.834   7.316  0.00  0.00    +0.057 A 
BRANCH   6  13
ATOM     12  C   LIG    1       25.449 -28.925   8.367  0.00  0.00    +0.277 C 
ATOM     13  O   LIG    1       26.378 -27.941   7.928  0.00  0.00    -0.491 OA
ENDBRANCH   6  13
BRANCH   7  14
ATOM     14  O   LIG    1       26.272 -28.666   5.066  0.00  0.00    -0.503 OA
ATOM     15  H   LIG    1       26.589 -28.589   4.154  0.00  0.00    +0.292 HD
ENDBRANCH   7  14
ENDBRANCH   4  10
ENDBRANCH   2   5
ENDBRANCH   1   2
BRANCH   1  16
ATOM     16  C   LIG    1       24.598 -20.523   4.800  0.00  0.00    +0.164 C 
ATOM     17  O   LIG    1       24.405 -20.992   3.680  0.00  0.00    -0.292 OA
BRANCH  16  18
ATOM     18  C   LIG    1       25.964 -20.043   5.160  0.00  0.00    +0.047 C 
ATOM     19  C   LIG    1       26.700 -20.577   6.134  0.00  0.00    +0.011 C 
BRANCH  19  20
ATOM     20  C   LIG    1       28.039 -20.117   6.522  0.00  0.00    -0.021 A 
ATOM     21  C   LIG    1       28.691 -20.606   7.659  0.00  0.00    +0.057 A 
ATOM     22  C   LIG    1       29.988 -20.195   7.987  0.00  0.00    +0.162 A 
ATOM     23  C   LIG    1       30.636 -19.274   7.158  0.00  0.00    +0.159 A 
ATOM     24  C   LIG    1       29.999 -18.781   6.018  0.00  0.00    +0.050 A 
ATOM     25  C   LIG    1       28.711 -19.210   5.695  0.00  0.00    +0.012 A 
BRANCH  22  26
ATOM     26  O   LIG    1       30.443 -20.729   9.161  0.00  0.00    -0.491 OA
ATOM     27  C   LIG    1       31.174 -21.942   9.070  0.00  0.00    +0.277 C 
ENDBRANCH  22  26
BRANCH  23  28
ATOM     28  O   LIG    1       31.890 -18.815   7.450  0.00  0.00    -0.503 OA
ATOM     29  H   LIG    1       32.483 -19.572   7.584  0.00  0.00    +0.292 HD
ENDBRANCH  23  28
ENDBRANCH  19  20
ENDBRANCH  16  18
ENDBRANCH   1  16
TORSDOF 10
ENDMDL
MODEL 4
REMARK VINA RESULT:      -9.0      1.515      2.627
REMARK  Name = *****
REMARK                            x       y       z     vdW  Elec       q    Type
REMARK                         _______ _______ _______ _____ _____    ______ ____
ROOT
ATOM      1  C   LIG    1       23.914 -22.569   7.193  0.00  0.00    +0.158 C 
ENDROOT
BRANCH   1   2
ATOM      2  C   LIG    1       24.367 -23.539   6.132  0.00  0.00    +0.164 C 
ATOM      3  O   LIG    1       24.786 -23.157   5.052  0.00  0.00    -0.292 OA
BRANCH   2   5
ATOM      4  C   LIG    1       25.023 -25.886   5.832  0.00  0.00    +0.011 C 
ATOM      5  C   LIG    1       24.286 -24.976   6.491  0.00  0.00    +0.047 C 
BRANCH   4  10
ATOM      6  C   LIG    1       25.420 -29.198   7.673  0.00  0.00    +0.162 A 
ATOM      7  C   LIG    1       25.138 -30.088   6.632  0.00  0.00    +0.159 A 
ATOM      8  C   LIG    1       24.817 -29.610   5.362  0.00  0.00    +0.050 A 
ATOM      9  C   LIG    1       24.775 -28.236   5.117  0.00  0.00    +0.012 A 
ATOM     10  C   LIG    1       25.038 -27.321   6.142  0.00  0.00    -0.021 A 
ATOM     11  C   LIG    1       25.369 -27.819   7.413  0.00  0.00    +0.057 A 
BRANCH   6  13
ATOM     12  C   LIG    1       26.628 -28.593   9.635  0.00  0.00    +0.277 C 
ATOM     13  O   LIG    1       25.766 -29.505   8.966  0.00  0.00    -0.491 OA
ENDBRANCH   6  13
BRANCH   7  14
ATOM     14  O   LIG    1       25.177 -31.443   6.815  0.00  0.00    -0.503 OA
ATOM     15  H   LIG    1       25.959 -31.681   7.337  0.00  0.00    +0.292 HD
ENDBRANCH   7  14
ENDBRANCH   4  10
ENDBRANCH   2   5
ENDBRANCH   1   2
BRANCH   1  16
ATOM     16  C   LIG    1       24.296 -21.144   6.848  0.00  0.00    +0.164 C 
ATOM     17  O   LIG    1       23.489 -20.371   6.336  0.00  0.00    -0.292 OA
BRANCH  16  18
ATOM     18  C   LIG    1       25.656 -20.644   7.201  0.00  0.00    +0.047 C 
ATOM     19  C   LIG    1       26.682 -20.632   6.350  0.00  0.00    +0.011 C 
BRANCH  19  20
ATOM     20  C   LIG    1       28.035 -20.162   6.671  0.00  0.00    -0.021 A 
ATOM     21  C   LIG    1       28.742 -20.637   7.779  0.00  0.00    +0.057 A 
ATOM     22  C   LIG    1       30.051 -20.215   8.042  0.00  0.00    +0.162 A 
ATOM     23  C   LIG    1       30.654 -19.299   7.176  0.00  0.00    +0.159 A 
ATOM     24  C   LIG    1       29.961 -18.820   6.062  0.00  0.00    +0.050 A 
ATOM     25  C   LIG    1       28.661 -19.259   5.805  0.00  0.00    +0.012 A 
BRANCH  22  26
ATOM     26  O   LIG    1       30.564 -20.737   9.198  0.00  0.00    -0.491 OA
ATOM     27  C   LIG    1       31.173 -22.016   9.108  0.00  0.00    +0.277 C 
ENDBRANCH  22  26
BRANCH  23  28
ATOM     28  O   LIG    1       31.917 -18.831   7.404  0.00  0.00    -0.503 OA
ATOM     29  H   LIG    1       32.559 -19.432   6.993  0.00  0.00    +0.292 HD
ENDBRANCH  23  28
ENDBRANCH  19  20
ENDBRANCH  16  18
ENDBRANCH   1  16
TORSDOF 10
ENDMDL
MODEL 5
REMARK VINA RESULT:      -8.9      1.521      8.302
REMARK  Name = *****
REMARK                            x       y       z     vdW  Elec       q    Type
REMARK                         _______ _______ _______ _____ _____    ______ ____
ROOT
ATOM      1  C   LIG    1       23.865 -22.515   7.163  0.00  0.00    +0.158 C 
ENDROOT
BRANCH   1   2
ATOM      2  C   LIG    1       24.318 -21.119   6.820  0.00  0.00    +0.164 C 
ATOM      3  O   LIG    1       23.585 -20.330   6.249  0.00  0.00    -0.292 OA
BRANCH   2   5
ATOM      4  C   LIG    1       26.654 -20.556   6.311  0.00  0.00    +0.011 C 
ATOM      5  C   LIG    1       25.700 -20.766   7.233  0.00  0.00    +0.047 C 
BRANCH   4  10
ATOM      6  C   LIG    1       30.022 -20.215   8.059  0.00  0.00    +0.162 A 
ATOM      7  C   LIG    1       30.645 -19.297   7.206  0.00  0.00    +0.159 A 
ATOM      8  C   LIG    1       29.977 -18.812   6.082  0.00  0.00    +0.050 A 
ATOM      9  C   LIG    1       28.678 -19.238   5.797  0.00  0.00    +0.012 A 
ATOM     10  C   LIG    1       28.035 -20.166   6.623  0.00  0.00    -0.021 A 
ATOM     11  C   LIG    1       28.718 -20.637   7.757  0.00  0.00    +0.057 A 
BRANCH   6  13
ATOM     12  C   LIG    1       31.320 -21.946   9.055  0.00  0.00    +0.277 C 
ATOM     13  O   LIG    1       30.533 -20.771   9.205  0.00  0.00    -0.491 OA
ENDBRANCH   6  13
BRANCH   7  14
ATOM     14  O   LIG    1       31.910 -18.838   7.445  0.00  0.00    -0.503 OA
ATOM     15  H   LIG    1       32.217 -19.155   8.308  0.00  0.00    +0.292 HD
ENDBRANCH   7  14
ENDBRANCH   4  10
ENDBRANCH   2   5
ENDBRANCH   1   2
BRANCH   1  16
ATOM     16  C   LIG    1       24.371 -23.529   6.157  0.00  0.00    +0.164 C 
ATOM     17  O   LIG    1       24.782 -23.183   5.051  0.00  0.00    -0.292 OA
BRANCH  16  18
ATOM     18  C   LIG    1       24.442 -24.969   6.540  0.00  0.00    +0.047 C 
ATOM     19  C   LIG    1       25.016 -25.905   5.784  0.00  0.00    +0.011 C 
BRANCH  19  20
ATOM     20  C   LIG    1       25.088 -27.332   6.124  0.00  0.00    -0.021 A 
ATOM     21  C   LIG    1       25.400 -27.772   7.413  0.00  0.00    +0.057 A 
ATOM     22  C   LIG    1       25.415 -29.136   7.733  0.00  0.00    +0.162 A 
ATOM     23  C   LIG    1       25.113 -30.067   6.735  0.00  0.00    +0.159 A 
ATOM     24  C   LIG    1       24.795 -29.641   5.444  0.00  0.00    +0.050 A 
ATOM     25  C   LIG    1       24.772 -28.278   5.143  0.00  0.00    +0.012 A 
BRANCH  22  26
ATOM     26  O   LIG    1       25.798 -29.383   9.022  0.00  0.00    -0.491 OA
ATOM     27  C   LIG    1       26.665 -28.434   9.624  0.00  0.00    +0.277 C 
ENDBRANCH  22  26
BRANCH  23  28
ATOM     28  O   LIG    1       25.145 -31.410   6.985  0.00  0.00    -0.503 OA
ATOM     29  H   LIG    1       24.288 -31.687   7.348  0.00  0.00    +0.292 HD
ENDBRANCH  23  28
ENDBRANCH  19  20
ENDBRANCH  16  18
ENDBRANCH   1  16
TORSDOF 10
ENDMDL
MODEL 6
REMARK VINA RESULT:      -8.7      1.778      2.303
REMARK  Name = *****
REMARK                            x       y       z     vdW  Elec       q    Type
REMARK                         _______ _______ _______ _____ _____    ______ ____
ROOT
ATOM      1  C   LIG    1       25.202 -21.378   6.772  0.00  0.00    +0.158 C 
ENDROOT
BRANCH   1   2
ATOM      2  C   LIG    1       24.221 -22.520   6.688  0.00  0.00    +0.164 C 
ATOM      3  O   LIG    1       23.022 -22.345   6.822  0.00  0.00    -0.292 OA
BRANCH   2   5
ATOM      4  C   LIG    1       24.018 -24.943   6.342  0.00  0.00    +0.011 C 
ATOM      5  C   LIG    1       24.806 -23.857   6.417  0.00  0.00    +0.047 C 
BRANCH   4  10
ATOM      6  C   LIG    1       24.527 -28.717   6.428  0.00  0.00    +0.162 A 
ATOM      7  C   LIG    1       25.546 -28.845   5.478  0.00  0.00    +0.159 A 
ATOM      8  C   LIG    1       26.043 -27.721   4.820  0.00  0.00    +0.050 A 
ATOM      9  C   LIG    1       25.530 -26.454   5.106  0.00  0.00    +0.012 A 
ATOM     10  C   LIG    1       24.501 -26.296   6.041  0.00  0.00    -0.021 A 
ATOM     11  C   LIG    1       24.018 -27.438   6.701  0.00  0.00    +0.057 A 
BRANCH   6  13
ATOM     12  C   LIG    1       24.598 -30.087   8.376  0.00  0.00    +0.277 C 
ATOM     13  O   LIG    1       23.944 -29.715   7.168  0.00  0.00    -0.491 OA
ENDBRANCH   6  13
BRANCH   7  14
ATOM     14  O   LIG    1       26.092 -30.060   5.169  0.00  0.00    -0.503 OA
ATOM     15  H   LIG    1       25.388 -30.716   5.049  0.00  0.00    +0.292 HD
ENDBRANCH   7  14
ENDBRANCH   4  10
ENDBRANCH   2   5
ENDBRANCH   1   2
BRANCH   1  16
ATOM     16  C   LIG    1       25.756 -21.221   8.174  0.00  0.00    +0.164 C 
ATOM     17  O   LIG    1       25.282 -21.842   9.123  0.00  0.00    -0.292 OA
BRANCH  16  18
ATOM     18  C   LIG    1       26.947 -20.351   8.398  0.00  0.00    +0.047 C 
ATOM     19  C   LIG    1       28.034 -20.377   7.628  0.00  0.00    +0.011 C 
BRANCH  19  20
ATOM     20  C   LIG    1       29.227 -19.546   7.832  0.00  0.00    -0.021 A 
ATOM     21  C   LIG    1       29.257 -18.505   8.764  0.00  0.00    +0.057 A 
ATOM     22  C   LIG    1       30.419 -17.755   8.981  0.00  0.00    +0.162 A 
ATOM     23  C   LIG    1       31.568 -18.060   8.245  0.00  0.00    +0.159 A 
ATOM     24  C   LIG    1       31.554 -19.100   7.314  0.00  0.00    +0.050 A 
ATOM     25  C   LIG    1       30.392 -19.847   7.117  0.00  0.00    +0.012 A 
BRANCH  22  26
ATOM     26  O   LIG    1       30.247 -16.742   9.884  0.00  0.00    -0.491 OA
ATOM     27  C   LIG    1       30.745 -16.962  11.195  0.00  0.00    +0.277 C 
ENDBRANCH  22  26
BRANCH  23  28
ATOM     28  O   LIG    1       32.719 -17.339   8.395  0.00  0.00    -0.503 OA
ATOM     29  H   LIG    1       32.592 -16.677   9.095  0.00  0.00    +0.292 HD
ENDBRANCH  23  28
ENDBRANCH  19  20
ENDBRANCH  16  18
ENDBRANCH   1  16
TORSDOF 10
ENDMDL
MODEL 7
REMARK VINA RESULT:      -8.6      1.736      8.681
REMARK  Name = *****
REMARK                            x       y       z     vdW  Elec       q    Type
REMARK                         _______ _______ _______ _____ _____    ______ ____
ROOT
ATOM      1  C   LIG    1       23.985 -22.556   7.056  0.00  0.00    +0.158 C 
ENDROOT
BRANCH   1   2
ATOM      2  C   LIG    1       24.412 -21.158   6.687  0.00  0.00    +0.164 C 
ATOM      3  O   LIG    1       23.677 -20.404   6.074  0.00  0.00    -0.292 OA
BRANCH   2   5
ATOM      4  C   LIG    1       26.760 -20.597   6.235  0.00  0.00    +0.011 C 
ATOM      5  C   LIG    1       25.771 -20.759   7.130  0.00  0.00    +0.047 C 
BRANCH   4  10
ATOM      6  C   LIG    1       30.084 -20.165   8.046  0.00  0.00    +0.162 A 
ATOM      7  C   LIG    1       30.694 -19.224   7.211  0.00  0.00    +0.159 A 
ATOM      8  C   LIG    1       30.032 -18.752   6.077  0.00  0.00    +0.050 A 
ATOM      9  C   LIG    1       28.752 -19.215   5.766  0.00  0.00    +0.012 A 
ATOM     10  C   LIG    1       28.122 -20.168   6.575  0.00  0.00    -0.021 A 
ATOM     11  C   LIG    1       28.799 -20.625   7.717  0.00  0.00    +0.057 A 
BRANCH   6  13
ATOM     12  C   LIG    1       31.336 -21.917   9.064  0.00  0.00    +0.277 C 
ATOM     13  O   LIG    1       30.591 -20.713   9.198  0.00  0.00    -0.491 OA
ENDBRANCH   6  13
BRANCH   7  14
ATOM     14  O   LIG    1       31.940 -18.728   7.475  0.00  0.00    -0.503 OA
ATOM     15  H   LIG    1       31.902 -17.763   7.545  0.00  0.00    +0.292 HD
ENDBRANCH   7  14
ENDBRANCH   4  10
ENDBRANCH   2   5
ENDBRANCH   1   2
BRANCH   1  16
ATOM     16  C   LIG    1       24.616 -23.590   6.146  0.00  0.00    +0.164 C 
ATOM     17  O   LIG    1       24.892 -23.331   4.977  0.00  0.00    -0.292 OA
BRANCH  16  18
ATOM     18  C   LIG    1       24.979 -24.928   6.698  0.00  0.00    +0.047 C 
ATOM     19  C   LIG    1       24.453 -26.073   6.262  0.00  0.00    +0.011 C 
BRANCH  19  20
ATOM     20  C   LIG    1       24.777 -27.402   6.794  0.00  0.00    -0.021 A 
ATOM     21  C   LIG    1       24.132 -28.558   6.344  0.00  0.00    +0.057 A 
ATOM     22  C   LIG    1       24.488 -29.824   6.826  0.00  0.00    +0.162 A 
ATOM     23  C   LIG    1       25.507 -29.924   7.777  0.00  0.00    +0.159 A 
ATOM     24  C   LIG    1       26.162 -28.777   8.232  0.00  0.00    +0.050 A 
ATOM     25  C   LIG    1       25.806 -27.523   7.734  0.00  0.00    +0.012 A 
BRANCH  22  26
ATOM     26  O   LIG    1       23.714 -30.831   6.320  0.00  0.00    -0.491 OA
ATOM     27  C   LIG    1       24.337 -31.718   5.403  0.00  0.00    +0.277 C 
ENDBRANCH  22  26
BRANCH  23  28
ATOM     28  O   LIG    1       25.872 -31.131   8.304  0.00  0.00    -0.503 OA
ATOM     29  H   LIG    1       26.735 -31.041   8.738  0.00  0.00    +0.292 HD
ENDBRANCH  23  28
ENDBRANCH  19  20
ENDBRANCH  16  18
ENDBRANCH   1  16
TORSDOF 10
ENDMDL
MODEL 8
REMARK VINA RESULT:      -8.5      1.973      3.572
REMARK  Name = *****
REMARK                            x       y       z     vdW  Elec       q    Type
REMARK                         _______ _______ _______ _____ _____    ______ ____
ROOT
ATOM      1  C   LIG    1       24.663 -23.854   6.870  0.00  0.00    +0.158 C 
ENDROOT
BRANCH   1   2
ATOM      2  C   LIG    1       24.842 -24.911   5.810  0.00  0.00    +0.164 C 
ATOM      3  O   LIG    1       25.080 -24.620   4.650  0.00  0.00    -0.292 OA
BRANCH   2   5
ATOM      4  C   LIG    1       25.608 -26.822   7.148  0.00  0.00    +0.011 C 
ATOM      5  C   LIG    1       24.724 -26.316   6.271  0.00  0.00    +0.047 C 
BRANCH   4  10
ATOM      6  C   LIG    1       24.541 -30.417   7.821  0.00  0.00    +0.162 A 
ATOM      7  C   LIG    1       25.436 -30.747   8.844  0.00  0.00    +0.159 A 
ATOM      8  C   LIG    1       26.370 -29.814   9.292  0.00  0.00    +0.050 A 
ATOM      9  C   LIG    1       26.421 -28.539   8.724  0.00  0.00    +0.012 A 
ATOM     10  C   LIG    1       25.549 -28.185   7.689  0.00  0.00    -0.021 A 
ATOM     11  C   LIG    1       24.607 -29.133   7.256  0.00  0.00    +0.057 A 
BRANCH   6  13
ATOM     12  C   LIG    1       23.927 -32.035   6.184  0.00  0.00    +0.277 C 
ATOM     13  O   LIG    1       23.558 -31.209   7.281  0.00  0.00    -0.491 OA
ENDBRANCH   6  13
BRANCH   7  14
ATOM     14  O   LIG    1       25.421 -31.976   9.442  0.00  0.00    -0.503 OA
ATOM     15  H   LIG    1       25.821 -31.917  10.323  0.00  0.00    +0.292 HD
ENDBRANCH   7  14
ENDBRANCH   4  10
ENDBRANCH   2   5
ENDBRANCH   1   2
BRANCH   1  16
ATOM     16  C   LIG    1       25.102 -22.490   6.377  0.00  0.00    +0.164 C 
ATOM     17  O   LIG    1       24.349 -21.773   5.720  0.00  0.00    -0.292 OA
BRANCH  16  18
ATOM     18  C   LIG    1       26.448 -21.971   6.756  0.00  0.00    +0.047 C 
ATOM     19  C   LIG    1       26.893 -20.760   6.421  0.00  0.00    +0.011 C 
BRANCH  19  20
ATOM     20  C   LIG    1       28.217 -20.226   6.764  0.00  0.00    -0.021 A 
ATOM     21  C   LIG    1       28.944 -20.695   7.862  0.00  0.00    +0.057 A 
ATOM     22  C   LIG    1       30.227 -20.211   8.145  0.00  0.00    +0.162 A 
ATOM     23  C   LIG    1       30.782 -19.238   7.310  0.00  0.00    +0.159 A 
ATOM     24  C   LIG    1       30.069 -18.763   6.207  0.00  0.00    +0.050 A 
ATOM     25  C   LIG    1       28.796 -19.264   5.929  0.00  0.00    +0.012 A 
BRANCH  22  26
ATOM     26  O   LIG    1       30.763 -20.738   9.288  0.00  0.00    -0.491 OA
ATOM     27  C   LIG    1       31.146 -22.104   9.243  0.00  0.00    +0.277 C 
ENDBRANCH  22  26
BRANCH  23  28
ATOM     28  O   LIG    1       32.017 -18.708   7.559  0.00  0.00    -0.503 OA
ATOM     29  H   LIG    1       31.923 -17.765   7.768  0.00  0.00    +0.292 HD
ENDBRANCH  23  28
ENDBRANCH  19  20
ENDBRANCH  16  18
ENDBRANCH   1  16
TORSDOF 10
ENDMDL
MODEL 9
REMARK VINA RESULT:      -8.3      1.739      8.587
REMARK  Name = *****
REMARK                            x       y       z     vdW  Elec       q    Type
REMARK                         _______ _______ _______ _____ _____    ______ ____
ROOT
ATOM      1  C   LIG    1       24.089 -22.663   7.230  0.00  0.00    +0.158 C 
ENDROOT
BRANCH   1   2
ATOM      2  C   LIG    1       24.175 -21.234   6.759  0.00  0.00    +0.164 C 
ATOM      3  O   LIG    1       23.181 -20.602   6.445  0.00  0.00    -0.292 OA
BRANCH   2   5
ATOM      4  C   LIG    1       26.547 -21.221   7.394  0.00  0.00    +0.011 C 
ATOM      5  C   LIG    1       25.538 -20.647   6.719  0.00  0.00    +0.047 C 
BRANCH   4  10
ATOM      6  C   LIG    1       29.701 -19.268   6.527  0.00  0.00    +0.162 A 
ATOM      7  C   LIG    1       30.626 -19.927   7.344  0.00  0.00    +0.159 A 
ATOM      8  C   LIG    1       30.219 -20.978   8.164  0.00  0.00    +0.050 A 
ATOM      9  C   LIG    1       28.883 -21.385   8.178  0.00  0.00    +0.012 A 
ATOM     10  C   LIG    1       27.933 -20.735   7.382  0.00  0.00    -0.021 A 
ATOM     11  C   LIG    1       28.361 -19.685   6.554  0.00  0.00    +0.057 A 
BRANCH   6  13
ATOM     12  C   LIG    1       28.836 -17.758   4.900  0.00  0.00    +0.277 C 
ATOM     13  O   LIG    1       29.942 -18.234   5.657  0.00  0.00    -0.491 OA
ENDBRANCH   6  13
BRANCH   7  14
ATOM     14  O   LIG    1       31.947 -19.577   7.360  0.00  0.00    -0.503 OA
ATOM     15  H   LIG    1       32.233 -19.415   8.272  0.00  0.00    +0.292 HD
ENDBRANCH   7  14
ENDBRANCH   4  10
ENDBRANCH   2   5
ENDBRANCH   1   2
BRANCH   1  16
ATOM     16  C   LIG    1       24.332 -23.639   6.096  0.00  0.00    +0.164 C 
ATOM     17  O   LIG    1       24.727 -23.257   4.997  0.00  0.00    -0.292 OA
BRANCH  16  18
ATOM     18  C   LIG    1       24.159 -25.101   6.337  0.00  0.00    +0.047 C 
ATOM     19  C   LIG    1       25.158 -25.982   6.274  0.00  0.00    +0.011 C 
BRANCH  19  20
ATOM     20  C   LIG    1       25.018 -27.427   6.490  0.00  0.00    -0.021 A 
ATOM     21  C   LIG    1       25.503 -28.056   7.641  0.00  0.00    +0.057 A 
ATOM     22  C   LIG    1       25.317 -29.427   7.854  0.00  0.00    +0.162 A 
ATOM     23  C   LIG    1       24.634 -30.175   6.891  0.00  0.00    +0.159 A 
ATOM     24  C   LIG    1       24.140 -29.559   5.739  0.00  0.00    +0.050 A 
ATOM     25  C   LIG    1       24.322 -28.189   5.545  0.00  0.00    +0.012 A 
BRANCH  22  26
ATOM     26  O   LIG    1       25.908 -29.880   9.001  0.00  0.00    -0.491 OA
ATOM     27  C   LIG    1       26.695 -28.947   9.726  0.00  0.00    +0.277 C 
ENDBRANCH  22  26
BRANCH  23  28
ATOM     28  O   LIG    1       24.453 -31.521   7.034  0.00  0.00    -0.503 OA
ATOM     29  H   LIG    1       25.245 -31.908   7.443  0.00  0.00    +0.292 HD
ENDBRANCH  23  28
ENDBRANCH  19  20
ENDBRANCH  16  18
ENDBRANCH   1  16
TORSDOF 10
ENDMDL
