MODEL 1
REMARK VINA RESULT:      -8.5      0.000      0.000
REMARK  Name = *****
REMARK                            x       y       z     vdW  Elec       q    Type
REMARK                         _______ _______ _______ _____ _____    ______ ____
ROOT
ATOM      1  C   LIG    1       29.890 -18.992   7.858  0.00  0.00    -0.007 A 
ATOM      2  C   LIG    1       28.904 -19.859   8.339  0.00  0.00    +0.010 A 
ATOM      3  C   LIG    1       27.877 -20.284   7.490  0.00  0.00    +0.010 A 
ATOM      4  C   LIG    1       27.851 -19.846   6.162  0.00  0.00    -0.007 A 
ATOM      5  C   LIG    1       28.843 -18.985   5.680  0.00  0.00    +0.010 A 
ATOM      6  C   LIG    1       29.860 -18.552   6.530  0.00  0.00    +0.010 A 
ENDROOT
BRANCH   1   8
ATOM      7  N   LIG    1       30.810 -17.631   9.641  0.00  0.00    -0.276 NA
ATOM      8  C   LIG    1       30.991 -18.517   8.720  0.00  0.00    +0.113 C 
BRANCH   7  11
ATOM      9  O   LIG    1       32.811 -15.498   8.985  0.00  0.00    -0.271 OA
ATOM     10  C   LIG    1       32.592 -15.957  10.100  0.00  0.00    +0.263 C 
ATOM     11  C   LIG    1       32.024 -17.315  10.422  0.00  0.00    +0.220 C 
ATOM     12  C   LIG    1       31.659 -17.124  11.889  0.00  0.00    +0.226 C 
ATOM     13  O   LIG    1       32.456 -16.050  12.406  0.00  0.00    -0.277 OA
ATOM     14  N   LIG    1       32.897 -15.330  11.277  0.00  0.00    -0.193 N 
ATOM     15  H   LIG    1       33.153 -14.355  11.359  0.00  0.00    +0.182 HD
ENDBRANCH   7  11
ENDBRANCH   1   8
BRANCH   4  16
ATOM     16  C   LIG    1       26.767 -20.306   5.277  0.00  0.00    +0.113 C 
ATOM     17  N   LIG    1       25.544 -20.372   5.687  0.00  0.00    -0.276 NA
BRANCH  17  18
ATOM     18  C   LIG    1       24.593 -20.832   4.655  0.00  0.00    +0.220 C 
ATOM     19  C   LIG    1       23.579 -19.763   4.347  0.00  0.00    +0.263 C 
ATOM     20  O   LIG    1       23.751 -18.801   3.611  0.00  0.00    -0.271 OA
ATOM     21  N   LIG    1       22.452 -20.017   5.080  0.00  0.00    -0.193 N 
ATOM     22  H   LIG    1       21.583 -19.503   5.027  0.00  0.00    +0.182 HD
ATOM     23  O   LIG    1       22.517 -21.256   5.752  0.00  0.00    -0.277 OA
ATOM     24  C   LIG    1       23.680 -21.912   5.221  0.00  0.00    +0.226 C 
ENDBRANCH  17  18
ENDBRANCH   4  16
TORSDOF 4
ENDMDL
MODEL 2
REMARK VINA RESULT:      -8.4      0.946      1.023
REMARK  Name = *****
REMARK                            x       y       z     vdW  Elec       q    Type
REMARK                         _______ _______ _______ _____ _____    ______ ____
ROOT
ATOM      1  C   LIG    1       29.982 -18.935   7.981  0.00  0.00    -0.007 A 
ATOM      2  C   LIG    1       28.960 -19.691   8.564  0.00  0.00    +0.010 A 
ATOM      3  C   LIG    1       27.907 -20.164   7.774  0.00  0.00    +0.010 A 
ATOM      4  C   LIG    1       27.893 -19.886   6.403  0.00  0.00    -0.007 A 
ATOM      5  C   LIG    1       28.921 -19.138   5.820  0.00  0.00    +0.010 A 
ATOM      6  C   LIG    1       29.963 -18.657   6.611  0.00  0.00    +0.010 A 
ENDROOT
BRANCH   1   8
ATOM      7  N   LIG    1       30.932 -17.683   9.827  0.00  0.00    -0.276 NA
ATOM      8  C   LIG    1       31.111 -18.415   8.779  0.00  0.00    +0.113 C 
BRANCH   7  11
ATOM      9  O   LIG    1       32.787 -15.490   8.971  0.00  0.00    -0.271 OA
ATOM     10  C   LIG    1       32.667 -15.923  10.111  0.00  0.00    +0.263 C 
ATOM     11  C   LIG    1       32.182 -17.292  10.511  0.00  0.00    +0.220 C 
ATOM     12  C   LIG    1       31.912 -17.071  11.993  0.00  0.00    +0.226 C 
ATOM     13  O   LIG    1       32.696 -15.949  12.423  0.00  0.00    -0.277 OA
ATOM     14  N   LIG    1       33.025 -15.247  11.245  0.00  0.00    -0.193 N 
ATOM     15  H   LIG    1       33.243 -14.260  11.281  0.00  0.00    +0.182 HD
ENDBRANCH   7  11
ENDBRANCH   1   8
BRANCH   4  16
ATOM     16  C   LIG    1       26.781 -20.395   5.581  0.00  0.00    +0.113 C 
ATOM     17  N   LIG    1       25.638 -20.693   6.102  0.00  0.00    -0.276 NA
BRANCH  17  18
ATOM     18  C   LIG    1       24.640 -21.165   5.122  0.00  0.00    +0.220 C 
ATOM     19  C   LIG    1       23.241 -20.929   5.626  0.00  0.00    +0.263 C 
ATOM     20  O   LIG    1       22.631 -19.870   5.582  0.00  0.00    -0.271 OA
ATOM     21  N   LIG    1       22.791 -22.087   6.200  0.00  0.00    -0.193 N 
ATOM     22  H   LIG    1       21.862 -22.244   6.564  0.00  0.00    +0.182 HD
ATOM     23  O   LIG    1       23.681 -23.165   6.002  0.00  0.00    -0.277 OA
ATOM     24  C   LIG    1       24.646 -22.686   5.051  0.00  0.00    +0.226 C 
ENDBRANCH  17  18
ENDBRANCH   4  16
TORSDOF 4
ENDMDL
MODEL 3
REMARK VINA RESULT:      -8.0      6.643     11.180
REMARK  Name = *****
REMARK                            x       y       z     vdW  Elec       q    Type
REMARK                         _______ _______ _______ _____ _____    ______ ____
ROOT
ATOM      1  C   LIG    1       25.085 -27.349   6.227  0.00  0.00    -0.007 A 
ATOM      2  C   LIG    1       24.007 -26.633   5.696  0.00  0.00    +0.010 A 
ATOM      3  C   LIG    1       24.001 -25.236   5.760  0.00  0.00    +0.010 A 
ATOM      4  C   LIG    1       25.080 -24.566   6.345  0.00  0.00    -0.007 A 
ATOM      5  C   LIG    1       26.162 -25.283   6.868  0.00  0.00    +0.010 A 
ATOM      6  C   LIG    1       26.162 -26.676   6.814  0.00  0.00    +0.010 A 
ENDROOT
BRANCH   1   8
ATOM      7  N   LIG    1       25.358 -29.537   7.234  0.00  0.00    -0.276 NA
ATOM      8  C   LIG    1       25.131 -28.824   6.182  0.00  0.00    +0.113 C 
BRANCH   7  11
ATOM      9  O   LIG    1       23.228 -31.424   8.176  0.00  0.00    -0.271 OA
ATOM     10  C   LIG    1       23.962 -31.596   7.210  0.00  0.00    +0.263 C 
ATOM     11  C   LIG    1       25.326 -30.995   6.993  0.00  0.00    +0.220 C 
ATOM     12  C   LIG    1       25.524 -31.278   5.510  0.00  0.00    +0.226 C 
ATOM     13  O   LIG    1       24.671 -32.375   5.152  0.00  0.00    -0.277 OA
ATOM     14  N   LIG    1       23.694 -32.438   6.166  0.00  0.00    -0.193 N 
ATOM     15  H   LIG    1       22.792 -32.856   5.982  0.00  0.00    +0.182 HD
ENDBRANCH   7  11
ENDBRANCH   1   8
BRANCH   4  16
ATOM     16  C   LIG    1       25.064 -23.093   6.401  0.00  0.00    +0.113 C 
ATOM     17  N   LIG    1       24.817 -22.381   5.353  0.00  0.00    -0.276 NA
BRANCH  17  18
ATOM     18  C   LIG    1       24.820 -20.926   5.605  0.00  0.00    +0.220 C 
ATOM     19  C   LIG    1       25.500 -20.190   4.482  0.00  0.00    +0.263 C 
ATOM     20  O   LIG    1       24.998 -19.897   3.407  0.00  0.00    -0.271 OA
ATOM     21  N   LIG    1       26.799 -19.958   4.846  0.00  0.00    -0.193 N 
ATOM     22  H   LIG    1       27.476 -19.425   4.318  0.00  0.00    +0.182 HD
ATOM     23  O   LIG    1       27.053 -20.319   6.187  0.00  0.00    -0.277 OA
ATOM     24  C   LIG    1       25.761 -20.591   6.755  0.00  0.00    +0.226 C 
ENDBRANCH  17  18
ENDBRANCH   4  16
TORSDOF 4
ENDMDL
MODEL 4
REMARK VINA RESULT:      -7.9      1.055      9.239
REMARK  Name = *****
REMARK                            x       y       z     vdW  Elec       q    Type
REMARK                         _______ _______ _______ _____ _____    ______ ____
ROOT
ATOM      1  C   LIG    1       27.397 -20.178   6.384  0.00  0.00    -0.007 A 
ATOM      2  C   LIG    1       27.570 -20.343   7.762  0.00  0.00    +0.010 A 
ATOM      3  C   LIG    1       28.724 -19.851   8.381  0.00  0.00    +0.010 A 
ATOM      4  C   LIG    1       29.690 -19.188   7.617  0.00  0.00    -0.007 A 
ATOM      5  C   LIG    1       29.510 -19.016   6.240  0.00  0.00    +0.010 A 
ATOM      6  C   LIG    1       28.365 -19.517   5.622  0.00  0.00    +0.010 A 
ENDROOT
BRANCH   1   8
ATOM      7  N   LIG    1       25.635 -21.801   6.010  0.00  0.00    -0.276 NA
ATOM      8  C   LIG    1       26.195 -20.683   5.690  0.00  0.00    +0.113 C 
BRANCH   7  11
ATOM      9  O   LIG    1       22.989 -22.646   7.138  0.00  0.00    -0.271 OA
ATOM     10  C   LIG    1       23.166 -22.095   6.057  0.00  0.00    +0.263 C 
ATOM     11  C   LIG    1       24.422 -22.116   5.227  0.00  0.00    +0.220 C 
ATOM     12  C   LIG    1       24.130 -20.984   4.251  0.00  0.00    +0.226 C 
ATOM     13  O   LIG    1       22.708 -20.804   4.195  0.00  0.00    -0.277 OA
ATOM     14  N   LIG    1       22.207 -21.407   5.366  0.00  0.00    -0.193 N 
ATOM     15  H   LIG    1       21.319 -21.115   5.753  0.00  0.00    +0.182 HD
ENDBRANCH   7  11
ENDBRANCH   1   8
BRANCH   4  16
ATOM     16  C   LIG    1       30.898 -18.669   8.282  0.00  0.00    +0.113 C 
ATOM     17  N   LIG    1       30.862 -18.224   9.494  0.00  0.00    -0.276 NA
BRANCH  17  18
ATOM     18  C   LIG    1       32.172 -17.769  10.001  0.00  0.00    +0.220 C 
ATOM     19  C   LIG    1       32.008 -16.975  11.269  0.00  0.00    +0.263 C 
ATOM     20  O   LIG    1       31.851 -17.436  12.391  0.00  0.00    -0.271 OA
ATOM     21  N   LIG    1       32.002 -15.645  10.944  0.00  0.00    -0.193 N 
ATOM     22  H   LIG    1       31.972 -14.876  11.599  0.00  0.00    +0.182 HD
ATOM     23  O   LIG    1       32.309 -15.423   9.585  0.00  0.00    -0.277 OA
ATOM     24  C   LIG    1       32.750 -16.697   9.086  0.00  0.00    +0.226 C 
ENDBRANCH  17  18
ENDBRANCH   4  16
TORSDOF 4
ENDMDL
MODEL 5
REMARK VINA RESULT:      -7.9      6.912      9.956
REMARK  Name = *****
REMARK                            x       y       z     vdW  Elec       q    Type
REMARK                         _______ _______ _______ _____ _____    ______ ____
ROOT
ATOM      1  C   LIG    1       25.051 -24.922   5.826  0.00  0.00    -0.007 A 
ATOM      2  C   LIG    1       24.126 -25.786   5.231  0.00  0.00    +0.010 A 
ATOM      3  C   LIG    1       24.154 -27.151   5.535  0.00  0.00    +0.010 A 
ATOM      4  C   LIG    1       25.101 -27.639   6.441  0.00  0.00    -0.007 A 
ATOM      5  C   LIG    1       26.020 -26.772   7.042  0.00  0.00    +0.010 A 
ATOM      6  C   LIG    1       25.999 -25.413   6.729  0.00  0.00    +0.010 A 
ENDROOT
BRANCH   1   8
ATOM      7  N   LIG    1       24.533 -22.608   6.330  0.00  0.00    -0.276 NA
ATOM      8  C   LIG    1       25.059 -23.475   5.532  0.00  0.00    +0.113 C 
BRANCH   7  11
ATOM      9  O   LIG    1       26.856 -20.806   6.911  0.00  0.00    -0.271 OA
ATOM     10  C   LIG    1       26.093 -20.707   5.957  0.00  0.00    +0.263 C 
ATOM     11  C   LIG    1       24.674 -21.208   5.880  0.00  0.00    +0.220 C 
ATOM     12  C   LIG    1       24.429 -21.121   4.379  0.00  0.00    +0.226 C 
ATOM     13  O   LIG    1       25.352 -20.167   3.835  0.00  0.00    -0.277 OA
ATOM     14  N   LIG    1       26.379 -20.049   4.793  0.00  0.00    -0.193 N 
ATOM     15  H   LIG    1       27.303 -19.743   4.518  0.00  0.00    +0.182 HD
ENDBRANCH   7  11
ENDBRANCH   1   8
BRANCH   4  16
ATOM     16  C   LIG    1       25.116 -29.078   6.757  0.00  0.00    +0.113 C 
ATOM     17  N   LIG    1       25.474 -29.957   5.882  0.00  0.00    -0.276 NA
BRANCH  17  18
ATOM     18  C   LIG    1       25.448 -31.345   6.385  0.00  0.00    +0.220 C 
ATOM     19  C   LIG    1       25.271 -32.321   5.253  0.00  0.00    +0.263 C 
ATOM     20  O   LIG    1       26.151 -32.720   4.503  0.00  0.00    -0.271 OA
ATOM     21  N   LIG    1       23.943 -32.640   5.166  0.00  0.00    -0.193 N 
ATOM     22  H   LIG    1       23.538 -33.323   4.541  0.00  0.00    +0.182 HD
ATOM     23  O   LIG    1       23.191 -32.105   6.235  0.00  0.00    -0.277 OA
ATOM     24  C   LIG    1       24.165 -31.602   7.164  0.00  0.00    +0.226 C 
ENDBRANCH  17  18
ENDBRANCH   4  16
TORSDOF 4
ENDMDL
MODEL 6
REMARK VINA RESULT:      -7.9      7.295     11.674
REMARK  Name = *****
REMARK                            x       y       z     vdW  Elec       q    Type
REMARK                         _______ _______ _______ _____ _____    ______ ____
ROOT
ATOM      1  C   LIG    1       25.001 -28.175   6.514  0.00  0.00    -0.007 A 
ATOM      2  C   LIG    1       25.939 -27.523   7.321  0.00  0.00    +0.010 A 
ATOM      3  C   LIG    1       26.078 -26.133   7.240  0.00  0.00    +0.010 A 
ATOM      4  C   LIG    1       25.268 -25.407   6.361  0.00  0.00    -0.007 A 
ATOM      5  C   LIG    1       24.324 -26.060   5.562  0.00  0.00    +0.010 A 
ATOM      6  C   LIG    1       24.195 -27.447   5.634  0.00  0.00    +0.010 A 
ENDROOT
BRANCH   1   8
ATOM      7  N   LIG    1       23.789 -30.226   6.062  0.00  0.00    -0.276 NA
ATOM      8  C   LIG    1       24.823 -29.640   6.566  0.00  0.00    +0.113 C 
BRANCH   7  11
ATOM      9  O   LIG    1       25.460 -32.090   4.414  0.00  0.00    -0.271 OA
ATOM     10  C   LIG    1       25.024 -32.320   5.536  0.00  0.00    +0.263 C 
ATOM     11  C   LIG    1       23.812 -31.699   6.179  0.00  0.00    +0.220 C 
ATOM     12  C   LIG    1       24.032 -32.098   7.632  0.00  0.00    +0.226 C 
ATOM     13  O   LIG    1       24.892 -33.245   7.650  0.00  0.00    -0.277 OA
ATOM     14  N   LIG    1       25.535 -33.253   6.395  0.00  0.00    -0.193 N 
ATOM     15  H   LIG    1       26.429 -33.712   6.281  0.00  0.00    +0.182 HD
ENDBRANCH   7  11
ENDBRANCH   1   8
BRANCH   4  16
ATOM     16  C   LIG    1       25.421 -23.943   6.291  0.00  0.00    +0.113 C 
ATOM     17  N   LIG    1       25.904 -23.267   7.279  0.00  0.00    -0.276 NA
BRANCH  17  18
ATOM     18  C   LIG    1       26.004 -21.817   7.018  0.00  0.00    +0.220 C 
ATOM     19  C   LIG    1       25.418 -21.026   8.157  0.00  0.00    +0.263 C 
ATOM     20  O   LIG    1       25.976 -20.769   9.214  0.00  0.00    -0.271 OA
ATOM     21  N   LIG    1       24.130 -20.698   7.833  0.00  0.00    -0.193 N 
ATOM     22  H   LIG    1       23.513 -20.113   8.379  0.00  0.00    +0.182 HD
ATOM     23  O   LIG    1       23.806 -21.043   6.503  0.00  0.00    -0.277 OA
ATOM     24  C   LIG    1       25.054 -21.415   5.897  0.00  0.00    +0.226 C 
ENDBRANCH  17  18
ENDBRANCH   4  16
TORSDOF 4
ENDMDL
MODEL 7
REMARK VINA RESULT:      -7.8      6.889     10.042
REMARK  Name = *****
REMARK                            x       y       z     vdW  Elec       q    Type
REMARK                         _______ _______ _______ _____ _____    ______ ____
ROOT
ATOM      1  C   LIG    1       25.096 -24.889   5.921  0.00  0.00    -0.007 A 
ATOM      2  C   LIG    1       24.134 -25.726   5.347  0.00  0.00    +0.010 A 
ATOM      3  C   LIG    1       24.122 -27.089   5.661  0.00  0.00    +0.010 A 
ATOM      4  C   LIG    1       25.068 -27.601   6.556  0.00  0.00    -0.007 A 
ATOM      5  C   LIG    1       26.024 -26.760   7.135  0.00  0.00    +0.010 A 
ATOM      6  C   LIG    1       26.042 -25.404   6.813  0.00  0.00    +0.010 A 
ENDROOT
BRANCH   1   8
ATOM      7  N   LIG    1       24.404 -22.586   6.231  0.00  0.00    -0.276 NA
ATOM      8  C   LIG    1       25.145 -23.445   5.616  0.00  0.00    +0.113 C 
BRANCH   7  11
ATOM      9  O   LIG    1       26.827 -20.934   6.847  0.00  0.00    -0.271 OA
ATOM     10  C   LIG    1       26.070 -20.770   5.897  0.00  0.00    +0.263 C 
ATOM     11  C   LIG    1       24.625 -21.187   5.811  0.00  0.00    +0.220 C 
ATOM     12  C   LIG    1       24.384 -21.052   4.313  0.00  0.00    +0.226 C 
ATOM     13  O   LIG    1       25.360 -20.141   3.789  0.00  0.00    -0.277 OA
ATOM     14  N   LIG    1       26.393 -20.103   4.747  0.00  0.00    -0.193 N 
ATOM     15  H   LIG    1       27.333 -19.845   4.477  0.00  0.00    +0.182 HD
ENDBRANCH   7  11
ENDBRANCH   1   8
BRANCH   4  16
ATOM     16  C   LIG    1       25.041 -29.038   6.882  0.00  0.00    +0.113 C 
ATOM     17  N   LIG    1       25.444 -29.477   8.027  0.00  0.00    -0.276 NA
BRANCH  17  18
ATOM     18  C   LIG    1       25.321 -30.940   8.182  0.00  0.00    +0.220 C 
ATOM     19  C   LIG    1       26.649 -31.555   8.535  0.00  0.00    +0.263 C 
ATOM     20  O   LIG    1       27.155 -31.584   9.648  0.00  0.00    -0.271 OA
ATOM     21  N   LIG    1       27.225 -32.021   7.384  0.00  0.00    -0.193 N 
ATOM     22  H   LIG    1       28.089 -32.540   7.323  0.00  0.00    +0.182 HD
ATOM     23  O   LIG    1       26.354 -31.938   6.276  0.00  0.00    -0.277 OA
ATOM     24  C   LIG    1       25.073 -31.596   6.830  0.00  0.00    +0.226 C 
ENDBRANCH  17  18
ENDBRANCH   4  16
TORSDOF 4
ENDMDL
MODEL 8
REMARK VINA RESULT:      -7.7      6.679     11.026
REMARK  Name = *****
REMARK                            x       y       z     vdW  Elec       q    Type
REMARK                         _______ _______ _______ _____ _____    ______ ____
ROOT
ATOM      1  C   LIG    1       25.061 -27.412   6.472  0.00  0.00    -0.007 A 
ATOM      2  C   LIG    1       26.049 -26.691   7.149  0.00  0.00    +0.010 A 
ATOM      3  C   LIG    1       26.038 -25.292   7.111  0.00  0.00    +0.010 A 
ATOM      4  C   LIG    1       25.031 -24.628   6.404  0.00  0.00    -0.007 A 
ATOM      5  C   LIG    1       24.038 -25.351   5.734  0.00  0.00    +0.010 A 
ATOM      6  C   LIG    1       24.057 -26.745   5.762  0.00  0.00    +0.010 A 
ENDROOT
BRANCH   1   8
ATOM      7  N   LIG    1       23.986 -29.562   6.151  0.00  0.00    -0.276 NA
ATOM      8  C   LIG    1       25.036 -28.889   6.484  0.00  0.00    +0.113 C 
BRANCH   7  11
ATOM      9  O   LIG    1       25.817 -31.147   4.386  0.00  0.00    -0.271 OA
ATOM     10  C   LIG    1       25.430 -31.479   5.500  0.00  0.00    +0.263 C 
ATOM     11  C   LIG    1       24.170 -31.027   6.191  0.00  0.00    +0.220 C 
ATOM     12  C   LIG    1       24.460 -31.473   7.619  0.00  0.00    +0.226 C 
ATOM     13  O   LIG    1       25.440 -32.519   7.565  0.00  0.00    -0.277 OA
ATOM     14  N   LIG    1       26.055 -32.394   6.303  0.00  0.00    -0.193 N 
ATOM     15  H   LIG    1       26.991 -32.746   6.152  0.00  0.00    +0.182 HD
ENDBRANCH   7  11
ENDBRANCH   1   8
BRANCH   4  16
ATOM     16  C   LIG    1       25.028 -23.154   6.376  0.00  0.00    +0.113 C 
ATOM     17  N   LIG    1       24.629 -22.500   5.337  0.00  0.00    -0.276 NA
BRANCH  17  18
ATOM     18  C   LIG    1       24.675 -21.033   5.502  0.00  0.00    +0.220 C 
ATOM     19  C   LIG    1       25.263 -20.376   4.282  0.00  0.00    +0.263 C 
ATOM     20  O   LIG    1       24.672 -20.136   3.239  0.00  0.00    -0.271 OA
ATOM     21  N   LIG    1       26.593 -20.149   4.517  0.00  0.00    -0.193 N 
ATOM     22  H   LIG    1       27.227 -19.660   3.901  0.00  0.00    +0.182 HD
ATOM     23  O   LIG    1       26.960 -20.436   5.849  0.00  0.00    -0.277 OA
ATOM     24  C   LIG    1       25.719 -20.650   6.543  0.00  0.00    +0.226 C 
ENDBRANCH  17  18
ENDBRANCH   4  16
TORSDOF 4
ENDMDL
MODEL 9
REMARK VINA RESULT:      -7.7      6.967     11.525
REMARK  Name = *****
REMARK                            x       y       z     vdW  Elec       q    Type
REMARK                         _______ _______ _______ _____ _____    ______ ____
ROOT
ATOM      1  C   LIG    1       25.174 -27.698   6.068  0.00  0.00    -0.007 A 
ATOM      2  C   LIG    1       26.344 -27.050   6.477  0.00  0.00    +0.010 A 
ATOM      3  C   LIG    1       26.385 -25.652   6.522  0.00  0.00    +0.010 A 
ATOM      4  C   LIG    1       25.250 -24.916   6.167  0.00  0.00    -0.007 A 
ATOM      5  C   LIG    1       24.078 -25.566   5.766  0.00  0.00    +0.010 A 
ATOM      6  C   LIG    1       24.042 -26.959   5.711  0.00  0.00    +0.010 A 
ENDROOT
BRANCH   1   8
ATOM      7  N   LIG    1       25.542 -29.928   6.947  0.00  0.00    -0.276 NA
ATOM      8  C   LIG    1       25.089 -29.171   6.005  0.00  0.00    +0.113 C 
BRANCH   7  11
ATOM      9  O   LIG    1       23.213 -31.535   7.934  0.00  0.00    -0.271 OA
ATOM     10  C   LIG    1       23.906 -31.801   6.958  0.00  0.00    +0.263 C 
ATOM     11  C   LIG    1       25.329 -31.372   6.717  0.00  0.00    +0.220 C 
ATOM     12  C   LIG    1       25.468 -31.685   5.233  0.00  0.00    +0.226 C 
ATOM     13  O   LIG    1       24.482 -32.671   4.896  0.00  0.00    -0.277 OA
ATOM     14  N   LIG    1       23.521 -32.609   5.925  0.00  0.00    -0.193 N 
ATOM     15  H   LIG    1       22.571 -32.915   5.758  0.00  0.00    +0.182 HD
ENDBRANCH   7  11
ENDBRANCH   1   8
BRANCH   4  16
ATOM     16  C   LIG    1       25.305 -23.444   6.224  0.00  0.00    +0.113 C 
ATOM     17  N   LIG    1       26.224 -22.828   6.890  0.00  0.00    -0.276 NA
BRANCH  17  18
ATOM     18  C   LIG    1       26.132 -21.357   6.813  0.00  0.00    +0.220 C 
ATOM     19  C   LIG    1       26.615 -20.723   8.089  0.00  0.00    +0.263 C 
ATOM     20  O   LIG    1       27.782 -20.530   8.399  0.00  0.00    -0.271 OA
ATOM     21  N   LIG    1       25.526 -20.455   8.874  0.00  0.00    -0.193 N 
ATOM     22  H   LIG    1       25.540 -19.970   9.760  0.00  0.00    +0.182 HD
ATOM     23  O   LIG    1       24.308 -20.692   8.200  0.00  0.00    -0.277 OA
ATOM     24  C   LIG    1       24.674 -20.916   6.829  0.00  0.00    +0.226 C 
ENDBRANCH  17  18
ENDBRANCH   4  16
TORSDOF 4
ENDMDL
