MODEL 1
REMARK VINA RESULT:      -4.9      0.000      0.000
REMARK  Name = *****
REMARK                            x       y       z     vdW  Elec       q    Type
REMARK                         _______ _______ _______ _____ _____    ______ ____
ROOT
ATOM      1  C   LIG    1       25.223 -30.516   8.421  0.00  0.00    +0.064 A 
ATOM      2  C   LIG    1       24.617 -30.516   7.141  0.00  0.00    +0.057 A 
ATOM      3  I   LIG    1       23.799 -32.296   6.282  0.00  0.00    -0.040 I 
ATOM      4  C   LIG    1       24.573 -29.348   6.338  0.00  0.00    +0.053 A 
ATOM      5  C   LIG    1       25.272 -28.213   6.779  0.00  0.00    +0.036 A 
ATOM      6  I   LIG    1       25.391 -26.478   5.594  0.00  0.00    -0.042 I 
ATOM      7  C   LIG    1       25.895 -28.193   8.025  0.00  0.00    +0.032 A 
ATOM      8  C   LIG    1       25.790 -29.304   8.875  0.00  0.00    +0.037 A 
ATOM      9  I   LIG    1       26.409 -28.971  10.858  0.00  0.00    -0.042 I 
ENDROOT
BRANCH   1  12
ATOM     10  C   LIG    1       27.377 -32.347   7.943  0.00  0.00    +0.110 C 
ATOM     11  C   LIG    1       26.376 -32.611   9.046  0.00  0.00    +0.217 C 
ATOM     12  N   LIG    1       25.301 -31.726   9.193  0.00  0.00    -0.269 N 
ATOM     13  O   LIG    1       26.536 -33.598   9.765  0.00  0.00    -0.276 OA
BRANCH  12  14
ATOM     14  C   LIG    1       24.306 -31.924  10.280  0.00  0.00    +0.128 C 
BRANCH  14  15
ATOM     15  C   LIG    1       22.821 -31.925   9.841  0.00  0.00    +0.112 C 
ATOM     16  C   LIG    1       22.027 -33.190  10.177  0.00  0.00    +0.021 C 
BRANCH  15  17
ATOM     17  C   LIG    1       22.108 -30.707  10.421  0.00  0.00    +0.309 C 
ATOM     18  O   LIG    1       22.629 -29.824  11.064  0.00  0.00    -0.251 OA
BRANCH  17  19
ATOM     19  O   LIG    1       20.770 -30.723  10.185  0.00  0.00    -0.480 OA
ATOM     20  H   LIG    1       20.208 -30.506  10.951  0.00  0.00    +0.295 HD
ENDBRANCH  17  19
ENDBRANCH  15  17
ENDBRANCH  14  15
ENDBRANCH  12  14
ENDBRANCH   1  12
BRANCH   4  21
ATOM     21  N   LIG    1       23.634 -29.232   5.294  0.00  0.00    -0.356 N 
ATOM     22  H   LIG    1       24.017 -29.283   4.354  0.00  0.00    +0.142 HD
ATOM     23  H   LIG    1       22.945 -28.496   5.422  0.00  0.00    +0.142 HD
ENDBRANCH   4  21
TORSDOF 6
ENDMDL
MODEL 2
REMARK VINA RESULT:      -4.8      2.735      4.481
REMARK  Name = *****
REMARK                            x       y       z     vdW  Elec       q    Type
REMARK                         _______ _______ _______ _____ _____    ______ ____
ROOT
ATOM      1  C   LIG    1       24.802 -31.238   8.816  0.00  0.00    +0.064 A 
ATOM      2  C   LIG    1       23.597 -31.969   8.681  0.00  0.00    +0.057 A 
ATOM      3  I   LIG    1       23.221 -33.219   6.986  0.00  0.00    -0.040 I 
ATOM      4  C   LIG    1       22.552 -31.866   9.634  0.00  0.00    +0.053 A 
ATOM      5  C   LIG    1       22.676 -30.909  10.653  0.00  0.00    +0.036 A 
ATOM      6  I   LIG    1       21.121 -30.575  12.031  0.00  0.00    -0.042 I 
ATOM      7  C   LIG    1       23.843 -30.161  10.797  0.00  0.00    +0.032 A 
ATOM      8  C   LIG    1       24.930 -30.393   9.940  0.00  0.00    +0.037 A 
ATOM      9  I   LIG    1       26.741 -29.504  10.539  0.00  0.00    -0.042 I 
ENDROOT
BRANCH   1  12
ATOM     10  C   LIG    1       26.792 -33.293   9.008  0.00  0.00    +0.110 C 
ATOM     11  C   LIG    1       26.771 -32.352   7.822  0.00  0.00    +0.217 C 
ATOM     12  N   LIG    1       25.824 -31.321   7.809  0.00  0.00    -0.269 N 
ATOM     13  O   LIG    1       27.591 -32.522   6.919  0.00  0.00    -0.276 OA
BRANCH  12  14
ATOM     14  C   LIG    1       25.743 -30.389   6.654  0.00  0.00    +0.128 C 
BRANCH  14  15
ATOM     15  C   LIG    1       24.951 -29.080   6.899  0.00  0.00    +0.112 C 
ATOM     16  C   LIG    1       25.785 -27.862   7.304  0.00  0.00    +0.021 C 
BRANCH  15  17
ATOM     17  C   LIG    1       24.117 -28.740   5.668  0.00  0.00    +0.309 C 
ATOM     18  O   LIG    1       24.250 -27.757   4.976  0.00  0.00    -0.251 OA
BRANCH  17  19
ATOM     19  O   LIG    1       23.139 -29.652   5.431  0.00  0.00    -0.480 OA
ATOM     20  H   LIG    1       22.302 -29.500   5.907  0.00  0.00    +0.295 HD
ENDBRANCH  17  19
ENDBRANCH  15  17
ENDBRANCH  14  15
ENDBRANCH  12  14
ENDBRANCH   1  12
BRANCH   4  21
ATOM     21  N   LIG    1       21.570 -32.872   9.733  0.00  0.00    -0.356 N 
ATOM     22  H   LIG    1       21.304 -33.132  10.679  0.00  0.00    +0.142 HD
ATOM     23  H   LIG    1       21.706 -33.662   9.108  0.00  0.00    +0.142 HD
ENDBRANCH   4  21
TORSDOF 6
ENDMDL
MODEL 3
REMARK VINA RESULT:      -4.8      7.633     10.118
REMARK  Name = *****
REMARK                            x       y       z     vdW  Elec       q    Type
REMARK                         _______ _______ _______ _____ _____    ______ ____
ROOT
ATOM      1  C   LIG    1       25.739 -21.065   5.954  0.00  0.00    +0.064 A 
ATOM      2  C   LIG    1       26.199 -20.123   5.003  0.00  0.00    +0.057 A 
ATOM      3  I   LIG    1       25.152 -19.765   3.173  0.00  0.00    -0.040 I 
ATOM      4  C   LIG    1       27.410 -19.408   5.188  0.00  0.00    +0.053 A 
ATOM      5  C   LIG    1       28.226 -19.757   6.276  0.00  0.00    +0.036 A 
ATOM      6  I   LIG    1       30.109 -18.860   6.558  0.00  0.00    -0.042 I 
ATOM      7  C   LIG    1       27.807 -20.697   7.215  0.00  0.00    +0.032 A 
ATOM      8  C   LIG    1       26.534 -21.275   7.103  0.00  0.00    +0.037 A 
ATOM      9  I   LIG    1       25.884 -22.336   8.800  0.00  0.00    -0.042 I 
ENDROOT
BRANCH   1  12
ATOM     10  C   LIG    1       23.210 -19.898   6.631  0.00  0.00    +0.110 C 
ATOM     11  C   LIG    1       23.275 -21.255   5.963  0.00  0.00    +0.217 C 
ATOM     12  N   LIG    1       24.535 -21.814   5.718  0.00  0.00    -0.269 N 
ATOM     13  O   LIG    1       22.221 -21.821   5.670  0.00  0.00    -0.276 OA
BRANCH  12  14
ATOM     14  C   LIG    1       24.655 -23.131   5.038  0.00  0.00    +0.128 C 
BRANCH  14  15
ATOM     15  C   LIG    1       24.810 -24.358   5.969  0.00  0.00    +0.112 C 
ATOM     16  C   LIG    1       23.513 -24.914   6.563  0.00  0.00    +0.021 C 
BRANCH  15  17
ATOM     17  C   LIG    1       25.554 -25.472   5.240  0.00  0.00    +0.309 C 
ATOM     18  O   LIG    1       25.214 -25.982   4.197  0.00  0.00    -0.251 OA
BRANCH  17  19
ATOM     19  O   LIG    1       26.655 -25.894   5.914  0.00  0.00    -0.480 OA
ATOM     20  H   LIG    1       27.507 -25.715   5.476  0.00  0.00    +0.295 HD
ENDBRANCH  17  19
ENDBRANCH  15  17
ENDBRANCH  14  15
ENDBRANCH  12  14
ENDBRANCH   1  12
BRANCH   4  21
ATOM     21  N   LIG    1       27.648 -18.207   4.490  0.00  0.00    -0.356 N 
ATOM     22  H   LIG    1       28.156 -18.303   3.615  0.00  0.00    +0.142 HD
ATOM     23  H   LIG    1       27.961 -17.433   5.070  0.00  0.00    +0.142 HD
ENDBRANCH   4  21
TORSDOF 6
ENDMDL
MODEL 4
REMARK VINA RESULT:      -4.6      3.323      4.916
REMARK  Name = *****
REMARK                            x       y       z     vdW  Elec       q    Type
REMARK                         _______ _______ _______ _____ _____    ______ ____
ROOT
ATOM      1  C   LIG    1       24.069 -30.043  10.911  0.00  0.00    +0.064 A 
ATOM      2  C   LIG    1       22.868 -29.814  11.626  0.00  0.00    +0.057 A 
ATOM      3  I   LIG    1       21.047 -30.815  11.119  0.00  0.00    -0.040 I 
ATOM      4  C   LIG    1       22.796 -28.865  12.677  0.00  0.00    +0.053 A 
ATOM      5  C   LIG    1       23.913 -28.046  12.909  0.00  0.00    +0.036 A 
ATOM      6  I   LIG    1       23.858 -26.510  14.346  0.00  0.00    -0.042 I 
ATOM      7  C   LIG    1       25.100 -28.236  12.206  0.00  0.00    +0.032 A 
ATOM      8  C   LIG    1       25.204 -29.287  11.282  0.00  0.00    +0.037 A 
ATOM      9  I   LIG    1       27.158 -29.707  10.624  0.00  0.00    -0.042 I 
ENDROOT
BRANCH   1  12
ATOM     10  C   LIG    1       24.801 -32.769  11.411  0.00  0.00    +0.110 C 
ATOM     11  C   LIG    1       24.381 -32.329  10.026  0.00  0.00    +0.217 C 
ATOM     12  N   LIG    1       24.103 -30.973   9.816  0.00  0.00    -0.269 N 
ATOM     13  O   LIG    1       24.310 -33.174   9.133  0.00  0.00    -0.276 OA
BRANCH  12  14
ATOM     14  C   LIG    1       23.659 -30.493   8.481  0.00  0.00    +0.128 C 
BRANCH  14  15
ATOM     15  C   LIG    1       24.777 -29.973   7.545  0.00  0.00    +0.112 C 
ATOM     16  C   LIG    1       25.613 -31.047   6.844  0.00  0.00    +0.021 C 
BRANCH  15  17
ATOM     17  C   LIG    1       24.186 -29.029   6.504  0.00  0.00    +0.309 C 
ATOM     18  O   LIG    1       24.410 -27.843   6.418  0.00  0.00    -0.251 OA
BRANCH  17  19
ATOM     19  O   LIG    1       23.310 -29.651   5.672  0.00  0.00    -0.480 OA
ATOM     20  H   LIG    1       23.219 -29.252   4.787  0.00  0.00    +0.295 HD
ENDBRANCH  17  19
ENDBRANCH  15  17
ENDBRANCH  14  15
ENDBRANCH  12  14
ENDBRANCH   1  12
BRANCH   4  21
ATOM     21  N   LIG    1       21.767 -28.935  13.637  0.00  0.00    -0.356 N 
ATOM     22  H   LIG    1       21.851 -28.288  14.416  0.00  0.00    +0.142 HD
ATOM     23  H   LIG    1       21.502 -29.879  13.907  0.00  0.00    +0.142 HD
ENDBRANCH   4  21
TORSDOF 6
ENDMDL
MODEL 5
REMARK VINA RESULT:      -4.6      3.279      5.021
REMARK  Name = *****
REMARK                            x       y       z     vdW  Elec       q    Type
REMARK                         _______ _______ _______ _____ _____    ______ ____
ROOT
ATOM      1  C   LIG    1       23.966 -30.412  11.783  0.00  0.00    +0.064 A 
ATOM      2  C   LIG    1       22.584 -30.533  11.498  0.00  0.00    +0.057 A 
ATOM      3  I   LIG    1       21.827 -32.076  10.225  0.00  0.00    -0.040 I 
ATOM      4  C   LIG    1       21.637 -29.602  11.996  0.00  0.00    +0.053 A 
ATOM      5  C   LIG    1       22.114 -28.466  12.668  0.00  0.00    +0.036 A 
ATOM      6  I   LIG    1       20.803 -26.953  13.318  0.00  0.00    -0.042 I 
ATOM      7  C   LIG    1       23.471 -28.312  12.943  0.00  0.00    +0.032 A 
ATOM      8  C   LIG    1       24.375 -29.323  12.584  0.00  0.00    +0.037 A 
ATOM      9  I   LIG    1       26.293 -29.146  13.431  0.00  0.00    -0.042 I 
ENDROOT
BRANCH   1  12
ATOM     10  C   LIG    1       24.577 -32.822  13.211  0.00  0.00    +0.110 C 
ATOM     11  C   LIG    1       25.184 -32.562  11.849  0.00  0.00    +0.217 C 
ATOM     12  N   LIG    1       24.912 -31.339  11.224  0.00  0.00    -0.269 N 
ATOM     13  O   LIG    1       25.900 -33.428  11.347  0.00  0.00    -0.276 OA
BRANCH  12  14
ATOM     14  C   LIG    1       25.460 -31.046   9.874  0.00  0.00    +0.128 C 
BRANCH  14  15
ATOM     15  C   LIG    1       25.316 -29.582   9.391  0.00  0.00    +0.112 C 
ATOM     16  C   LIG    1       26.582 -28.724   9.477  0.00  0.00    +0.021 C 
BRANCH  15  17
ATOM     17  C   LIG    1       24.779 -29.556   7.964  0.00  0.00    +0.309 C 
ATOM     18  O   LIG    1       23.741 -30.052   7.592  0.00  0.00    -0.251 OA
BRANCH  17  19
ATOM     19  O   LIG    1       25.627 -28.941   7.098  0.00  0.00    -0.480 OA
ATOM     20  H   LIG    1       25.280 -28.811   6.196  0.00  0.00    +0.295 HD
ENDBRANCH  17  19
ENDBRANCH  15  17
ENDBRANCH  14  15
ENDBRANCH  12  14
ENDBRANCH   1  12
BRANCH   4  21
ATOM     21  N   LIG    1       20.272 -29.942  12.074  0.00  0.00    -0.356 N 
ATOM     22  H   LIG    1       20.053 -30.919  11.900  0.00  0.00    +0.142 HD
ATOM     23  H   LIG    1       19.644 -29.287  11.615  0.00  0.00    +0.142 HD
ENDBRANCH   4  21
TORSDOF 6
ENDMDL
MODEL 6
REMARK VINA RESULT:      -4.5      3.225      5.112
REMARK  Name = *****
REMARK                            x       y       z     vdW  Elec       q    Type
REMARK                         _______ _______ _______ _____ _____    ______ ____
ROOT
ATOM      1  C   LIG    1       24.015 -30.118  10.870  0.00  0.00    +0.064 A 
ATOM      2  C   LIG    1       25.132 -29.344  11.269  0.00  0.00    +0.057 A 
ATOM      3  I   LIG    1       27.052 -29.585  10.357  0.00  0.00    -0.040 I 
ATOM      4  C   LIG    1       25.050 -28.410  12.332  0.00  0.00    +0.053 A 
ATOM      5  C   LIG    1       23.866 -28.365  13.085  0.00  0.00    +0.036 A 
ATOM      6  I   LIG    1       23.694 -27.119  14.773  0.00  0.00    -0.042 I 
ATOM      7  C   LIG    1       22.758 -29.131  12.728  0.00  0.00    +0.032 A 
ATOM      8  C   LIG    1       22.805 -29.929  11.576  0.00  0.00    +0.037 A 
ATOM      9  I   LIG    1       20.947 -30.684  10.938  0.00  0.00    -0.042 I 
ENDROOT
BRANCH   1  12
ATOM     10  C   LIG    1       24.913 -32.762  11.522  0.00  0.00    +0.110 C 
ATOM     11  C   LIG    1       24.500 -32.418  10.107  0.00  0.00    +0.217 C 
ATOM     12  N   LIG    1       24.138 -31.096   9.824  0.00  0.00    -0.269 N 
ATOM     13  O   LIG    1       24.508 -33.309   9.257  0.00  0.00    -0.276 OA
BRANCH  12  14
ATOM     14  C   LIG    1       23.696 -30.712   8.457  0.00  0.00    +0.128 C 
BRANCH  14  15
ATOM     15  C   LIG    1       24.800 -30.159   7.523  0.00  0.00    +0.112 C 
ATOM     16  C   LIG    1       25.602 -31.206   6.745  0.00  0.00    +0.021 C 
BRANCH  15  17
ATOM     17  C   LIG    1       24.198 -29.153   6.548  0.00  0.00    +0.309 C 
ATOM     18  O   LIG    1       24.439 -27.967   6.519  0.00  0.00    -0.251 OA
BRANCH  17  19
ATOM     19  O   LIG    1       23.293 -29.717   5.706  0.00  0.00    -0.480 OA
ATOM     20  H   LIG    1       22.713 -30.389   6.107  0.00  0.00    +0.295 HD
ENDBRANCH  17  19
ENDBRANCH  15  17
ENDBRANCH  14  15
ENDBRANCH  12  14
ENDBRANCH   1  12
BRANCH   4  21
ATOM     21  N   LIG    1       25.994 -27.371  12.448  0.00  0.00    -0.356 N 
ATOM     22  H   LIG    1       26.966 -27.665  12.486  0.00  0.00    +0.142 HD
ATOM     23  H   LIG    1       25.752 -26.649  13.122  0.00  0.00    +0.142 HD
ENDBRANCH   4  21
TORSDOF 6
ENDMDL
MODEL 7
REMARK VINA RESULT:      -4.4      3.493      5.702
REMARK  Name = *****
REMARK                            x       y       z     vdW  Elec       q    Type
REMARK                         _______ _______ _______ _____ _____    ______ ____
ROOT
ATOM      1  C   LIG    1       24.025 -29.987  12.028  0.00  0.00    +0.064 A 
ATOM      2  C   LIG    1       24.364 -28.812  12.742  0.00  0.00    +0.057 A 
ATOM      3  I   LIG    1       26.363 -28.435  13.404  0.00  0.00    -0.040 I 
ATOM      4  C   LIG    1       23.386 -27.853  13.106  0.00  0.00    +0.053 A 
ATOM      5  C   LIG    1       22.037 -28.158  12.865  0.00  0.00    +0.036 A 
ATOM      6  I   LIG    1       20.498 -26.868  13.498  0.00  0.00    -0.042 I 
ATOM      7  C   LIG    1       21.673 -29.317  12.183  0.00  0.00    +0.032 A 
ATOM      8  C   LIG    1       22.666 -30.175  11.688  0.00  0.00    +0.037 A 
ATOM      9  I   LIG    1       21.988 -31.636  10.333  0.00  0.00    -0.042 I 
ENDROOT
BRANCH   1  12
ATOM     10  C   LIG    1       24.443 -32.180  13.826  0.00  0.00    +0.110 C 
ATOM     11  C   LIG    1       25.213 -32.096  12.527  0.00  0.00    +0.217 C 
ATOM     12  N   LIG    1       25.027 -30.969  11.716  0.00  0.00    -0.269 N 
ATOM     13  O   LIG    1       25.982 -33.013  12.235  0.00  0.00    -0.276 OA
BRANCH  12  14
ATOM     14  C   LIG    1       25.738 -30.852  10.416  0.00  0.00    +0.128 C 
BRANCH  14  15
ATOM     15  C   LIG    1       25.431 -29.576   9.593  0.00  0.00    +0.112 C 
ATOM     16  C   LIG    1       26.556 -28.541   9.523  0.00  0.00    +0.021 C 
BRANCH  15  17
ATOM     17  C   LIG    1       25.004 -29.961   8.180  0.00  0.00    +0.309 C 
ATOM     18  O   LIG    1       23.901 -29.805   7.709  0.00  0.00    -0.251 OA
BRANCH  17  19
ATOM     19  O   LIG    1       26.000 -30.562   7.479  0.00  0.00    -0.480 OA
ATOM     20  H   LIG    1       26.163 -31.497   7.703  0.00  0.00    +0.295 HD
ENDBRANCH  17  19
ENDBRANCH  15  17
ENDBRANCH  14  15
ENDBRANCH  12  14
ENDBRANCH   1  12
BRANCH   4  21
ATOM     21  N   LIG    1       23.760 -26.532  13.423  0.00  0.00    -0.356 N 
ATOM     22  H   LIG    1       23.530 -26.226  14.364  0.00  0.00    +0.142 HD
ATOM     23  H   LIG    1       23.554 -25.847  12.701  0.00  0.00    +0.142 HD
ENDBRANCH   4  21
TORSDOF 6
ENDMDL
MODEL 8
REMARK VINA RESULT:      -4.3      3.832      5.322
REMARK  Name = *****
REMARK                            x       y       z     vdW  Elec       q    Type
REMARK                         _______ _______ _______ _____ _____    ______ ____
ROOT
ATOM      1  C   LIG    1       24.739 -29.121  12.011  0.00  0.00    +0.064 A 
ATOM      2  C   LIG    1       23.644 -28.534  12.691  0.00  0.00    +0.057 A 
ATOM      3  I   LIG    1       21.670 -29.346  12.558  0.00  0.00    -0.040 I 
ATOM      4  C   LIG    1       23.789 -27.344  13.447  0.00  0.00    +0.053 A 
ATOM      5  C   LIG    1       25.020 -26.671  13.397  0.00  0.00    +0.036 A 
ATOM      6  I   LIG    1       25.293 -24.822  14.365  0.00  0.00    -0.042 I 
ATOM      7  C   LIG    1       26.108 -27.216  12.719  0.00  0.00    +0.032 A 
ATOM      8  C   LIG    1       25.992 -28.475  12.111  0.00  0.00    +0.037 A 
ATOM      9  I   LIG    1       27.810 -29.343  11.503  0.00  0.00    -0.042 I 
ENDROOT
BRANCH   1  12
ATOM     10  C   LIG    1       25.123 -31.700  13.204  0.00  0.00    +0.110 C 
ATOM     11  C   LIG    1       24.659 -31.579  11.768  0.00  0.00    +0.217 C 
ATOM     12  N   LIG    1       24.556 -30.300  11.209  0.00  0.00    -0.269 N 
ATOM     13  O   LIG    1       24.401 -32.608  11.142  0.00  0.00    -0.276 OA
BRANCH  12  14
ATOM     14  C   LIG    1       24.078 -30.125   9.813  0.00  0.00    +0.128 C 
BRANCH  14  15
ATOM     15  C   LIG    1       25.178 -29.901   8.747  0.00  0.00    +0.112 C 
ATOM     16  C   LIG    1       26.058 -31.113   8.431  0.00  0.00    +0.021 C 
BRANCH  15  17
ATOM     17  C   LIG    1       24.553 -29.377   7.458  0.00  0.00    +0.309 C 
ATOM     18  O   LIG    1       24.769 -28.296   6.957  0.00  0.00    -0.251 OA
BRANCH  17  19
ATOM     19  O   LIG    1       23.658 -30.246   6.920  0.00  0.00    -0.480 OA
ATOM     20  H   LIG    1       23.206 -29.934   6.115  0.00  0.00    +0.295 HD
ENDBRANCH  17  19
ENDBRANCH  15  17
ENDBRANCH  14  15
ENDBRANCH  12  14
ENDBRANCH   1  12
BRANCH   4  21
ATOM     21  N   LIG    1       22.844 -27.004  14.436  0.00  0.00    -0.356 N 
ATOM     22  H   LIG    1       23.175 -26.368  15.156  0.00  0.00    +0.142 HD
ATOM     23  H   LIG    1       22.299 -27.786  14.790  0.00  0.00    +0.142 HD
ENDBRANCH   4  21
TORSDOF 6
ENDMDL
MODEL 9
REMARK VINA RESULT:      -4.2      3.234      4.626
REMARK  Name = *****
REMARK                            x       y       z     vdW  Elec       q    Type
REMARK                         _______ _______ _______ _____ _____    ______ ____
ROOT
ATOM      1  C   LIG    1       24.118 -30.003  11.254  0.00  0.00    +0.064 A 
ATOM      2  C   LIG    1       25.284 -29.415  10.708  0.00  0.00    +0.057 A 
ATOM      3  I   LIG    1       26.736 -28.439  11.939  0.00  0.00    -0.040 I 
ATOM      4  C   LIG    1       25.522 -29.391   9.310  0.00  0.00    +0.053 A 
ATOM      5  C   LIG    1       24.503 -29.842   8.456  0.00  0.00    +0.036 A 
ATOM      6  I   LIG    1       24.697 -29.715   6.364  0.00  0.00    -0.042 I 
ATOM      7  C   LIG    1       23.336 -30.406   8.967  0.00  0.00    +0.032 A 
ATOM      8  C   LIG    1       23.188 -30.569  10.352  0.00  0.00    +0.037 A 
ATOM      9  I   LIG    1       21.588 -31.803  10.940  0.00  0.00    -0.042 I 
ENDROOT
BRANCH   1  12
ATOM     10  C   LIG    1       24.990 -32.199  12.878  0.00  0.00    +0.110 C 
ATOM     11  C   LIG    1       24.350 -30.982  13.511  0.00  0.00    +0.217 C 
ATOM     12  N   LIG    1       23.875 -29.968  12.670  0.00  0.00    -0.269 N 
ATOM     13  O   LIG    1       24.260 -30.933  14.738  0.00  0.00    -0.276 OA
BRANCH  12  14
ATOM     14  C   LIG    1       23.264 -28.740  13.243  0.00  0.00    +0.128 C 
BRANCH  14  15
ATOM     15  C   LIG    1       21.747 -28.562  12.990  0.00  0.00    +0.112 C 
ATOM     16  C   LIG    1       20.818 -29.299  13.958  0.00  0.00    +0.021 C 
BRANCH  15  17
ATOM     17  C   LIG    1       21.394 -27.078  12.977  0.00  0.00    +0.309 C 
ATOM     18  O   LIG    1       22.166 -26.167  13.176  0.00  0.00    -0.251 OA
BRANCH  17  19
ATOM     19  O   LIG    1       20.072 -26.857  12.760  0.00  0.00    -0.480 OA
ATOM     20  H   LIG    1       19.733 -26.002  13.082  0.00  0.00    +0.295 HD
ENDBRANCH  17  19
ENDBRANCH  15  17
ENDBRANCH  14  15
ENDBRANCH  12  14
ENDBRANCH   1  12
BRANCH   4  21
ATOM     21  N   LIG    1       26.825 -29.202   8.808  0.00  0.00    -0.356 N 
ATOM     22  H   LIG    1       27.153 -28.241   8.794  0.00  0.00    +0.142 HD
ATOM     23  H   LIG    1       27.034 -29.725   7.961  0.00  0.00    +0.142 HD
ENDBRANCH   4  21
TORSDOF 6
ENDMDL
