MODEL 1
REMARK VINA RESULT:       0.2      0.000      0.000
REMARK  Name = *****
REMARK                            x       y       z     vdW  Elec       q    Type
REMARK                         _______ _______ _______ _____ _____    ______ ____
ROOT
ATOM      1  C   LIG    1       24.807 -16.234   3.776  0.00  0.00    +0.051 C 
ATOM      2  C   LIG    1       24.958 -17.616   3.742  0.00  0.00    -0.012 C 
ATOM      3  C   LIG    1       26.184 -18.456   3.467  0.00  0.00    +0.056 C 
ATOM      4  C   LIG    1       26.420 -19.629   4.443  0.00  0.00    +0.109 C 
ATOM      5  N   LIG    1       25.211 -20.249   4.975  0.00  0.00    -0.311 N 
ATOM      6  H   LIG    1       24.854 -19.683   5.736  0.00  0.00    +0.149 HD
ATOM      7  C   LIG    1       24.217 -20.568   4.057  0.00  0.00    +0.245 C 
ATOM      8  C   LIG    1       23.185 -19.518   3.953  0.00  0.00    +0.049 C 
ATOM      9  C   LIG    1       21.820 -19.795   3.958  0.00  0.00    +0.052 C 
ATOM     10  C   LIG    1       20.926 -18.730   3.957  0.00  0.00    +0.126 C 
ATOM     11  F   LIG    1       19.612 -18.990   3.982  0.00  0.00    -0.205 F 
ATOM     12  C   LIG    1       21.345 -17.391   3.955  0.00  0.00    +0.064 C 
ATOM     13  C   LIG    1       22.724 -17.150   3.913  0.00  0.00    +0.051 C 
ATOM     14  O   LIG    1       24.195 -21.572   3.362  0.00  0.00    -0.270 OA
ATOM     15  C   LIG    1       23.648 -18.183   3.884  0.00  0.00    +0.016 C 
ATOM     16  N   LIG    1       23.449 -15.985   3.892  0.00  0.00    -0.354 NA
ATOM     17  H   LIG    1       23.043 -15.060   3.933  0.00  0.00    +0.166 HD
ENDROOT
BRANCH   1  21
ATOM     18  C   LIG    1       27.668 -13.043   3.470  0.00  0.00    -0.034 A 
ATOM     19  C   LIG    1       28.084 -14.351   3.740  0.00  0.00    +0.005 A 
ATOM     20  C   LIG    1       27.150 -15.388   3.845  0.00  0.00    +0.010 A 
ATOM     21  C   LIG    1       25.779 -15.142   3.679  0.00  0.00    -0.001 A 
ATOM     22  C   LIG    1       25.366 -13.833   3.405  0.00  0.00    +0.010 A 
ATOM     23  C   LIG    1       26.297 -12.794   3.312  0.00  0.00    +0.005 A 
BRANCH  18  24
ATOM     24  C   LIG    1       28.671 -11.915   3.384  0.00  0.00    +0.116 C 
BRANCH  24  26
ATOM     25  C   LIG    1       28.683 -12.210   5.772  0.00  0.00    +0.101 C 
ATOM     26  N   LIG    1       29.465 -11.814   4.610  0.00  0.00    -0.315 NA
ATOM     27  H   LIG    1       30.277 -12.424   4.523  0.00  0.00    +0.122 HD
ENDBRANCH  24  26
ENDBRANCH  18  24
ENDBRANCH   1  21
TORSDOF 3
ENDMDL
MODEL 2
REMARK VINA RESULT:       3.1      3.697      7.799
REMARK  Name = *****
REMARK                            x       y       z     vdW  Elec       q    Type
REMARK                         _______ _______ _______ _____ _____    ______ ____
ROOT
ATOM      1  C   LIG    1       25.047 -16.570   3.930  0.00  0.00    +0.051 C 
ATOM      2  C   LIG    1       24.582 -15.292   3.643  0.00  0.00    -0.012 C 
ATOM      3  C   LIG    1       23.179 -14.805   3.362  0.00  0.00    +0.056 C 
ATOM      4  C   LIG    1       22.759 -13.520   4.109  0.00  0.00    +0.109 C 
ATOM      5  N   LIG    1       23.831 -12.563   4.353  0.00  0.00    -0.311 N 
ATOM      6  H   LIG    1       24.367 -12.861   5.160  0.00  0.00    +0.149 HD
ATOM      7  C   LIG    1       24.651 -12.255   3.272  0.00  0.00    +0.245 C 
ATOM      8  C   LIG    1       25.885 -13.066   3.250  0.00  0.00    +0.049 C 
ATOM      9  C   LIG    1       27.146 -12.519   3.030  0.00  0.00    +0.052 C 
ATOM     10  C   LIG    1       28.257 -13.349   3.128  0.00  0.00    +0.126 C 
ATOM     11  F   LIG    1       29.475 -12.824   2.936  0.00  0.00    -0.205 F 
ATOM     12  C   LIG    1       28.156 -14.713   3.443  0.00  0.00    +0.064 C 
ATOM     13  C   LIG    1       26.870 -15.237   3.622  0.00  0.00    +0.051 C 
ATOM     14  O   LIG    1       24.390 -11.447   2.396  0.00  0.00    -0.270 OA
ATOM     15  C   LIG    1       25.735 -14.449   3.505  0.00  0.00    +0.016 C 
ATOM     16  N   LIG    1       26.431 -16.502   3.923  0.00  0.00    -0.354 NA
ATOM     17  H   LIG    1       27.039 -17.291   4.094  0.00  0.00    +0.166 HD
ENDROOT
BRANCH   1  21
ATOM     18  C   LIG    1       22.971 -20.268   4.626  0.00  0.00    -0.034 A 
ATOM     19  C   LIG    1       22.414 -19.049   5.029  0.00  0.00    +0.005 A 
ATOM     20  C   LIG    1       23.094 -17.847   4.807  0.00  0.00    +0.010 A 
ATOM     21  C   LIG    1       24.345 -17.834   4.173  0.00  0.00    -0.001 A 
ATOM     22  C   LIG    1       24.899 -19.054   3.767  0.00  0.00    +0.010 A 
ATOM     23  C   LIG    1       24.226 -20.257   4.000  0.00  0.00    +0.005 A 
BRANCH  18  24
ATOM     24  C   LIG    1       22.252 -21.571   4.890  0.00  0.00    +0.116 C 
BRANCH  24  26
ATOM     25  C   LIG    1       20.581 -20.287   3.730  0.00  0.00    +0.101 C 
ATOM     26  N   LIG    1       20.841 -21.487   4.511  0.00  0.00    -0.315 NA
ATOM     27  H   LIG    1       20.603 -22.310   3.959  0.00  0.00    +0.122 HD
ENDBRANCH  24  26
ENDBRANCH  18  24
ENDBRANCH   1  21
TORSDOF 3
ENDMDL
