MODEL 1
REMARK VINA RESULT:      -6.4      0.000      0.000
REMARK  Name = *****
REMARK                            x       y       z     vdW  Elec       q    Type
REMARK                         _______ _______ _______ _____ _____    ______ ____
ROOT
ATOM      1  C   LIG    1       27.554 -20.075   6.568  0.00  0.00    +0.122 C 
ENDROOT
BRANCH   1   2
ATOM      2  C   LIG    1       29.015 -20.107   7.163  0.00  0.00    +0.172 C 
ATOM      3  C   LIG    1       29.372 -21.517   7.679  0.00  0.00    +0.176 C 
ATOM      4  C   LIG    1       30.785 -21.541   8.269  0.00  0.00    +0.177 C 
ATOM      5  C   LIG    1       30.941 -20.476   9.358  0.00  0.00    +0.184 C 
ATOM      6  C   LIG    1       30.428 -19.090   8.883  0.00  0.00    +0.207 C 
ATOM      7  O   LIG    1       29.109 -19.197   8.291  0.00  0.00    -0.356 OA
BRANCH   3   8
ATOM      8  O   LIG    1       28.471 -21.923   8.731  0.00  0.00    -0.387 OA
ATOM      9  H   LIG    1       27.709 -22.373   8.316  0.00  0.00    +0.210 HD
ENDBRANCH   3   8
BRANCH   4  10
ATOM     10  O   LIG    1       31.043 -22.827   8.867  0.00  0.00    -0.387 OA
ATOM     11  H   LIG    1       30.614 -22.804   9.748  0.00  0.00    +0.210 HD
ENDBRANCH   4  10
BRANCH   5  12
ATOM     12  O   LIG    1       32.282 -20.478   9.861  0.00  0.00    -0.386 OA
ATOM     13  H   LIG    1       32.783 -19.870   9.280  0.00  0.00    +0.210 HD
ENDBRANCH   5  12
BRANCH   6  14
ATOM     14  S   LIG    1       31.567 -18.134   7.807  0.00  0.00    -0.131 S 
ATOM     15  C   LIG    1       32.206 -16.951   9.031  0.00  0.00    +0.087 C 
ENDBRANCH   6  14
ENDBRANCH   1   2
BRANCH   1  17
ATOM     16  C   LIG    1       25.658 -21.443   7.547  0.00  0.00    +0.231 C 
ATOM     17  N   LIG    1       26.833 -21.361   6.801  0.00  0.00    -0.307 N 
ATOM     18  H   LIG    1       27.229 -22.230   6.462  0.00  0.00    +0.149 HD
ATOM     19  O   LIG    1       25.175 -20.469   8.094  0.00  0.00    -0.274 OA
BRANCH  16  24
ATOM     20  C   LIG    1       25.053 -24.891   6.242  0.00  0.00    +0.005 C 
ATOM     21  C   LIG    1       23.635 -24.469   6.623  0.00  0.00    +0.088 C 
ATOM     22  N   LIG    1       23.715 -23.016   6.915  0.00  0.00    -0.294 NA
ATOM     23  C   LIG    1       23.635 -22.255   5.663  0.00  0.00    +0.105 C 
ATOM     24  C   LIG    1       25.020 -22.866   7.630  0.00  0.00    +0.143 C 
ATOM     25  C   LIG    1       25.934 -23.983   7.104  0.00  0.00    +0.033 C 
BRANCH  20  26
ATOM     26  C   LIG    1       25.316 -26.393   6.428  0.00  0.00    +0.004 C 
BRANCH  26  28
ATOM     27  C   LIG    1       24.360 -28.718   6.092  0.00  0.00    +0.004 C 
ATOM     28  C   LIG    1       24.343 -27.268   5.628  0.00  0.00    -0.003 C 
ENDBRANCH  26  28
ENDBRANCH  20  26
ENDBRANCH  16  24
ENDBRANCH   1  17
BRANCH   1  29
ATOM     29  C   LIG    1       27.505 -19.567   5.083  0.00  0.00    +0.100 C 
ATOM     30  C   LIG    1       28.182 -18.208   4.871  0.00  0.00    +0.026 C 
ATOM     31 CL   LIG    1       25.838 -19.508   4.427  0.00  0.00    -0.120 Cl
ENDBRANCH   1  29
TORSDOF 10
ENDMDL
MODEL 2
REMARK VINA RESULT:      -6.1      2.283      3.769
REMARK  Name = *****
REMARK                            x       y       z     vdW  Elec       q    Type
REMARK                         _______ _______ _______ _____ _____    ______ ____
ROOT
ATOM      1  C   LIG    1       25.293 -21.397   6.410  0.00  0.00    +0.122 C 
ENDROOT
BRANCH   1   2
ATOM      2  C   LIG    1       26.690 -20.713   6.674  0.00  0.00    +0.172 C 
ATOM      3  C   LIG    1       27.008 -19.665   5.587  0.00  0.00    +0.176 C 
ATOM      4  C   LIG    1       28.371 -19.014   5.837  0.00  0.00    +0.177 C 
ATOM      5  C   LIG    1       29.471 -20.073   5.950  0.00  0.00    +0.184 C 
ATOM      6  C   LIG    1       29.073 -21.211   6.927  0.00  0.00    +0.207 C 
ATOM      7  O   LIG    1       27.745 -21.711   6.634  0.00  0.00    -0.356 OA
BRANCH   3   8
ATOM      8  O   LIG    1       27.070 -20.280   4.283  0.00  0.00    -0.387 OA
ATOM      9  H   LIG    1       27.452 -19.629   3.662  0.00  0.00    +0.210 HD
ENDBRANCH   3   8
BRANCH   4  10
ATOM     10  O   LIG    1       28.706 -18.142   4.739  0.00  0.00    -0.387 OA
ATOM     11  H   LIG    1       29.626 -17.846   4.902  0.00  0.00    +0.210 HD
ENDBRANCH   4  10
BRANCH   5  12
ATOM     12  O   LIG    1       30.729 -19.450   6.236  0.00  0.00    -0.386 OA
ATOM     13  H   LIG    1       30.509 -18.599   6.669  0.00  0.00    +0.210 HD
ENDBRANCH   5  12
BRANCH   6  14
ATOM     14  S   LIG    1       29.267 -20.843   8.716  0.00  0.00    -0.131 S 
ATOM     15  C   LIG    1       30.831 -21.715   9.029  0.00  0.00    +0.087 C 
ENDBRANCH   6  14
ENDBRANCH   1   2
BRANCH   1  17
ATOM     16  C   LIG    1       24.587 -23.809   6.082  0.00  0.00    +0.231 C 
ATOM     17  N   LIG    1       25.445 -22.748   5.795  0.00  0.00    -0.307 N 
ATOM     18  H   LIG    1       26.233 -22.940   5.187  0.00  0.00    +0.149 HD
ATOM     19  O   LIG    1       23.685 -23.704   6.893  0.00  0.00    -0.274 OA
BRANCH  16  24
ATOM     20  C   LIG    1       24.750 -27.529   5.791  0.00  0.00    +0.005 C 
ATOM     21  C   LIG    1       26.089 -27.129   5.176  0.00  0.00    +0.088 C 
ATOM     22  N   LIG    1       26.248 -25.683   5.472  0.00  0.00    -0.294 NA
ATOM     23  C   LIG    1       26.789 -25.512   6.826  0.00  0.00    +0.105 C 
ATOM     24  C   LIG    1       24.871 -25.128   5.296  0.00  0.00    +0.143 C 
ATOM     25  C   LIG    1       23.898 -26.267   5.632  0.00  0.00    +0.033 C 
BRANCH  20  26
ATOM     26  C   LIG    1       24.139 -28.791   5.161  0.00  0.00    +0.004 C 
BRANCH  26  28
ATOM     27  C   LIG    1       24.439 -29.547   7.563  0.00  0.00    +0.004 C 
ATOM     28  C   LIG    1       24.028 -29.954   6.155  0.00  0.00    -0.003 C 
ENDBRANCH  26  28
ENDBRANCH  20  26
ENDBRANCH  16  24
ENDBRANCH   1  17
BRANCH   1  29
ATOM     29  C   LIG    1       24.280 -20.457   5.663  0.00  0.00    +0.100 C 
ATOM     30  C   LIG    1       22.946 -20.278   6.396  0.00  0.00    +0.026 C 
ATOM     31 CL   LIG    1       23.965 -20.981   3.978  0.00  0.00    -0.120 Cl
ENDBRANCH   1  29
TORSDOF 10
ENDMDL
MODEL 3
REMARK VINA RESULT:      -5.7      9.260     11.432
REMARK  Name = *****
REMARK                            x       y       z     vdW  Elec       q    Type
REMARK                         _______ _______ _______ _____ _____    ______ ____
ROOT
ATOM      1  C   LIG    1       26.089 -30.277   9.603  0.00  0.00    +0.122 C 
ENDROOT
BRANCH   1   2
ATOM      2  C   LIG    1       25.809 -30.778   8.134  0.00  0.00    +0.172 C 
ATOM      3  C   LIG    1       24.617 -30.023   7.510  0.00  0.00    +0.176 C 
ATOM      4  C   LIG    1       24.338 -30.522   6.088  0.00  0.00    +0.177 C 
ATOM      5  C   LIG    1       24.125 -32.038   6.074  0.00  0.00    +0.184 C 
ATOM      6  C   LIG    1       25.248 -32.782   6.846  0.00  0.00    +0.207 C 
ATOM      7  O   LIG    1       25.465 -32.190   8.150  0.00  0.00    -0.356 OA
BRANCH   3   8
ATOM      8  O   LIG    1       23.413 -30.240   8.275  0.00  0.00    -0.387 OA
ATOM      9  H   LIG    1       22.650 -30.125   7.673  0.00  0.00    +0.210 HD
ENDBRANCH   3   8
BRANCH   4  10
ATOM     10  O   LIG    1       23.140 -29.902   5.579  0.00  0.00    -0.387 OA
ATOM     11  H   LIG    1       22.869 -30.438   4.804  0.00  0.00    +0.210 HD
ENDBRANCH   4  10
BRANCH   5  12
ATOM     12  O   LIG    1       23.918 -32.494   4.732  0.00  0.00    -0.386 OA
ATOM     13  H   LIG    1       22.949 -32.471   4.592  0.00  0.00    +0.210 HD
ENDBRANCH   5  12
BRANCH   6  14
ATOM     14  S   LIG    1       26.831 -33.011   5.945  0.00  0.00    -0.131 S 
ATOM     15  C   LIG    1       27.799 -33.825   7.251  0.00  0.00    +0.087 C 
ENDBRANCH   6  14
ENDBRANCH   1   2
BRANCH   1  17
ATOM     16  C   LIG    1       24.510 -31.233  11.340  0.00  0.00    +0.231 C 
ATOM     17  N   LIG    1       24.842 -30.237  10.422  0.00  0.00    -0.307 N 
ATOM     18  H   LIG    1       24.167 -29.496  10.278  0.00  0.00    +0.149 HD
ATOM     19  O   LIG    1       25.201 -32.223  11.493  0.00  0.00    -0.274 OA
BRANCH  16  24
ATOM     20  C   LIG    1       22.075 -29.034  13.127  0.00  0.00    +0.005 C 
ATOM     21  C   LIG    1       22.209 -30.189  14.118  0.00  0.00    +0.088 C 
ATOM     22  N   LIG    1       23.350 -31.003  13.631  0.00  0.00    -0.294 NA
ATOM     23  C   LIG    1       24.611 -30.418  14.102  0.00  0.00    +0.105 C 
ATOM     24  C   LIG    1       23.194 -30.986  12.144  0.00  0.00    +0.143 C 
ATOM     25  C   LIG    1       22.499 -29.662  11.796  0.00  0.00    +0.033 C 
BRANCH  20  26
ATOM     26  C   LIG    1       20.676 -28.398  13.112  0.00  0.00    +0.004 C 
BRANCH  26  28
ATOM     27  C   LIG    1       22.139 -26.335  13.298  0.00  0.00    +0.004 C 
ATOM     28  C   LIG    1       20.724 -26.865  13.115  0.00  0.00    -0.003 C 
ENDBRANCH  26  28
ENDBRANCH  20  26
ENDBRANCH  16  24
ENDBRANCH   1  17
BRANCH   1  29
ATOM     29  C   LIG    1       26.936 -28.955   9.651  0.00  0.00    +0.100 C 
ATOM     30  C   LIG    1       26.930 -28.266  11.020  0.00  0.00    +0.026 C 
ATOM     31 CL   LIG    1       26.449 -27.777   8.391  0.00  0.00    -0.120 Cl
ENDBRANCH   1  29
TORSDOF 10
ENDMDL
MODEL 4
REMARK VINA RESULT:      -5.6      1.892      3.196
REMARK  Name = *****
REMARK                            x       y       z     vdW  Elec       q    Type
REMARK                         _______ _______ _______ _____ _____    ______ ____
ROOT
ATOM      1  C   LIG    1       25.729 -21.663   6.340  0.00  0.00    +0.122 C 
ENDROOT
BRANCH   1   2
ATOM      2  C   LIG    1       27.201 -21.134   6.546  0.00  0.00    +0.172 C 
ATOM      3  C   LIG    1       27.885 -21.851   7.729  0.00  0.00    +0.176 C 
ATOM      4  C   LIG    1       29.309 -21.326   7.937  0.00  0.00    +0.177 C 
ATOM      5  C   LIG    1       29.310 -19.805   8.112  0.00  0.00    +0.184 C 
ATOM      6  C   LIG    1       28.481 -19.100   7.004  0.00  0.00    +0.207 C 
ATOM      7  O   LIG    1       27.178 -19.715   6.856  0.00  0.00    -0.356 OA
BRANCH   3   8
ATOM      8  O   LIG    1       27.167 -21.615   8.959  0.00  0.00    -0.387 OA
ATOM      9  H   LIG    1       26.252 -21.358   8.727  0.00  0.00    +0.210 HD
ENDBRANCH   3   8
BRANCH   4  10
ATOM     10  O   LIG    1       29.876 -21.909   9.127  0.00  0.00    -0.387 OA
ATOM     11  H   LIG    1       29.526 -22.824   9.170  0.00  0.00    +0.210 HD
ENDBRANCH   4  10
BRANCH   5  12
ATOM     12  O   LIG    1       30.652 -19.325   8.252  0.00  0.00    -0.386 OA
ATOM     13  H   LIG    1       30.591 -18.530   8.821  0.00  0.00    +0.210 HD
ENDBRANCH   5  12
BRANCH   6  14
ATOM     14  S   LIG    1       29.313 -18.898   5.380  0.00  0.00    -0.131 S 
ATOM     15  C   LIG    1       28.221 -17.645   4.643  0.00  0.00    +0.087 C 
ENDBRANCH   6  14
ENDBRANCH   1   2
BRANCH   1  17
ATOM     16  C   LIG    1       24.808 -24.011   6.097  0.00  0.00    +0.231 C 
ATOM     17  N   LIG    1       25.709 -23.018   5.715  0.00  0.00    -0.307 N 
ATOM     18  H   LIG    1       26.409 -23.266   5.026  0.00  0.00    +0.149 HD
ATOM     19  O   LIG    1       24.011 -23.843   7.001  0.00  0.00    -0.274 OA
BRANCH  16  24
ATOM     20  C   LIG    1       24.708 -27.735   5.811  0.00  0.00    +0.005 C 
ATOM     21  C   LIG    1       25.973 -27.414   5.016  0.00  0.00    +0.088 C 
ATOM     22  N   LIG    1       26.256 -25.981   5.279  0.00  0.00    -0.294 NA
ATOM     23  C   LIG    1       26.986 -25.845   6.544  0.00  0.00    +0.105 C 
ATOM     24  C   LIG    1       24.904 -25.344   5.288  0.00  0.00    +0.143 C 
ATOM     25  C   LIG    1       23.919 -26.423   5.762  0.00  0.00    +0.033 C 
BRANCH  20  26
ATOM     26  C   LIG    1       23.943 -28.957   5.279  0.00  0.00    +0.004 C 
BRANCH  26  28
ATOM     27  C   LIG    1       24.409 -29.738   7.646  0.00  0.00    +0.004 C 
ATOM     28  C   LIG    1       23.992 -30.151   6.241  0.00  0.00    -0.003 C 
ENDBRANCH  26  28
ENDBRANCH  20  26
ENDBRANCH  16  24
ENDBRANCH   1  17
BRANCH   1  29
ATOM     29  C   LIG    1       24.792 -20.614   5.638  0.00  0.00    +0.100 C 
ATOM     30  C   LIG    1       23.421 -20.465   6.308  0.00  0.00    +0.026 C 
ATOM     31 CL   LIG    1       24.567 -20.948   3.892  0.00  0.00    -0.120 Cl
ENDBRANCH   1  29
TORSDOF 10
ENDMDL
MODEL 5
REMARK VINA RESULT:      -5.4      7.014     10.082
REMARK  Name = *****
REMARK                            x       y       z     vdW  Elec       q    Type
REMARK                         _______ _______ _______ _____ _____    ______ ____
ROOT
ATOM      1  C   LIG    1       25.292 -30.873  10.577  0.00  0.00    +0.122 C 
ENDROOT
BRANCH   1   2
ATOM      2  C   LIG    1       25.725 -30.067  11.862  0.00  0.00    +0.172 C 
ATOM      3  C   LIG    1       26.405 -28.736  11.476  0.00  0.00    +0.176 C 
ATOM      4  C   LIG    1       26.838 -27.961  12.725  0.00  0.00    +0.177 C 
ATOM      5  C   LIG    1       27.732 -28.824  13.620  0.00  0.00    +0.184 C 
ATOM      6  C   LIG    1       27.113 -30.225  13.871  0.00  0.00    +0.207 C 
ATOM      7  O   LIG    1       26.687 -30.838  12.629  0.00  0.00    -0.356 OA
BRANCH   3   8
ATOM      8  O   LIG    1       27.596 -28.974  10.697  0.00  0.00    -0.387 OA
ATOM      9  H   LIG    1       27.394 -29.679  10.049  0.00  0.00    +0.210 HD
ENDBRANCH   3   8
BRANCH   4  10
ATOM     10  O   LIG    1       27.590 -26.794  12.339  0.00  0.00    -0.387 OA
ATOM     11  H   LIG    1       27.116 -26.412  11.571  0.00  0.00    +0.210 HD
ENDBRANCH   4  10
BRANCH   5  12
ATOM     12  O   LIG    1       28.084 -28.103  14.807  0.00  0.00    -0.386 OA
ATOM     13  H   LIG    1       27.302 -27.555  15.024  0.00  0.00    +0.210 HD
ENDBRANCH   5  12
BRANCH   6  14
ATOM     14  S   LIG    1       25.790 -30.305  15.142  0.00  0.00    -0.131 S 
ATOM     15  C   LIG    1       25.382 -32.074  15.032  0.00  0.00    +0.087 C 
ENDBRANCH   6  14
ENDBRANCH   1   2
BRANCH   1  17
ATOM     16  C   LIG    1       25.874 -30.516   8.137  0.00  0.00    +0.231 C 
ATOM     17  N   LIG    1       25.369 -30.036   9.345  0.00  0.00    -0.307 N 
ATOM     18  H   LIG    1       25.105 -29.058   9.381  0.00  0.00    +0.149 HD
ATOM     19  O   LIG    1       26.327 -31.641   8.031  0.00  0.00    -0.274 OA
BRANCH  16  24
ATOM     20  C   LIG    1       24.333 -27.681   6.255  0.00  0.00    +0.005 C 
ATOM     21  C   LIG    1       24.602 -28.672   5.123  0.00  0.00    +0.088 C 
ATOM     22  N   LIG    1       24.978 -29.944   5.788  0.00  0.00    -0.294 NA
ATOM     23  C   LIG    1       23.768 -30.676   6.177  0.00  0.00    +0.105 C 
ATOM     24  C   LIG    1       25.820 -29.509   6.945  0.00  0.00    +0.143 C 
ATOM     25  C   LIG    1       25.322 -28.111   7.341  0.00  0.00    +0.033 C 
BRANCH  20  26
ATOM     26  C   LIG    1       24.461 -26.211   5.825  0.00  0.00    +0.004 C 
BRANCH  26  28
ATOM     27  C   LIG    1       25.504 -24.151   6.874  0.00  0.00    +0.004 C 
ATOM     28  C   LIG    1       25.750 -25.555   6.337  0.00  0.00    -0.003 C 
ENDBRANCH  26  28
ENDBRANCH  20  26
ENDBRANCH  16  24
ENDBRANCH   1  17
BRANCH   1  29
ATOM     29  C   LIG    1       23.928 -31.632  10.758  0.00  0.00    +0.100 C 
ATOM     30  C   LIG    1       23.959 -33.085  10.271  0.00  0.00    +0.026 C 
ATOM     31 CL   LIG    1       22.554 -30.777   9.988  0.00  0.00    -0.120 Cl
ENDBRANCH   1  29
TORSDOF 10
ENDMDL
MODEL 6
REMARK VINA RESULT:      -5.4      7.126      9.669
REMARK  Name = *****
REMARK                            x       y       z     vdW  Elec       q    Type
REMARK                         _______ _______ _______ _____ _____    ______ ____
ROOT
ATOM      1  C   LIG    1       25.446 -29.427  12.238  0.00  0.00    +0.122 C 
ENDROOT
BRANCH   1   2
ATOM      2  C   LIG    1       25.362 -28.007  12.922  0.00  0.00    +0.172 C 
ATOM      3  C   LIG    1       26.613 -27.163  12.600  0.00  0.00    +0.176 C 
ATOM      4  C   LIG    1       26.536 -25.791  13.277  0.00  0.00    +0.177 C 
ATOM      5  C   LIG    1       26.316 -25.938  14.785  0.00  0.00    +0.184 C 
ATOM      6  C   LIG    1       25.155 -26.918  15.103  0.00  0.00    +0.207 C 
ATOM      7  O   LIG    1       25.300 -28.156  14.365  0.00  0.00    -0.356 OA
BRANCH   3   8
ATOM      8  O   LIG    1       27.808 -27.807  13.092  0.00  0.00    -0.387 OA
ATOM      9  H   LIG    1       27.706 -27.933  14.056  0.00  0.00    +0.210 HD
ENDBRANCH   3   8
BRANCH   4  10
ATOM     10  O   LIG    1       27.772 -25.077  13.077  0.00  0.00    -0.387 OA
ATOM     11  H   LIG    1       28.422 -25.491  13.683  0.00  0.00    +0.210 HD
ENDBRANCH   4  10
BRANCH   5  12
ATOM     12  O   LIG    1       26.194 -24.646  15.393  0.00  0.00    -0.386 OA
ATOM     13  H   LIG    1       26.022 -24.816  16.342  0.00  0.00    +0.210 HD
ENDBRANCH   5  12
BRANCH   6  14
ATOM     14  S   LIG    1       23.458 -26.237  14.937  0.00  0.00    -0.131 S 
ATOM     15  C   LIG    1       22.500 -27.738  15.310  0.00  0.00    +0.087 C 
ENDBRANCH   6  14
ENDBRANCH   1   2
BRANCH   1  17
ATOM     16  C   LIG    1       26.274 -30.151   9.955  0.00  0.00    +0.231 C 
ATOM     17  N   LIG    1       25.481 -29.324  10.750  0.00  0.00    -0.307 N 
ATOM     18  H   LIG    1       24.960 -28.591  10.283  0.00  0.00    +0.149 HD
ATOM     19  O   LIG    1       27.023 -30.980  10.438  0.00  0.00    -0.274 OA
BRANCH  16  24
ATOM     20  C   LIG    1       24.463 -28.907   6.934  0.00  0.00    +0.005 C 
ATOM     21  C   LIG    1       24.865 -30.309   6.478  0.00  0.00    +0.088 C 
ATOM     22  N   LIG    1       25.368 -30.995   7.694  0.00  0.00    -0.294 NA
ATOM     23  C   LIG    1       24.239 -31.538   8.458  0.00  0.00    +0.105 C 
ATOM     24  C   LIG    1       26.131 -29.931   8.416  0.00  0.00    +0.143 C 
ATOM     25  C   LIG    1       25.471 -28.595   8.043  0.00  0.00    +0.033 C 
BRANCH  20  26
ATOM     26  C   LIG    1       24.434 -27.877   5.794  0.00  0.00    +0.004 C 
BRANCH  26  28
ATOM     27  C   LIG    1       24.059 -25.405   6.217  0.00  0.00    +0.004 C 
ATOM     28  C   LIG    1       25.074 -26.540   6.188  0.00  0.00    -0.003 C 
ENDBRANCH  26  28
ENDBRANCH  20  26
ENDBRANCH  16  24
ENDBRANCH   1  17
BRANCH   1  29
ATOM     29  C   LIG    1       24.380 -30.440  12.791  0.00  0.00    +0.100 C 
ATOM     30  C   LIG    1       24.942 -31.839  13.068  0.00  0.00    +0.026 C 
ATOM     31 CL   LIG    1       22.942 -30.576  11.732  0.00  0.00    -0.120 Cl
ENDBRANCH   1  29
TORSDOF 10
ENDMDL
MODEL 7
REMARK VINA RESULT:      -5.3      2.986      7.789
REMARK  Name = *****
REMARK                            x       y       z     vdW  Elec       q    Type
REMARK                         _______ _______ _______ _____ _____    ______ ____
ROOT
ATOM      1  C   LIG    1       26.127 -20.402   4.827  0.00  0.00    +0.122 C 
ENDROOT
BRANCH   1   2
ATOM      2  C   LIG    1       25.244 -21.681   5.094  0.00  0.00    +0.172 C 
ATOM      3  C   LIG    1       23.760 -21.299   5.279  0.00  0.00    +0.176 C 
ATOM      4  C   LIG    1       22.906 -22.541   5.553  0.00  0.00    +0.177 C 
ATOM      5  C   LIG    1       23.449 -23.323   6.752  0.00  0.00    +0.184 C 
ATOM      6  C   LIG    1       24.979 -23.563   6.635  0.00  0.00    +0.207 C 
ATOM      7  O   LIG    1       25.677 -22.334   6.317  0.00  0.00    -0.356 OA
BRANCH   3   8
ATOM      8  O   LIG    1       23.592 -20.417   6.408  0.00  0.00    -0.387 OA
ATOM      9  H   LIG    1       23.665 -19.497   6.084  0.00  0.00    +0.210 HD
ENDBRANCH   3   8
BRANCH   4  10
ATOM     10  O   LIG    1       21.553 -22.147   5.858  0.00  0.00    -0.387 OA
ATOM     11  H   LIG    1       21.077 -22.974   6.084  0.00  0.00    +0.210 HD
ENDBRANCH   4  10
BRANCH   5  12
ATOM     12  O   LIG    1       22.671 -24.508   6.962  0.00  0.00    -0.386 OA
ATOM     13  H   LIG    1       22.560 -24.582   7.932  0.00  0.00    +0.210 HD
ENDBRANCH   5  12
BRANCH   6  14
ATOM     14  S   LIG    1       25.497 -24.932   5.527  0.00  0.00    -0.131 S 
ATOM     15  C   LIG    1       25.926 -26.179   6.779  0.00  0.00    +0.087 C 
ENDBRANCH   6  14
ENDBRANCH   1   2
BRANCH   1  17
ATOM     16  C   LIG    1       28.234 -19.853   6.125  0.00  0.00    +0.231 C 
ATOM     17  N   LIG    1       26.845 -19.956   6.057  0.00  0.00    -0.307 N 
ATOM     18  H   LIG    1       26.324 -19.774   6.907  0.00  0.00    +0.149 HD
ATOM     19  O   LIG    1       28.948 -20.167   5.191  0.00  0.00    -0.274 OA
BRANCH  16  24
ATOM     20  C   LIG    1       31.024 -18.809   8.378  0.00  0.00    +0.005 C 
ATOM     21  C   LIG    1       30.201 -19.688   9.319  0.00  0.00    +0.088 C 
ATOM     22  N   LIG    1       29.203 -20.369   8.458  0.00  0.00    -0.294 NA
ATOM     23  C   LIG    1       29.809 -21.552   7.838  0.00  0.00    +0.105 C 
ATOM     24  C   LIG    1       28.796 -19.314   7.478  0.00  0.00    +0.143 C 
ATOM     25  C   LIG    1       30.008 -18.384   7.315  0.00  0.00    +0.033 C 
BRANCH  20  26
ATOM     26  C   LIG    1       31.726 -17.640   9.089  0.00  0.00    +0.004 C 
BRANCH  26  28
ATOM     27  C   LIG    1       31.154 -16.675  11.363  0.00  0.00    +0.004 C 
ATOM     28  C   LIG    1       30.755 -16.770   9.896  0.00  0.00    -0.003 C 
ENDBRANCH  26  28
ENDBRANCH  20  26
ENDBRANCH  16  24
ENDBRANCH   1  17
BRANCH   1  29
ATOM     29  C   LIG    1       25.346 -19.258   4.085  0.00  0.00    +0.100 C 
ATOM     30  C   LIG    1       24.514 -19.749   2.895  0.00  0.00    +0.026 C 
ATOM     31 CL   LIG    1       26.416 -17.923   3.552  0.00  0.00    -0.120 Cl
ENDBRANCH   1  29
TORSDOF 10
ENDMDL
MODEL 8
REMARK VINA RESULT:      -5.2      3.077      5.501
REMARK  Name = *****
REMARK                            x       y       z     vdW  Elec       q    Type
REMARK                         _______ _______ _______ _____ _____    ______ ____
ROOT
ATOM      1  C   LIG    1       26.819 -21.848   6.677  0.00  0.00    +0.122 C 
ENDROOT
BRANCH   1   2
ATOM      2  C   LIG    1       27.986 -20.856   7.055  0.00  0.00    +0.172 C 
ATOM      3  C   LIG    1       28.035 -19.663   6.077  0.00  0.00    +0.176 C 
ATOM      4  C   LIG    1       29.179 -18.709   6.437  0.00  0.00    +0.177 C 
ATOM      5  C   LIG    1       30.514 -19.455   6.498  0.00  0.00    +0.184 C 
ATOM      6  C   LIG    1       30.412 -20.745   7.355  0.00  0.00    +0.207 C 
ATOM      7  O   LIG    1       29.264 -21.540   6.967  0.00  0.00    -0.356 OA
BRANCH   3   8
ATOM      8  O   LIG    1       28.274 -20.114   4.727  0.00  0.00    -0.387 OA
ATOM      9  H   LIG    1       27.436 -20.033   4.231  0.00  0.00    +0.210 HD
ENDBRANCH   3   8
BRANCH   4  10
ATOM     10  O   LIG    1       29.291 -17.680   5.433  0.00  0.00    -0.387 OA
ATOM     11  H   LIG    1       28.619 -17.896   4.752  0.00  0.00    +0.210 HD
ENDBRANCH   4  10
BRANCH   5  12
ATOM     12  O   LIG    1       31.562 -18.559   6.886  0.00  0.00    -0.386 OA
ATOM     13  H   LIG    1       32.383 -19.094   6.880  0.00  0.00    +0.210 HD
ENDBRANCH   5  12
BRANCH   6  14
ATOM     14  S   LIG    1       30.477 -20.511   9.175  0.00  0.00    -0.131 S 
ATOM     15  C   LIG    1       31.058 -22.164   9.664  0.00  0.00    +0.087 C 
ENDBRANCH   6  14
ENDBRANCH   1   2
BRANCH   1  17
ATOM     16  C   LIG    1       24.922 -21.846   4.996  0.00  0.00    +0.231 C 
ATOM     17  N   LIG    1       25.745 -21.169   5.896  0.00  0.00    -0.307 N 
ATOM     18  H   LIG    1       25.631 -20.164   5.962  0.00  0.00    +0.149 HD
ATOM     19  O   LIG    1       25.066 -23.031   4.761  0.00  0.00    -0.274 OA
BRANCH  16  24
ATOM     20  C   LIG    1       22.768 -18.803   4.769  0.00  0.00    +0.005 C 
ATOM     21  C   LIG    1       21.741 -19.907   4.527  0.00  0.00    +0.088 C 
ATOM     22  N   LIG    1       22.437 -21.177   4.851  0.00  0.00    -0.294 NA
ATOM     23  C   LIG    1       22.389 -21.412   6.299  0.00  0.00    +0.105 C 
ATOM     24  C   LIG    1       23.818 -20.975   4.316  0.00  0.00    +0.143 C 
ATOM     25  C   LIG    1       24.094 -19.466   4.387  0.00  0.00    +0.033 C 
BRANCH  20  26
ATOM     26  C   LIG    1       22.464 -17.505   4.004  0.00  0.00    +0.004 C 
BRANCH  26  28
ATOM     27  C   LIG    1       23.259 -15.158   4.541  0.00  0.00    +0.004 C 
ATOM     28  C   LIG    1       22.320 -16.291   4.931  0.00  0.00    -0.003 C 
ENDBRANCH  26  28
ENDBRANCH  20  26
ENDBRANCH  16  24
ENDBRANCH   1  17
BRANCH   1  29
ATOM     29  C   LIG    1       26.298 -22.680   7.903  0.00  0.00    +0.100 C 
ATOM     30  C   LIG    1       25.756 -24.064   7.527  0.00  0.00    +0.026 C 
ATOM     31 CL   LIG    1       25.065 -21.800   8.862  0.00  0.00    -0.120 Cl
ENDBRANCH   1  29
TORSDOF 10
ENDMDL
MODEL 9
REMARK VINA RESULT:      -5.2      6.946      9.971
REMARK  Name = *****
REMARK                            x       y       z     vdW  Elec       q    Type
REMARK                         _______ _______ _______ _____ _____    ______ ____
ROOT
ATOM      1  C   LIG    1       25.052 -30.446   9.587  0.00  0.00    +0.122 C 
ENDROOT
BRANCH   1   2
ATOM      2  C   LIG    1       25.367 -30.075  11.087  0.00  0.00    +0.172 C 
ATOM      3  C   LIG    1       26.423 -28.952  11.169  0.00  0.00    +0.176 C 
ATOM      4  C   LIG    1       26.739 -28.603  12.627  0.00  0.00    +0.177 C 
ATOM      5  C   LIG    1       27.167 -29.850  13.406  0.00  0.00    +0.184 C 
ATOM      6  C   LIG    1       26.182 -31.029  13.189  0.00  0.00    +0.207 C 
ATOM      7  O   LIG    1       25.912 -31.230  11.779  0.00  0.00    -0.356 OA
BRANCH   3   8
ATOM      8  O   LIG    1       27.663 -29.366  10.559  0.00  0.00    -0.387 OA
ATOM      9  H   LIG    1       28.305 -28.635  10.657  0.00  0.00    +0.210 HD
ENDBRANCH   3   8
BRANCH   4  10
ATOM     10  O   LIG    1       27.822 -27.654  12.679  0.00  0.00    -0.387 OA
ATOM     11  H   LIG    1       27.747 -27.209  13.550  0.00  0.00    +0.210 HD
ENDBRANCH   4  10
BRANCH   5  12
ATOM     12  O   LIG    1       27.408 -29.515  14.778  0.00  0.00    -0.386 OA
ATOM     13  H   LIG    1       28.171 -30.063  15.054  0.00  0.00    +0.210 HD
ENDBRANCH   5  12
BRANCH   6  14
ATOM     14  S   LIG    1       24.628 -30.972  14.165  0.00  0.00    -0.131 S 
ATOM     15  C   LIG    1       23.779 -32.415  13.453  0.00  0.00    +0.087 C 
ENDBRANCH   6  14
ENDBRANCH   1   2
BRANCH   1  17
ATOM     16  C   LIG    1       25.679 -29.572   7.292  0.00  0.00    +0.231 C 
ATOM     17  N   LIG    1       25.450 -29.355   8.651  0.00  0.00    -0.307 N 
ATOM     18  H   LIG    1       25.623 -28.422   9.007  0.00  0.00    +0.149 HD
ATOM     19  O   LIG    1       25.612 -30.682   6.799  0.00  0.00    -0.274 OA
BRANCH  16  24
ATOM     20  C   LIG    1       25.186 -25.993   6.342  0.00  0.00    +0.005 C 
ATOM     21  C   LIG    1       25.286 -26.650   4.966  0.00  0.00    +0.088 C 
ATOM     22  N   LIG    1       25.224 -28.111   5.217  0.00  0.00    -0.294 NA
ATOM     23  C   LIG    1       23.825 -28.533   5.347  0.00  0.00    +0.105 C 
ATOM     24  C   LIG    1       26.029 -28.296   6.463  0.00  0.00    +0.143 C 
ATOM     25  C   LIG    1       25.900 -26.989   7.260  0.00  0.00    +0.033 C 
BRANCH  20  26
ATOM     26  C   LIG    1       25.760 -24.568   6.383  0.00  0.00    +0.004 C 
BRANCH  26  28
ATOM     27  C   LIG    1       23.292 -24.096   6.718  0.00  0.00    +0.004 C 
ATOM     28  C   LIG    1       24.671 -23.494   6.488  0.00  0.00    -0.003 C 
ENDBRANCH  26  28
ENDBRANCH  20  26
ENDBRANCH  16  24
ENDBRANCH   1  17
BRANCH   1  29
ATOM     29  C   LIG    1       23.587 -30.974   9.379  0.00  0.00    +0.100 C 
ATOM     30  C   LIG    1       22.580 -30.421  10.394  0.00  0.00    +0.026 C 
ATOM     31 CL   LIG    1       23.493 -32.764   9.365  0.00  0.00    -0.120 Cl
ENDBRANCH   1  29
TORSDOF 10
ENDMDL
