MODEL 1
REMARK VINA RESULT:      -2.8      0.000      0.000
REMARK  Name = *****
REMARK                            x       y       z     vdW  Elec       q    Type
REMARK                         _______ _______ _______ _____ _____    ______ ____
ROOT
ATOM      1  C   LIG    1       26.375 -16.066   3.660  0.00  0.00    -0.006 A 
ATOM      2  C   LIG    1       25.105 -15.544   4.047  0.00  0.00    +0.007 A 
ATOM      3  C   LIG    1       23.941 -16.336   4.180  0.00  0.00    +0.010 A 
ATOM      4  C   LIG    1       22.729 -15.802   4.596  0.00  0.00    +0.001 A 
ATOM      5  C   LIG    1       22.646 -14.445   4.849  0.00  0.00    +0.014 A 
ATOM      6  C   LIG    1       23.775 -13.617   4.692  0.00  0.00    +0.081 A 
ATOM      7  C   LIG    1       25.006 -14.150   4.307  0.00  0.00    +0.084 A 
ATOM      8  N   LIG    1       26.067 -13.342   4.187  0.00  0.00    -0.242 NA
ATOM      9  C   LIG    1       27.277 -13.829   3.799  0.00  0.00    +0.145 A 
ATOM     10  C   LIG    1       27.456 -15.179   3.535  0.00  0.00    +0.039 A 
ENDROOT
BRANCH   6  11
ATOM     11  C   LIG    1       23.580 -12.142   4.943  0.00  0.00    +0.419 C 
ATOM     12  F   LIG    1       23.464 -11.447   3.771  0.00  0.00    -0.166 F 
ATOM     13  F   LIG    1       24.670 -11.598   5.565  0.00  0.00    -0.166 F 
ATOM     14  F   LIG    1       22.514 -11.763   5.695  0.00  0.00    -0.166 F 
ENDBRANCH   6  11
BRANCH   9  15
ATOM     15  C   LIG    1       28.446 -12.860   3.673  0.00  0.00    +0.434 C 
ATOM     16  F   LIG    1       29.475 -13.364   2.931  0.00  0.00    -0.164 F 
ATOM     17  F   LIG    1       28.987 -12.507   4.876  0.00  0.00    -0.164 F 
ATOM     18  F   LIG    1       28.112 -11.681   3.068  0.00  0.00    -0.164 F 
ENDBRANCH   9  15
BRANCH   1  19
ATOM     19  C   LIG    1       26.602 -17.546   3.375  0.00  0.00    +0.162 C 
BRANCH  19  20
ATOM     20  C   LIG    1       25.634 -18.542   4.104  0.00  0.00    +0.087 C 
ATOM     21  N   LIG    1       26.468 -19.606   4.736  0.00  0.00    -0.311 NA
ATOM     22  H   LIG    1       26.975 -20.105   4.000  0.00  0.00    +0.122 HD
ATOM     23  C   LIG    1       25.646 -20.583   5.458  0.00  0.00    +0.081 C 
ATOM     24  C   LIG    1       24.624 -21.255   4.546  0.00  0.00    +0.015 C 
ATOM     25  C   LIG    1       23.733 -20.214   3.882  0.00  0.00    +0.003 C 
ATOM     26  C   LIG    1       24.580 -19.161   3.176  0.00  0.00    +0.021 C 
ENDBRANCH  19  20
BRANCH  19  27
ATOM     27  O   LIG    1       27.947 -17.894   3.754  0.00  0.00    -0.386 OA
ATOM     28  H   LIG    1       27.883 -18.822   4.061  0.00  0.00    +0.210 HD
ENDBRANCH  19  27
ENDBRANCH   1  19
TORSDOF 5
ENDMDL
MODEL 2
REMARK VINA RESULT:      -0.5      4.449      6.568
REMARK  Name = *****
REMARK                            x       y       z     vdW  Elec       q    Type
REMARK                         _______ _______ _______ _____ _____    ______ ____
ROOT
ATOM      1  C   LIG    1       26.177 -17.355   3.879  0.00  0.00    -0.006 A 
ATOM      2  C   LIG    1       24.839 -17.817   4.052  0.00  0.00    +0.007 A 
ATOM      3  C   LIG    1       23.705 -17.136   3.550  0.00  0.00    +0.010 A 
ATOM      4  C   LIG    1       22.418 -17.633   3.703  0.00  0.00    +0.001 A 
ATOM      5  C   LIG    1       22.234 -18.811   4.404  0.00  0.00    +0.014 A 
ATOM      6  C   LIG    1       23.334 -19.499   4.951  0.00  0.00    +0.081 A 
ATOM      7  C   LIG    1       24.635 -19.025   4.774  0.00  0.00    +0.084 A 
ATOM      8  N   LIG    1       25.664 -19.711   5.285  0.00  0.00    -0.242 NA
ATOM      9  C   LIG    1       26.943 -19.267   5.142  0.00  0.00    +0.145 A 
ATOM     10  C   LIG    1       27.223 -18.102   4.445  0.00  0.00    +0.039 A 
ENDROOT
BRANCH   6  11
ATOM     11  C   LIG    1       23.035 -20.749   5.742  0.00  0.00    +0.419 C 
ATOM     12  F   LIG    1       22.746 -20.458   7.046  0.00  0.00    -0.166 F 
ATOM     13  F   LIG    1       24.127 -21.571   5.800  0.00  0.00    -0.166 F 
ATOM     14  F   LIG    1       22.016 -21.539   5.314  0.00  0.00    -0.166 F 
ENDBRANCH   6  11
BRANCH   9  15
ATOM     15  C   LIG    1       28.072 -20.087   5.754  0.00  0.00    +0.434 C 
ATOM     16  F   LIG    1       29.002 -20.478   4.834  0.00  0.00    -0.164 F 
ATOM     17  F   LIG    1       27.640 -21.231   6.361  0.00  0.00    -0.164 F 
ATOM     18  F   LIG    1       28.776 -19.413   6.711  0.00  0.00    -0.164 F 
ENDBRANCH   9  15
BRANCH   1  19
ATOM     19  C   LIG    1       26.514 -16.084   3.108  0.00  0.00    +0.162 C 
BRANCH  19  20
ATOM     20  C   LIG    1       27.448 -15.062   3.843  0.00  0.00    +0.087 C 
ATOM     21  N   LIG    1       26.673 -14.468   4.971  0.00  0.00    -0.311 NA
ATOM     22  H   LIG    1       25.864 -13.972   4.588  0.00  0.00    +0.122 HD
ATOM     23  C   LIG    1       27.474 -13.503   5.732  0.00  0.00    +0.081 C 
ATOM     24  C   LIG    1       27.986 -12.366   4.851  0.00  0.00    +0.015 C 
ATOM     25  C   LIG    1       28.799 -12.915   3.686  0.00  0.00    +0.003 C 
ATOM     26  C   LIG    1       27.994 -13.961   2.923  0.00  0.00    +0.021 C 
ENDBRANCH  19  20
BRANCH  19  27
ATOM     27  O   LIG    1       25.290 -15.397   2.783  0.00  0.00    -0.386 OA
ATOM     28  H   LIG    1       24.583 -15.981   3.129  0.00  0.00    +0.210 HD
ENDBRANCH  19  27
ENDBRANCH   1  19
TORSDOF 5
ENDMDL
MODEL 3
REMARK VINA RESULT:       0.1      2.572      4.602
REMARK  Name = *****
REMARK                            x       y       z     vdW  Elec       q    Type
REMARK                         _______ _______ _______ _____ _____    ______ ____
ROOT
ATOM      1  C   LIG    1       25.055 -18.075   3.809  0.00  0.00    -0.006 A 
ATOM      2  C   LIG    1       25.610 -16.766   3.704  0.00  0.00    +0.007 A 
ATOM      3  C   LIG    1       26.998 -16.510   3.605  0.00  0.00    +0.010 A 
ATOM      4  C   LIG    1       27.503 -15.224   3.466  0.00  0.00    +0.001 A 
ATOM      5  C   LIG    1       26.625 -14.156   3.464  0.00  0.00    +0.014 A 
ATOM      6  C   LIG    1       25.239 -14.368   3.597  0.00  0.00    +0.081 A 
ATOM      7  C   LIG    1       24.718 -15.659   3.705  0.00  0.00    +0.084 A 
ATOM      8  N   LIG    1       23.395 -15.831   3.807  0.00  0.00    -0.242 NA
ATOM      9  C   LIG    1       22.858 -17.076   3.928  0.00  0.00    +0.145 A 
ATOM     10  C   LIG    1       23.662 -18.206   3.928  0.00  0.00    +0.039 A 
ENDROOT
BRANCH   6  11
ATOM     11  C   LIG    1       24.360 -13.141   3.634  0.00  0.00    +0.419 C 
ATOM     12  F   LIG    1       23.115 -13.402   3.133  0.00  0.00    -0.166 F 
ATOM     13  F   LIG    1       24.859 -12.152   2.832  0.00  0.00    -0.166 F 
ATOM     14  F   LIG    1       24.149 -12.551   4.839  0.00  0.00    -0.166 F 
ENDBRANCH   6  11
BRANCH   9  15
ATOM     15  C   LIG    1       21.345 -17.209   4.050  0.00  0.00    +0.434 C 
ATOM     16  F   LIG    1       20.691 -16.899   2.893  0.00  0.00    -0.164 F 
ATOM     17  F   LIG    1       20.809 -16.404   5.013  0.00  0.00    -0.164 F 
ATOM     18  F   LIG    1       20.934 -18.473   4.366  0.00  0.00    -0.164 F 
ENDBRANCH   9  15
BRANCH   1  19
ATOM     19  C   LIG    1       25.914 -19.334   3.800  0.00  0.00    +0.162 C 
BRANCH  19  20
ATOM     20  C   LIG    1       25.428 -20.504   4.725  0.00  0.00    +0.087 C 
ATOM     21  N   LIG    1       23.937 -20.473   4.751  0.00  0.00    -0.311 NA
ATOM     22  H   LIG    1       23.634 -19.580   5.148  0.00  0.00    +0.122 HD
ATOM     23  C   LIG    1       23.386 -21.547   5.586  0.00  0.00    +0.081 C 
ATOM     24  C   LIG    1       23.891 -21.468   7.024  0.00  0.00    +0.015 C 
ATOM     25  C   LIG    1       25.413 -21.508   7.060  0.00  0.00    +0.003 C 
ATOM     26  C   LIG    1       25.995 -20.432   6.150  0.00  0.00    +0.021 C 
ENDBRANCH  19  20
BRANCH  19  27
ATOM     27  O   LIG    1       27.253 -18.989   4.205  0.00  0.00    -0.386 OA
ATOM     28  H   LIG    1       27.441 -19.584   4.960  0.00  0.00    +0.210 HD
ENDBRANCH  19  27
ENDBRANCH   1  19
TORSDOF 5
ENDMDL
