MODEL 1
REMARK VINA RESULT:      -6.7      0.000      0.000
REMARK  Name = *****
REMARK                            x       y       z     vdW  Elec       q    Type
REMARK                         _______ _______ _______ _____ _____    ______ ____
ROOT
ATOM      1  N   LIG    1       27.933 -19.999   6.827  0.00  0.00    -0.119 NA
ATOM      2  C   LIG    1       27.157 -20.658   6.028  0.00  0.00    +0.159 C 
ENDROOT
BRANCH   2   3
ATOM      3  C   LIG    1       25.681 -20.628   6.138  0.00  0.00    +0.033 A 
ATOM      4  C   LIG    1       24.940 -20.123   5.054  0.00  0.00    +0.051 A 
ATOM      5 CL   LIG    1       25.677 -19.540   3.598  0.00  0.00    -0.083 Cl
ATOM      6  C   LIG    1       23.540 -20.102   5.094  0.00  0.00    +0.021 A 
ATOM      7  C   LIG    1       22.864 -20.568   6.217  0.00  0.00    +0.003 A 
ATOM      8  C   LIG    1       23.588 -21.056   7.302  0.00  0.00    +0.021 A 
ATOM      9  C   LIG    1       24.990 -21.093   7.269  0.00  0.00    +0.051 A 
ATOM     10 CL   LIG    1       25.762 -21.686   8.699  0.00  0.00    -0.083 Cl
ENDBRANCH   2   3
BRANCH   1  11
ATOM     11  N   LIG    1       29.268 -20.218   6.617  0.00  0.00    -0.155 N 
ATOM     12  H   LIG    1       29.703 -21.080   6.939  0.00  0.00    +0.292 HD
BRANCH  11  15
ATOM     13  N   LIG    1       29.973 -18.221   5.663  0.00  0.00    -0.128 NA
ATOM     14  H   LIG    1       30.790 -17.608   5.707  0.00  0.00    +0.306 HD
ATOM     15  C   LIG    1       30.187 -19.227   6.434  0.00  0.00    +0.400 C 
BRANCH  15  16
ATOM     16  N   LIG    1       31.338 -19.410   7.118  0.00  0.00    -0.288 N 
ATOM     17  H   LIG    1       32.014 -18.704   6.831  0.00  0.00    +0.255 HD
ATOM     18  H   LIG    1       31.245 -19.483   8.121  0.00  0.00    +0.255 HD
ENDBRANCH  15  16
ENDBRANCH  11  15
ENDBRANCH   1  11
TORSDOF 4
ENDMDL
MODEL 2
REMARK VINA RESULT:      -6.7      0.083      2.458
REMARK  Name = *****
REMARK                            x       y       z     vdW  Elec       q    Type
REMARK                         _______ _______ _______ _____ _____    ______ ____
ROOT
ATOM      1  N   LIG    1       27.922 -19.948   6.801  0.00  0.00    -0.119 NA
ATOM      2  C   LIG    1       27.179 -20.726   6.080  0.00  0.00    +0.159 C 
ENDROOT
BRANCH   2   3
ATOM      3  C   LIG    1       25.700 -20.676   6.111  0.00  0.00    +0.033 A 
ATOM      4  C   LIG    1       25.039 -21.142   7.263  0.00  0.00    +0.051 A 
ATOM      5 CL   LIG    1       25.879 -21.767   8.643  0.00  0.00    -0.083 Cl
ATOM      6  C   LIG    1       23.643 -21.087   7.356  0.00  0.00    +0.021 A 
ATOM      7  C   LIG    1       22.890 -20.583   6.301  0.00  0.00    +0.003 A 
ATOM      8  C   LIG    1       23.532 -20.132   5.151  0.00  0.00    +0.021 A 
ATOM      9  C   LIG    1       24.931 -20.171   5.049  0.00  0.00    +0.051 A 
ATOM     10 CL   LIG    1       25.594 -19.618   3.550  0.00  0.00    -0.083 Cl
ENDBRANCH   2   3
BRANCH   1  11
ATOM     11  N   LIG    1       29.263 -20.200   6.695  0.00  0.00    -0.155 N 
ATOM     12  H   LIG    1       29.664 -21.032   7.123  0.00  0.00    +0.292 HD
BRANCH  11  15
ATOM     13  N   LIG    1       30.023 -18.264   5.661  0.00  0.00    -0.128 NA
ATOM     14  H   LIG    1       30.855 -17.670   5.684  0.00  0.00    +0.306 HD
ATOM     15  C   LIG    1       30.207 -19.240   6.476  0.00  0.00    +0.400 C 
BRANCH  15  16
ATOM     16  N   LIG    1       31.349 -19.422   7.176  0.00  0.00    -0.288 N 
ATOM     17  H   LIG    1       31.487 -20.418   7.339  0.00  0.00    +0.255 HD
ATOM     18  H   LIG    1       32.169 -18.965   6.804  0.00  0.00    +0.255 HD
ENDBRANCH  15  16
ENDBRANCH  11  15
ENDBRANCH   1  11
TORSDOF 4
ENDMDL
MODEL 3
REMARK VINA RESULT:      -6.5      2.018      3.274
REMARK  Name = *****
REMARK                            x       y       z     vdW  Elec       q    Type
REMARK                         _______ _______ _______ _____ _____    ______ ____
ROOT
ATOM      1  N   LIG    1       29.203 -21.510   7.383  0.00  0.00    -0.119 NA
ATOM      2  C   LIG    1       27.976 -21.182   7.632  0.00  0.00    +0.159 C 
ENDROOT
BRANCH   2   3
ATOM      3  C   LIG    1       26.971 -20.970   6.566  0.00  0.00    +0.033 A 
ATOM      4  C   LIG    1       25.826 -21.789   6.554  0.00  0.00    +0.051 A 
ATOM      5 CL   LIG    1       25.541 -23.029   7.730  0.00  0.00    -0.083 Cl
ATOM      6  C   LIG    1       24.830 -21.608   5.587  0.00  0.00    +0.021 A 
ATOM      7  C   LIG    1       24.967 -20.624   4.614  0.00  0.00    +0.003 A 
ATOM      8  C   LIG    1       26.102 -19.818   4.608  0.00  0.00    +0.021 A 
ATOM      9  C   LIG    1       27.102 -19.980   5.578  0.00  0.00    +0.051 A 
ATOM     10 CL   LIG    1       28.475 -18.939   5.428  0.00  0.00    -0.083 Cl
ENDBRANCH   2   3
BRANCH   1  11
ATOM     11  N   LIG    1       30.000 -21.581   8.493  0.00  0.00    -0.155 N 
ATOM     12  H   LIG    1       29.586 -21.713   9.414  0.00  0.00    +0.292 HD
BRANCH  11  15
ATOM     13  N   LIG    1       32.120 -21.442   9.430  0.00  0.00    -0.128 NA
ATOM     14  H   LIG    1       32.980 -20.909   9.283  0.00  0.00    +0.306 HD
ATOM     15  C   LIG    1       31.250 -21.042   8.575  0.00  0.00    +0.400 C 
BRANCH  15  16
ATOM     16  N   LIG    1       31.478 -20.045   7.691  0.00  0.00    -0.288 N 
ATOM     17  H   LIG    1       32.361 -20.217   7.212  0.00  0.00    +0.255 HD
ATOM     18  H   LIG    1       30.719 -19.837   7.058  0.00  0.00    +0.255 HD
ENDBRANCH  15  16
ENDBRANCH  11  15
ENDBRANCH   1  11
TORSDOF 4
ENDMDL
MODEL 4
REMARK VINA RESULT:      -6.4      1.550      1.991
REMARK  Name = *****
REMARK                            x       y       z     vdW  Elec       q    Type
REMARK                         _______ _______ _______ _____ _____    ______ ____
ROOT
ATOM      1  N   LIG    1       27.015 -20.221   6.204  0.00  0.00    -0.119 NA
ATOM      2  C   LIG    1       26.338 -20.461   5.127  0.00  0.00    +0.159 C 
ENDROOT
BRANCH   2   3
ATOM      3  C   LIG    1       24.891 -20.175   5.009  0.00  0.00    +0.033 A 
ATOM      4  C   LIG    1       24.484 -19.120   4.170  0.00  0.00    +0.051 A 
ATOM      5 CL   LIG    1       25.600 -18.148   3.270  0.00  0.00    -0.083 Cl
ATOM      6  C   LIG    1       23.125 -18.829   3.998  0.00  0.00    +0.021 A 
ATOM      7  C   LIG    1       22.159 -19.571   4.668  0.00  0.00    +0.003 A 
ATOM      8  C   LIG    1       22.550 -20.607   5.512  0.00  0.00    +0.021 A 
ATOM      9  C   LIG    1       23.908 -20.917   5.684  0.00  0.00    +0.051 A 
ATOM     10 CL   LIG    1       24.254 -22.201   6.791  0.00  0.00    -0.083 Cl
ENDBRANCH   2   3
BRANCH   1  11
ATOM     11  N   LIG    1       28.320 -20.628   6.148  0.00  0.00    -0.155 N 
ATOM     12  H   LIG    1       28.649 -21.188   5.364  0.00  0.00    +0.292 HD
BRANCH  11  15
ATOM     13  N   LIG    1       28.740 -21.337   8.320  0.00  0.00    -0.128 NA
ATOM     14  H   LIG    1       29.522 -21.335   8.979  0.00  0.00    +0.306 HD
ATOM     15  C   LIG    1       29.128 -20.761   7.239  0.00  0.00    +0.400 C 
BRANCH  15  16
ATOM     16  N   LIG    1       30.357 -20.220   7.082  0.00  0.00    -0.288 N 
ATOM     17  H   LIG    1       30.550 -19.597   7.865  0.00  0.00    +0.255 HD
ATOM     18  H   LIG    1       31.105 -20.874   6.903  0.00  0.00    +0.255 HD
ENDBRANCH  15  16
ENDBRANCH  11  15
ENDBRANCH   1  11
TORSDOF 4
ENDMDL
MODEL 5
REMARK VINA RESULT:      -6.3      1.783      2.155
REMARK  Name = *****
REMARK                            x       y       z     vdW  Elec       q    Type
REMARK                         _______ _______ _______ _____ _____    ______ ____
ROOT
ATOM      1  N   LIG    1       29.244 -21.422   7.289  0.00  0.00    -0.119 NA
ATOM      2  C   LIG    1       28.142 -20.787   7.534  0.00  0.00    +0.159 C 
ENDROOT
BRANCH   2   3
ATOM      3  C   LIG    1       26.992 -20.789   6.603  0.00  0.00    +0.033 A 
ATOM      4  C   LIG    1       27.022 -19.911   5.502  0.00  0.00    +0.051 A 
ATOM      5 CL   LIG    1       28.344 -18.836   5.190  0.00  0.00    -0.083 Cl
ATOM      6  C   LIG    1       25.975 -19.896   4.574  0.00  0.00    +0.021 A 
ATOM      7  C   LIG    1       24.881 -20.740   4.736  0.00  0.00    +0.003 A 
ATOM      8  C   LIG    1       24.834 -21.601   5.829  0.00  0.00    +0.021 A 
ATOM      9  C   LIG    1       25.882 -21.635   6.760  0.00  0.00    +0.051 A 
ATOM     10 CL   LIG    1       25.676 -22.723   8.090  0.00  0.00    -0.083 Cl
ENDBRANCH   2   3
BRANCH   1  11
ATOM     11  N   LIG    1       30.219 -21.235   8.231  0.00  0.00    -0.155 N 
ATOM     12  H   LIG    1       30.087 -21.575   9.181  0.00  0.00    +0.292 HD
BRANCH  11  15
ATOM     13  N   LIG    1       31.555 -19.735   7.065  0.00  0.00    -0.128 NA
ATOM     14  H   LIG    1       32.239 -19.005   7.278  0.00  0.00    +0.306 HD
ATOM     15  C   LIG    1       31.159 -20.247   8.174  0.00  0.00    +0.400 C 
BRANCH  15  16
ATOM     16  N   LIG    1       31.640 -19.876   9.381  0.00  0.00    -0.288 N 
ATOM     17  H   LIG    1       31.987 -18.920   9.323  0.00  0.00    +0.255 HD
ATOM     18  H   LIG    1       31.023 -20.026  10.165  0.00  0.00    +0.255 HD
ENDBRANCH  15  16
ENDBRANCH  11  15
ENDBRANCH   1  11
TORSDOF 4
ENDMDL
MODEL 6
REMARK VINA RESULT:      -6.3      1.639      3.072
REMARK  Name = *****
REMARK                            x       y       z     vdW  Elec       q    Type
REMARK                         _______ _______ _______ _____ _____    ______ ____
ROOT
ATOM      1  N   LIG    1       27.143 -19.947   5.843  0.00  0.00    -0.119 NA
ATOM      2  C   LIG    1       26.283 -20.673   5.205  0.00  0.00    +0.159 C 
ENDROOT
BRANCH   2   3
ATOM      3  C   LIG    1       24.884 -20.246   4.978  0.00  0.00    +0.033 A 
ATOM      4  C   LIG    1       23.857 -20.939   5.644  0.00  0.00    +0.051 A 
ATOM      5 CL   LIG    1       24.157 -22.265   6.718  0.00  0.00    -0.083 Cl
ATOM      6  C   LIG    1       22.519 -20.554   5.490  0.00  0.00    +0.021 A 
ATOM      7  C   LIG    1       22.188 -19.488   4.660  0.00  0.00    +0.003 A 
ATOM      8  C   LIG    1       23.195 -18.804   3.985  0.00  0.00    +0.021 A 
ATOM      9  C   LIG    1       24.540 -19.171   4.140  0.00  0.00    +0.051 A 
ATOM     10 CL   LIG    1       25.682 -18.263   3.212  0.00  0.00    -0.083 Cl
ENDBRANCH   2   3
BRANCH   1  11
ATOM     11  N   LIG    1       28.360 -20.547   6.022  0.00  0.00    -0.155 N 
ATOM     12  H   LIG    1       28.758 -21.128   5.287  0.00  0.00    +0.292 HD
BRANCH  11  15
ATOM     13  N   LIG    1       28.229 -21.391   8.181  0.00  0.00    -0.128 NA
ATOM     14  H   LIG    1       28.851 -21.522   8.982  0.00  0.00    +0.306 HD
ATOM     15  C   LIG    1       28.902 -20.832   7.241  0.00  0.00    +0.400 C 
BRANCH  15  16
ATOM     16  N   LIG    1       30.195 -20.460   7.369  0.00  0.00    -0.288 N 
ATOM     17  H   LIG    1       30.236 -19.540   7.804  0.00  0.00    +0.255 HD
ATOM     18  H   LIG    1       30.804 -21.134   7.808  0.00  0.00    +0.255 HD
ENDBRANCH  15  16
ENDBRANCH  11  15
ENDBRANCH   1  11
TORSDOF 4
ENDMDL
MODEL 7
REMARK VINA RESULT:      -6.2      4.645      5.939
REMARK  Name = *****
REMARK                            x       y       z     vdW  Elec       q    Type
REMARK                         _______ _______ _______ _____ _____    ______ ____
ROOT
ATOM      1  N   LIG    1       25.724 -24.973   5.731  0.00  0.00    -0.119 NA
ATOM      2  C   LIG    1       25.619 -24.405   6.889  0.00  0.00    +0.159 C 
ENDROOT
BRANCH   2   3
ATOM      3  C   LIG    1       25.164 -23.006   7.058  0.00  0.00    +0.033 A 
ATOM      4  C   LIG    1       23.784 -22.740   6.996  0.00  0.00    +0.051 A 
ATOM      5 CL   LIG    1       22.596 -23.974   6.736  0.00  0.00    -0.083 Cl
ATOM      6  C   LIG    1       23.299 -21.439   7.182  0.00  0.00    +0.021 A 
ATOM      7  C   LIG    1       24.181 -20.389   7.414  0.00  0.00    +0.003 A 
ATOM      8  C   LIG    1       25.550 -20.639   7.463  0.00  0.00    +0.021 A 
ATOM      9  C   LIG    1       26.048 -21.939   7.291  0.00  0.00    +0.051 A 
ATOM     10 CL   LIG    1       27.770 -22.100   7.334  0.00  0.00    -0.083 Cl
ENDBRANCH   2   3
BRANCH   1  11
ATOM     11  N   LIG    1       26.237 -26.241   5.774  0.00  0.00    -0.155 N 
ATOM     12  H   LIG    1       27.022 -26.497   5.179  0.00  0.00    +0.292 HD
BRANCH  11  15
ATOM     13  N   LIG    1       25.969 -28.131   7.098  0.00  0.00    -0.128 NA
ATOM     14  H   LIG    1       25.265 -28.857   7.248  0.00  0.00    +0.306 HD
ATOM     15  C   LIG    1       25.536 -27.337   6.186  0.00  0.00    +0.400 C 
BRANCH  15  16
ATOM     16  N   LIG    1       24.365 -27.517   5.536  0.00  0.00    -0.288 N 
ATOM     17  H   LIG    1       24.004 -26.611   5.241  0.00  0.00    +0.255 HD
ATOM     18  H   LIG    1       24.375 -28.200   4.793  0.00  0.00    +0.255 HD
ENDBRANCH  15  16
ENDBRANCH  11  15
ENDBRANCH   1  11
TORSDOF 4
ENDMDL
MODEL 8
REMARK VINA RESULT:      -6.2      2.358      2.985
REMARK  Name = *****
REMARK                            x       y       z     vdW  Elec       q    Type
REMARK                         _______ _______ _______ _____ _____    ______ ____
ROOT
ATOM      1  N   LIG    1       27.438 -21.593   6.872  0.00  0.00    -0.119 NA
ATOM      2  C   LIG    1       26.887 -22.694   7.272  0.00  0.00    +0.159 C 
ENDROOT
BRANCH   2   3
ATOM      3  C   LIG    1       25.447 -22.983   7.087  0.00  0.00    +0.033 A 
ATOM      4  C   LIG    1       25.075 -24.262   6.633  0.00  0.00    +0.051 A 
ATOM      5 CL   LIG    1       26.225 -25.511   6.286  0.00  0.00    -0.083 Cl
ATOM      6  C   LIG    1       23.725 -24.597   6.472  0.00  0.00    +0.021 A 
ATOM      7  C   LIG    1       22.733 -23.661   6.745  0.00  0.00    +0.003 A 
ATOM      8  C   LIG    1       23.090 -22.388   7.181  0.00  0.00    +0.021 A 
ATOM      9  C   LIG    1       24.438 -22.043   7.357  0.00  0.00    +0.051 A 
ATOM     10 CL   LIG    1       24.741 -20.417   7.864  0.00  0.00    -0.083 Cl
ENDBRANCH   2   3
BRANCH   1  11
ATOM     11  N   LIG    1       28.760 -21.476   7.206  0.00  0.00    -0.155 N 
ATOM     12  H   LIG    1       29.159 -22.063   7.935  0.00  0.00    +0.292 HD
BRANCH  11  15
ATOM     13  N   LIG    1       29.095 -19.376   6.271  0.00  0.00    -0.128 NA
ATOM     14  H   LIG    1       29.811 -18.646   6.285  0.00  0.00    +0.306 HD
ATOM     15  C   LIG    1       29.506 -20.353   6.997  0.00  0.00    +0.400 C 
BRANCH  15  16
ATOM     16  N   LIG    1       30.712 -20.372   7.606  0.00  0.00    -0.288 N 
ATOM     17  H   LIG    1       31.444 -20.275   6.903  0.00  0.00    +0.255 HD
ATOM     18  H   LIG    1       30.823 -19.737   8.383  0.00  0.00    +0.255 HD
ENDBRANCH  15  16
ENDBRANCH  11  15
ENDBRANCH   1  11
TORSDOF 4
ENDMDL
MODEL 9
REMARK VINA RESULT:      -6.1      2.332      2.880
REMARK  Name = *****
REMARK                            x       y       z     vdW  Elec       q    Type
REMARK                         _______ _______ _______ _____ _____    ______ ____
ROOT
ATOM      1  N   LIG    1       27.446 -21.579   6.831  0.00  0.00    -0.119 NA
ATOM      2  C   LIG    1       26.927 -22.663   7.311  0.00  0.00    +0.159 C 
ENDROOT
BRANCH   2   3
ATOM      3  C   LIG    1       25.504 -23.023   7.121  0.00  0.00    +0.033 A 
ATOM      4  C   LIG    1       24.525 -22.055   7.412  0.00  0.00    +0.051 A 
ATOM      5 CL   LIG    1       24.912 -20.464   7.977  0.00  0.00    -0.083 Cl
ATOM      6  C   LIG    1       23.167 -22.334   7.218  0.00  0.00    +0.021 A 
ATOM      7  C   LIG    1       22.767 -23.581   6.750  0.00  0.00    +0.003 A 
ATOM      8  C   LIG    1       23.726 -24.551   6.473  0.00  0.00    +0.021 A 
ATOM      9  C   LIG    1       25.091 -24.281   6.650  0.00  0.00    +0.051 A 
ATOM     10 CL   LIG    1       26.170 -25.589   6.307  0.00  0.00    -0.083 Cl
ENDBRANCH   2   3
BRANCH   1  11
ATOM     11  N   LIG    1       28.755 -21.382   7.180  0.00  0.00    -0.155 N 
ATOM     12  H   LIG    1       29.153 -21.875   7.977  0.00  0.00    +0.292 HD
BRANCH  11  15
ATOM     13  N   LIG    1       29.017 -19.347   6.091  0.00  0.00    -0.128 NA
ATOM     14  H   LIG    1       29.717 -18.605   6.031  0.00  0.00    +0.306 HD
ATOM     15  C   LIG    1       29.470 -20.262   6.870  0.00  0.00    +0.400 C 
BRANCH  15  16
ATOM     16  N   LIG    1       30.694 -20.215   7.442  0.00  0.00    -0.288 N 
ATOM     17  H   LIG    1       31.402 -20.153   6.712  0.00  0.00    +0.255 HD
ATOM     18  H   LIG    1       30.813 -19.525   8.168  0.00  0.00    +0.255 HD
ENDBRANCH  15  16
ENDBRANCH  11  15
ENDBRANCH   1  11
TORSDOF 4
ENDMDL
