MODEL 1
REMARK VINA RESULT:      -7.0      0.000      0.000
REMARK  Name = *****
REMARK                            x       y       z     vdW  Elec       q    Type
REMARK                         _______ _______ _______ _____ _____    ______ ____
ROOT
ATOM      1  C   LIG    1       23.178 -31.038  10.716  0.00  0.00    +0.008 C 
ATOM      2  C   LIG    1       24.344 -31.911  10.238  0.00  0.00    -0.008 C 
ATOM      3  C   LIG    1       24.291 -32.306   8.746  0.00  0.00    +0.032 C 
ATOM      4  C   LIG    1       24.831 -31.252   7.690  0.00  0.00    +0.161 C 
ATOM      5  C   LIG    1       23.808 -30.668   6.677  0.00  0.00    +0.293 C 
ATOM      6  O   LIG    1       23.157 -31.652   5.878  0.00  0.00    -0.314 OA
ATOM      7  C   LIG    1       23.655 -32.977   6.002  0.00  0.00    +0.203 C 
ATOM      8  O   LIG    1       25.051 -33.182   6.288  0.00  0.00    -0.199 OA
ATOM      9  C   LIG    1       22.861 -33.666   7.114  0.00  0.00    +0.068 C 
ATOM     10  C   LIG    1       23.390 -33.698   4.681  0.00  0.00    +0.077 C 
ATOM     11  O   LIG    1       24.407 -29.800   5.713  0.00  0.00    -0.309 OA
ATOM     12  C   LIG    1       25.241 -28.754   6.179  0.00  0.00    +0.316 C 
ATOM     13  C   LIG    1       25.386 -28.714   7.703  0.00  0.00    +0.061 C 
ATOM     14  C   LIG    1       26.403 -27.641   8.129  0.00  0.00    +0.014 C 
ATOM     15  C   LIG    1       25.751 -30.116   8.273  0.00  0.00    +0.038 C 
ATOM     16  C   LIG    1       25.841 -29.989   9.803  0.00  0.00    +0.007 C 
ATOM     17  O   LIG    1       25.712 -31.967   6.767  0.00  0.00    -0.220 OA
ATOM     18  C   LIG    1       22.896 -32.871   8.415  0.00  0.00    +0.012 C 
ATOM     19  C   LIG    1       25.695 -31.289  10.548  0.00  0.00    +0.004 C 
ENDROOT
BRANCH  12  20
ATOM     20  O   LIG    1       24.652 -27.520   5.725  0.00  0.00    -0.435 OA
BRANCH  20  21
ATOM     21  C   LIG    1       25.475 -26.630   5.118  0.00  0.00    +0.310 C 
ATOM     22  O   LIG    1       26.525 -26.890   4.540  0.00  0.00    -0.251 OA
BRANCH  21  23
ATOM     23  C   LIG    1       24.886 -25.243   5.186  0.00  0.00    +0.132 C 
BRANCH  23  24
ATOM     24  C   LIG    1       24.406 -24.887   6.594  0.00  0.00    +0.131 C 
BRANCH  24  25
ATOM     25  C   LIG    1       23.561 -23.633   6.656  0.00  0.00    +0.305 C 
ATOM     26  O   LIG    1       24.011 -22.501   6.665  0.00  0.00    -0.251 OA
BRANCH  25  27
ATOM     27  O   LIG    1       22.225 -23.888   6.624  0.00  0.00    -0.481 OA
ATOM     28  H   LIG    1       21.917 -24.691   7.137  0.00  0.00    +0.295 HD
ENDBRANCH  25  27
ENDBRANCH  24  25
ENDBRANCH  23  24
ENDBRANCH  21  23
ENDBRANCH  20  21
ENDBRANCH  12  20
TORSDOF 6
ENDMDL
MODEL 2
REMARK VINA RESULT:      -6.9      1.934      3.734
REMARK  Name = *****
REMARK                            x       y       z     vdW  Elec       q    Type
REMARK                         _______ _______ _______ _____ _____    ______ ____
ROOT
ATOM      1  C   LIG    1       27.255 -32.715   6.936  0.00  0.00    +0.008 C 
ATOM      2  C   LIG    1       25.773 -32.765   7.328  0.00  0.00    -0.008 C 
ATOM      3  C   LIG    1       25.348 -31.734   8.397  0.00  0.00    +0.032 C 
ATOM      4  C   LIG    1       25.024 -30.261   7.905  0.00  0.00    +0.161 C 
ATOM      5  C   LIG    1       25.943 -29.119   8.419  0.00  0.00    +0.293 C 
ATOM      6  O   LIG    1       25.990 -29.005   9.839  0.00  0.00    -0.314 OA
ATOM      7  C   LIG    1       25.074 -29.822  10.554  0.00  0.00    +0.203 C 
ATOM      8  O   LIG    1       23.800 -30.140   9.962  0.00  0.00    -0.199 OA
ATOM      9  C   LIG    1       25.775 -31.149  10.853  0.00  0.00    +0.068 C 
ATOM     10  C   LIG    1       24.756 -29.118  11.873  0.00  0.00    +0.077 C 
ATOM     11  O   LIG    1       25.517 -27.823   7.995  0.00  0.00    -0.309 OA
ATOM     12  C   LIG    1       25.256 -27.619   6.618  0.00  0.00    +0.316 C 
ATOM     13  C   LIG    1       25.473 -28.868   5.758  0.00  0.00    +0.061 C 
ATOM     14  C   LIG    1       25.048 -28.613   4.302  0.00  0.00    +0.014 C 
ATOM     15  C   LIG    1       24.745 -30.104   6.365  0.00  0.00    +0.038 C 
ATOM     16  C   LIG    1       25.045 -31.312   5.461  0.00  0.00    +0.007 C 
ATOM     17  O   LIG    1       23.761 -29.859   8.526  0.00  0.00    -0.220 OA
ATOM     18  C   LIG    1       26.324 -31.800   9.588  0.00  0.00    +0.012 C 
ATOM     19  C   LIG    1       24.854 -32.651   6.124  0.00  0.00    +0.004 C 
ENDROOT
BRANCH  12  20
ATOM     20  O   LIG    1       26.149 -26.578   6.175  0.00  0.00    -0.435 OA
BRANCH  20  21
ATOM     21  C   LIG    1       25.586 -25.407   5.787  0.00  0.00    +0.310 C 
ATOM     22  O   LIG    1       25.065 -25.177   4.701  0.00  0.00    -0.251 OA
BRANCH  21  23
ATOM     23  C   LIG    1       25.621 -24.411   6.919  0.00  0.00    +0.132 C 
BRANCH  23  24
ATOM     24  C   LIG    1       24.975 -23.078   6.536  0.00  0.00    +0.131 C 
BRANCH  24  25
ATOM     25  C   LIG    1       23.543 -22.933   7.005  0.00  0.00    +0.305 C 
ATOM     26  O   LIG    1       23.126 -21.994   7.660  0.00  0.00    -0.251 OA
BRANCH  25  27
ATOM     27  O   LIG    1       22.731 -23.927   6.556  0.00  0.00    -0.481 OA
ATOM     28  H   LIG    1       22.956 -24.853   6.863  0.00  0.00    +0.295 HD
ENDBRANCH  25  27
ENDBRANCH  24  25
ENDBRANCH  23  24
ENDBRANCH  21  23
ENDBRANCH  20  21
ENDBRANCH  12  20
TORSDOF 6
ENDMDL
MODEL 3
REMARK VINA RESULT:      -6.5      7.360     10.265
REMARK  Name = *****
REMARK                            x       y       z     vdW  Elec       q    Type
REMARK                         _______ _______ _______ _____ _____    ______ ____
ROOT
ATOM      1  C   LIG    1       24.350 -24.689   5.435  0.00  0.00    +0.008 C 
ATOM      2  C   LIG    1       24.010 -24.091   6.805  0.00  0.00    -0.008 C 
ATOM      3  C   LIG    1       24.887 -22.891   7.227  0.00  0.00    +0.032 C 
ATOM      4  C   LIG    1       24.493 -21.462   6.661  0.00  0.00    +0.161 C 
ATOM      5  C   LIG    1       25.511 -20.762   5.720  0.00  0.00    +0.293 C 
ATOM      6  O   LIG    1       26.796 -20.559   6.301  0.00  0.00    -0.314 OA
ATOM      7  C   LIG    1       26.902 -20.862   7.685  0.00  0.00    +0.203 C 
ATOM      8  O   LIG    1       25.758 -20.676   8.539  0.00  0.00    -0.199 OA
ATOM      9  C   LIG    1       27.318 -22.330   7.805  0.00  0.00    +0.068 C 
ATOM     10  C   LIG    1       28.006 -19.982   8.270  0.00  0.00    +0.077 C 
ATOM     11  O   LIG    1       25.108 -19.446   5.337  0.00  0.00    -0.309 OA
ATOM     12  C   LIG    1       23.802 -19.268   4.817  0.00  0.00    +0.316 C 
ATOM     13  C   LIG    1       22.986 -20.563   4.745  0.00  0.00    +0.061 C 
ATOM     14  C   LIG    1       21.543 -20.278   4.295  0.00  0.00    +0.014 C 
ATOM     15  C   LIG    1       23.030 -21.333   6.098  0.00  0.00    +0.038 C 
ATOM     16  C   LIG    1       22.219 -22.629   5.923  0.00  0.00    +0.007 C 
ATOM     17  O   LIG    1       24.512 -20.525   7.785  0.00  0.00    -0.220 OA
ATOM     18  C   LIG    1       26.374 -23.254   7.042  0.00  0.00    +0.012 C 
ATOM     19  C   LIG    1       22.544 -23.709   6.920  0.00  0.00    +0.004 C 
ENDROOT
BRANCH  12  20
ATOM     20  O   LIG    1       23.954 -18.729   3.489  0.00  0.00    -0.435 OA
BRANCH  20  21
ATOM     21  C   LIG    1       25.169 -18.223   3.164  0.00  0.00    +0.310 C 
ATOM     22  O   LIG    1       26.097 -18.838   2.652  0.00  0.00    -0.251 OA
BRANCH  21  23
ATOM     23  C   LIG    1       25.214 -16.744   3.459  0.00  0.00    +0.132 C 
BRANCH  23  24
ATOM     24  C   LIG    1       26.642 -16.196   3.446  0.00  0.00    +0.131 C 
BRANCH  24  25
ATOM     25  C   LIG    1       26.724 -14.701   3.229  0.00  0.00    +0.305 C 
ATOM     26  O   LIG    1       26.959 -13.890   4.108  0.00  0.00    -0.251 OA
BRANCH  25  27
ATOM     27  O   LIG    1       26.583 -14.342   1.924  0.00  0.00    -0.481 OA
ATOM     28  H   LIG    1       27.253 -14.726   1.287  0.00  0.00    +0.295 HD
ENDBRANCH  25  27
ENDBRANCH  24  25
ENDBRANCH  23  24
ENDBRANCH  21  23
ENDBRANCH  20  21
ENDBRANCH  12  20
TORSDOF 6
ENDMDL
MODEL 4
REMARK VINA RESULT:      -6.5      2.823      4.547
REMARK  Name = *****
REMARK                            x       y       z     vdW  Elec       q    Type
REMARK                         _______ _______ _______ _____ _____    ______ ____
ROOT
ATOM      1  C   LIG    1       23.122 -27.509  13.166  0.00  0.00    +0.008 C 
ATOM      2  C   LIG    1       23.540 -28.931  13.561  0.00  0.00    -0.008 C 
ATOM      3  C   LIG    1       22.787 -30.059  12.822  0.00  0.00    +0.032 C 
ATOM      4  C   LIG    1       23.304 -30.459  11.377  0.00  0.00    +0.161 C 
ATOM      5  C   LIG    1       22.341 -30.217  10.182  0.00  0.00    +0.293 C 
ATOM      6  O   LIG    1       21.091 -30.891  10.299  0.00  0.00    -0.314 OA
ATOM      7  C   LIG    1       20.980 -31.804  11.381  0.00  0.00    +0.203 C 
ATOM      8  O   LIG    1       22.151 -32.509  11.833  0.00  0.00    -0.199 OA
ATOM      9  C   LIG    1       20.430 -31.029  12.582  0.00  0.00    +0.068 C 
ATOM     10  C   LIG    1       19.974 -32.881  10.980  0.00  0.00    +0.077 C 
ATOM     11  O   LIG    1       22.860 -30.692   8.938  0.00  0.00    -0.309 OA
ATOM     12  C   LIG    1       24.168 -30.298   8.562  0.00  0.00    +0.316 C 
ATOM     13  C   LIG    1       24.857 -29.391   9.588  0.00  0.00    +0.061 C 
ATOM     14  C   LIG    1       26.313 -29.109   9.179  0.00  0.00    +0.014 C 
ATOM     15  C   LIG    1       24.764 -29.989  11.022  0.00  0.00    +0.038 C 
ATOM     16  C   LIG    1       25.446 -29.002  11.984  0.00  0.00    +0.007 C 
ATOM     17  O   LIG    1       23.393 -31.918  11.331  0.00  0.00    -0.220 OA
ATOM     18  C   LIG    1       21.270 -29.797  12.898  0.00  0.00    +0.012 C 
ATOM     19  C   LIG    1       25.037 -29.150  13.426  0.00  0.00    +0.004 C 
ENDROOT
BRANCH  12  20
ATOM     20  O   LIG    1       24.045 -29.592   7.312  0.00  0.00    -0.435 OA
BRANCH  20  21
ATOM     21  C   LIG    1       24.500 -30.222   6.201  0.00  0.00    +0.310 C 
ATOM     22  O   LIG    1       24.406 -31.420   5.957  0.00  0.00    -0.251 OA
BRANCH  21  23
ATOM     23  C   LIG    1       25.093 -29.223   5.239  0.00  0.00    +0.132 C 
BRANCH  23  24
ATOM     24  C   LIG    1       25.153 -27.815   5.833  0.00  0.00    +0.131 C 
BRANCH  24  25
ATOM     25  C   LIG    1       26.012 -26.851   5.044  0.00  0.00    +0.305 C 
ATOM     26  O   LIG    1       25.630 -25.772   4.627  0.00  0.00    -0.251 OA
BRANCH  25  27
ATOM     27  O   LIG    1       27.297 -27.273   4.904  0.00  0.00    -0.481 OA
ATOM     28  H   LIG    1       27.501 -28.189   5.254  0.00  0.00    +0.295 HD
ENDBRANCH  25  27
ENDBRANCH  24  25
ENDBRANCH  23  24
ENDBRANCH  21  23
ENDBRANCH  20  21
ENDBRANCH  12  20
TORSDOF 6
ENDMDL
MODEL 5
REMARK VINA RESULT:      -6.3      3.276      9.338
REMARK  Name = *****
REMARK                            x       y       z     vdW  Elec       q    Type
REMARK                         _______ _______ _______ _____ _____    ______ ____
ROOT
ATOM      1  C   LIG    1       28.111 -20.745   5.362  0.00  0.00    +0.008 C 
ATOM      2  C   LIG    1       27.189 -20.054   6.374  0.00  0.00    -0.008 C 
ATOM      3  C   LIG    1       25.689 -20.069   6.003  0.00  0.00    +0.032 C 
ATOM      4  C   LIG    1       24.862 -21.376   6.354  0.00  0.00    +0.161 C 
ATOM      5  C   LIG    1       24.273 -22.187   5.167  0.00  0.00    +0.293 C 
ATOM      6  O   LIG    1       23.395 -21.438   4.331  0.00  0.00    -0.314 OA
ATOM      7  C   LIG    1       23.058 -20.139   4.797  0.00  0.00    +0.203 C 
ATOM      8  O   LIG    1       22.985 -19.893   6.213  0.00  0.00    -0.199 OA
ATOM      9  C   LIG    1       24.088 -19.163   4.222  0.00  0.00    +0.068 C 
ATOM     10  C   LIG    1       21.678 -19.790   4.241  0.00  0.00    +0.077 C 
ATOM     11  O   LIG    1       23.471 -23.293   5.586  0.00  0.00    -0.309 OA
ATOM     12  C   LIG    1       24.013 -24.194   6.535  0.00  0.00    +0.316 C 
ATOM     13  C   LIG    1       25.430 -23.831   6.990  0.00  0.00    +0.061 C 
ATOM     14  C   LIG    1       25.905 -24.772   8.111  0.00  0.00    +0.014 C 
ATOM     15  C   LIG    1       25.521 -22.335   7.413  0.00  0.00    +0.038 C 
ATOM     16  C   LIG    1       26.978 -22.052   7.818  0.00  0.00    +0.007 C 
ATOM     17  O   LIG    1       23.621 -20.950   7.001  0.00  0.00    -0.220 OA
ATOM     18  C   LIG    1       25.516 -19.584   4.550  0.00  0.00    +0.012 C 
ATOM     19  C   LIG    1       27.366 -20.598   7.781  0.00  0.00    +0.004 C 
ENDROOT
BRANCH  12  20
ATOM     20  O   LIG    1       24.033 -25.492   5.910  0.00  0.00    -0.435 OA
BRANCH  20  21
ATOM     21  C   LIG    1       25.002 -25.718   4.989  0.00  0.00    +0.310 C 
ATOM     22  O   LIG    1       25.267 -25.007   4.026  0.00  0.00    -0.251 OA
BRANCH  21  23
ATOM     23  C   LIG    1       25.783 -26.958   5.346  0.00  0.00    +0.132 C 
BRANCH  23  24
ATOM     24  C   LIG    1       24.983 -27.908   6.238  0.00  0.00    +0.131 C 
BRANCH  24  25
ATOM     25  C   LIG    1       24.573 -29.194   5.554  0.00  0.00    +0.305 C 
ATOM     26  O   LIG    1       25.347 -30.076   5.225  0.00  0.00    -0.251 OA
BRANCH  25  27
ATOM     27  O   LIG    1       23.226 -29.313   5.405  0.00  0.00    -0.481 OA
ATOM     28  H   LIG    1       22.693 -28.475   5.530  0.00  0.00    +0.295 HD
ENDBRANCH  25  27
ENDBRANCH  24  25
ENDBRANCH  23  24
ENDBRANCH  21  23
ENDBRANCH  20  21
ENDBRANCH  12  20
TORSDOF 6
ENDMDL
MODEL 6
REMARK VINA RESULT:      -5.9      3.259      5.634
REMARK  Name = *****
REMARK                            x       y       z     vdW  Elec       q    Type
REMARK                         _______ _______ _______ _____ _____    ______ ____
ROOT
ATOM      1  C   LIG    1       25.738 -33.738   6.208  0.00  0.00    +0.008 C 
ATOM      2  C   LIG    1       26.749 -32.670   6.642  0.00  0.00    -0.008 C 
ATOM      3  C   LIG    1       26.191 -31.230   6.694  0.00  0.00    +0.032 C 
ATOM      4  C   LIG    1       25.392 -30.802   7.996  0.00  0.00    +0.161 C 
ATOM      5  C   LIG    1       23.888 -30.450   7.826  0.00  0.00    +0.293 C 
ATOM      6  O   LIG    1       23.640 -29.391   6.906  0.00  0.00    -0.314 OA
ATOM      7  C   LIG    1       24.790 -28.711   6.423  0.00  0.00    +0.203 C 
ATOM      8  O   LIG    1       25.946 -28.586   7.272  0.00  0.00    -0.199 OA
ATOM      9  C   LIG    1       25.244 -29.424   5.146  0.00  0.00    +0.068 C 
ATOM     10  C   LIG    1       24.373 -27.283   6.074  0.00  0.00    +0.077 C 
ATOM     11  O   LIG    1       23.280 -29.991   9.035  0.00  0.00    -0.309 OA
ATOM     12  C   LIG    1       23.441 -30.770  10.206  0.00  0.00    +0.316 C 
ATOM     13  C   LIG    1       24.280 -32.035   9.994  0.00  0.00    +0.061 C 
ATOM     14  C   LIG    1       24.522 -32.763  11.327  0.00  0.00    +0.014 C 
ATOM     15  C   LIG    1       25.614 -31.711   9.261  0.00  0.00    +0.038 C 
ATOM     16  C   LIG    1       26.370 -33.036   9.059  0.00  0.00    +0.007 C 
ATOM     17  O   LIG    1       25.905 -29.498   8.416  0.00  0.00    -0.220 OA
ATOM     18  C   LIG    1       25.460 -30.916   5.374  0.00  0.00    +0.012 C 
ATOM     19  C   LIG    1       27.407 -33.004   7.969  0.00  0.00    +0.004 C 
ENDROOT
BRANCH  12  20
ATOM     20  O   LIG    1       22.119 -31.145  10.641  0.00  0.00    -0.435 OA
BRANCH  20  21
ATOM     21  C   LIG    1       21.494 -30.308  11.504  0.00  0.00    +0.310 C 
ATOM     22  O   LIG    1       20.294 -30.290  11.757  0.00  0.00    -0.251 OA
BRANCH  21  23
ATOM     23  C   LIG    1       22.500 -29.415  12.187  0.00  0.00    +0.132 C 
BRANCH  23  24
ATOM     24  C   LIG    1       21.896 -28.670  13.378  0.00  0.00    +0.131 C 
BRANCH  24  25
ATOM     25  C   LIG    1       21.449 -27.260  13.059  0.00  0.00    +0.305 C 
ATOM     26  O   LIG    1       22.166 -26.277  13.132  0.00  0.00    -0.251 OA
BRANCH  25  27
ATOM     27  O   LIG    1       20.170 -27.197  12.599  0.00  0.00    -0.481 OA
ATOM     28  H   LIG    1       19.771 -26.281  12.532  0.00  0.00    +0.295 HD
ENDBRANCH  25  27
ENDBRANCH  24  25
ENDBRANCH  23  24
ENDBRANCH  21  23
ENDBRANCH  20  21
ENDBRANCH  12  20
TORSDOF 6
ENDMDL
MODEL 7
REMARK VINA RESULT:      -5.9      4.941      7.170
REMARK  Name = *****
REMARK                            x       y       z     vdW  Elec       q    Type
REMARK                         _______ _______ _______ _____ _____    ______ ____
ROOT
ATOM      1  C   LIG    1       24.754 -29.280   7.493  0.00  0.00    +0.008 C 
ATOM      2  C   LIG    1       25.414 -30.463   8.211  0.00  0.00    -0.008 C 
ATOM      3  C   LIG    1       25.817 -30.191   9.677  0.00  0.00    +0.032 C 
ATOM      4  C   LIG    1       24.689 -30.329  10.784  0.00  0.00    +0.161 C 
ATOM      5  C   LIG    1       24.294 -29.045  11.565  0.00  0.00    +0.293 C 
ATOM      6  O   LIG    1       25.379 -28.429  12.254  0.00  0.00    -0.314 OA
ATOM      7  C   LIG    1       26.596 -29.160  12.269  0.00  0.00    +0.203 C 
ATOM      8  O   LIG    1       26.556 -30.599  12.261  0.00  0.00    -0.199 OA
ATOM      9  C   LIG    1       27.409 -28.725  11.046  0.00  0.00    +0.068 C 
ATOM     10  C   LIG    1       27.357 -28.771  13.536  0.00  0.00    +0.077 C 
ATOM     11  O   LIG    1       23.339 -29.289  12.599  0.00  0.00    -0.309 OA
ATOM     12  C   LIG    1       22.163 -30.007  12.270  0.00  0.00    +0.316 C 
ATOM     13  C   LIG    1       22.092 -30.435  10.801  0.00  0.00    +0.061 C 
ATOM     14  C   LIG    1       20.858 -31.317  10.544  0.00  0.00    +0.014 C 
ATOM     15  C   LIG    1       23.409 -31.137  10.354  0.00  0.00    +0.038 C 
ATOM     16  C   LIG    1       23.263 -31.498   8.866  0.00  0.00    +0.007 C 
ATOM     17  O   LIG    1       25.244 -31.124  11.880  0.00  0.00    -0.220 OA
ATOM     18  C   LIG    1       26.616 -28.874   9.753  0.00  0.00    +0.012 C 
ATOM     19  C   LIG    1       24.567 -31.722   8.147  0.00  0.00    +0.004 C 
ENDROOT
BRANCH  12  20
ATOM     20  O   LIG    1       21.050 -29.140  12.565  0.00  0.00    -0.435 OA
BRANCH  20  21
ATOM     21  C   LIG    1       21.141 -28.380  13.684  0.00  0.00    +0.310 C 
ATOM     22  O   LIG    1       21.211 -28.791  14.837  0.00  0.00    -0.251 OA
BRANCH  21  23
ATOM     23  C   LIG    1       21.215 -26.918  13.318  0.00  0.00    +0.132 C 
BRANCH  23  24
ATOM     24  C   LIG    1       19.849 -26.350  12.928  0.00  0.00    +0.131 C 
BRANCH  24  25
ATOM     25  C   LIG    1       18.877 -26.243  14.082  0.00  0.00    +0.305 C 
ATOM     26  O   LIG    1       17.668 -26.350  13.976  0.00  0.00    -0.251 OA
BRANCH  25  27
ATOM     27  O   LIG    1       19.492 -26.088  15.286  0.00  0.00    -0.481 OA
ATOM     28  H   LIG    1       20.336 -26.609  15.419  0.00  0.00    +0.295 HD
ENDBRANCH  25  27
ENDBRANCH  24  25
ENDBRANCH  23  24
ENDBRANCH  21  23
ENDBRANCH  20  21
ENDBRANCH  12  20
TORSDOF 6
ENDMDL
MODEL 8
REMARK VINA RESULT:      -5.8      4.594      6.978
REMARK  Name = *****
REMARK                            x       y       z     vdW  Elec       q    Type
REMARK                         _______ _______ _______ _____ _____    ______ ____
ROOT
ATOM      1  C   LIG    1       24.830 -29.330   7.329  0.00  0.00    +0.008 C 
ATOM      2  C   LIG    1       25.547 -30.479   8.049  0.00  0.00    -0.008 C 
ATOM      3  C   LIG    1       25.907 -30.197   9.525  0.00  0.00    +0.032 C 
ATOM      4  C   LIG    1       24.769 -30.413  10.610  0.00  0.00    +0.161 C 
ATOM      5  C   LIG    1       24.284 -29.163  11.394  0.00  0.00    +0.293 C 
ATOM      6  O   LIG    1       25.317 -28.489  12.108  0.00  0.00    -0.314 OA
ATOM      7  C   LIG    1       26.576 -29.146  12.139  0.00  0.00    +0.203 C 
ATOM      8  O   LIG    1       26.623 -30.585  12.118  0.00  0.00    -0.199 OA
ATOM      9  C   LIG    1       27.383 -28.652  10.935  0.00  0.00    +0.068 C 
ATOM     10  C   LIG    1       27.289 -28.725  13.423  0.00  0.00    +0.077 C 
ATOM     11  O   LIG    1       23.326 -29.473  12.408  0.00  0.00    -0.309 OA
ATOM     12  C   LIG    1       22.202 -30.258  12.051  0.00  0.00    +0.316 C 
ATOM     13  C   LIG    1       22.184 -30.675  10.577  0.00  0.00    +0.061 C 
ATOM     14  C   LIG    1       21.010 -31.627  10.291  0.00  0.00    +0.014 C 
ATOM     15  C   LIG    1       23.548 -31.292  10.149  0.00  0.00    +0.038 C 
ATOM     16  C   LIG    1       23.451 -31.646   8.655  0.00  0.00    +0.007 C 
ATOM     17  O   LIG    1       25.351 -31.183  11.708  0.00  0.00    -0.220 OA
ATOM     18  C   LIG    1       26.623 -28.836   9.626  0.00  0.00    +0.012 C 
ATOM     19  C   LIG    1       24.778 -31.785   7.958  0.00  0.00    +0.004 C 
ENDROOT
BRANCH  12  20
ATOM     20  O   LIG    1       21.034 -29.461  12.333  0.00  0.00    -0.435 OA
BRANCH  20  21
ATOM     21  C   LIG    1       20.826 -29.108  13.625  0.00  0.00    +0.310 C 
ATOM     22  O   LIG    1       21.057 -29.798  14.612  0.00  0.00    -0.251 OA
BRANCH  21  23
ATOM     23  C   LIG    1       20.322 -27.688  13.703  0.00  0.00    +0.132 C 
BRANCH  23  24
ATOM     24  C   LIG    1       21.337 -26.684  13.155  0.00  0.00    +0.131 C 
BRANCH  24  25
ATOM     25  C   LIG    1       22.521 -26.447  14.066  0.00  0.00    +0.305 C 
ATOM     26  O   LIG    1       22.438 -26.246  15.265  0.00  0.00    -0.251 OA
BRANCH  25  27
ATOM     27  O   LIG    1       23.717 -26.558  13.427  0.00  0.00    -0.481 OA
ATOM     28  H   LIG    1       24.531 -26.548  14.010  0.00  0.00    +0.295 HD
ENDBRANCH  25  27
ENDBRANCH  24  25
ENDBRANCH  23  24
ENDBRANCH  21  23
ENDBRANCH  20  21
ENDBRANCH  12  20
TORSDOF 6
ENDMDL
MODEL 9
REMARK VINA RESULT:      -5.8      4.498      6.785
REMARK  Name = *****
REMARK                            x       y       z     vdW  Elec       q    Type
REMARK                         _______ _______ _______ _____ _____    ______ ____
ROOT
ATOM      1  C   LIG    1       25.626 -25.156  13.315  0.00  0.00    +0.008 C 
ATOM      2  C   LIG    1       25.190 -26.053  14.479  0.00  0.00    -0.008 C 
ATOM      3  C   LIG    1       24.217 -27.190  14.095  0.00  0.00    +0.032 C 
ATOM      4  C   LIG    1       24.844 -28.517  13.490  0.00  0.00    +0.161 C 
ATOM      5  C   LIG    1       24.473 -28.878  12.026  0.00  0.00    +0.293 C 
ATOM      6  O   LIG    1       23.073 -29.025  11.801  0.00  0.00    -0.314 OA
ATOM      7  C   LIG    1       22.255 -28.993  12.962  0.00  0.00    +0.203 C 
ATOM      8  O   LIG    1       22.776 -29.492  14.208  0.00  0.00    -0.199 OA
ATOM      9  C   LIG    1       21.845 -27.537  13.196  0.00  0.00    +0.068 C 
ATOM     10  C   LIG    1       21.004 -29.822  12.672  0.00  0.00    +0.077 C 
ATOM     11  O   LIG    1       25.012 -30.132  11.604  0.00  0.00    -0.309 OA
ATOM     12  C   LIG    1       26.394 -30.369  11.800  0.00  0.00    +0.316 C 
ATOM     13  C   LIG    1       27.131 -29.202  12.465  0.00  0.00    +0.061 C 
ATOM     14  C   LIG    1       28.593 -29.575  12.764  0.00  0.00    +0.014 C 
ATOM     15  C   LIG    1       26.384 -28.717  13.742  0.00  0.00    +0.038 C 
ATOM     16  C   LIG    1       27.171 -27.528  14.320  0.00  0.00    +0.007 C 
ATOM     17  O   LIG    1       24.232 -29.648  14.187  0.00  0.00    -0.220 OA
ATOM     18  C   LIG    1       23.053 -26.610  13.267  0.00  0.00    +0.012 C 
ATOM     19  C   LIG    1       26.373 -26.636  15.233  0.00  0.00    +0.004 C 
ENDROOT
BRANCH  12  20
ATOM     20  O   LIG    1       26.963 -30.609  10.498  0.00  0.00    -0.435 OA
BRANCH  20  21
ATOM     21  C   LIG    1       26.635 -29.739   9.512  0.00  0.00    +0.310 C 
ATOM     22  O   LIG    1       26.971 -28.562   9.441  0.00  0.00    -0.251 OA
BRANCH  21  23
ATOM     23  C   LIG    1       25.835 -30.440   8.442  0.00  0.00    +0.132 C 
BRANCH  23  24
ATOM     24  C   LIG    1       24.992 -29.465   7.618  0.00  0.00    +0.131 C 
BRANCH  24  25
ATOM     25  C   LIG    1       24.031 -30.139   6.663  0.00  0.00    +0.305 C 
ATOM     26  O   LIG    1       23.657 -31.294   6.764  0.00  0.00    -0.251 OA
BRANCH  25  27
ATOM     27  O   LIG    1       23.554 -29.299   5.705  0.00  0.00    -0.481 OA
ATOM     28  H   LIG    1       24.002 -28.406   5.639  0.00  0.00    +0.295 HD
ENDBRANCH  25  27
ENDBRANCH  24  25
ENDBRANCH  23  24
ENDBRANCH  21  23
ENDBRANCH  20  21
ENDBRANCH  12  20
TORSDOF 6
ENDMDL
