MODEL 1
REMARK VINA RESULT:      -0.2      0.000      0.000
REMARK  Name = *****
REMARK                            x       y       z     vdW  Elec       q    Type
REMARK                         _______ _______ _______ _____ _____    ______ ____
ROOT
ATOM      1  C   LIG    1       25.462 -20.313   7.004  0.00  0.00    +0.008 C 
ATOM      2  C   LIG    1       25.258 -20.896   5.600  0.00  0.00    -0.008 C 
ATOM      3  C   LIG    1       24.064 -20.305   4.818  0.00  0.00    +0.032 C 
ATOM      4  C   LIG    1       24.296 -18.930   4.060  0.00  0.00    +0.161 C 
ATOM      5  C   LIG    1       23.471 -17.704   4.539  0.00  0.00    +0.293 C 
ATOM      6  O   LIG    1       22.059 -17.895   4.481  0.00  0.00    -0.314 OA
ATOM      7  C   LIG    1       21.624 -19.088   3.843  0.00  0.00    +0.203 C 
ATOM      8  O   LIG    1       22.407 -19.641   2.769  0.00  0.00    -0.199 OA
ATOM      9  C   LIG    1       21.510 -20.170   4.920  0.00  0.00    +0.068 C 
ATOM     10  C   LIG    1       20.239 -18.821   3.256  0.00  0.00    +0.077 C 
ATOM     11  O   LIG    1       23.681 -16.539   3.739  0.00  0.00    -0.309 OA
ATOM     12  C   LIG    1       25.014 -16.128   3.490  0.00  0.00    +0.316 C 
ATOM     13  C   LIG    1       26.069 -17.032   4.136  0.00  0.00    +0.061 C 
ATOM     14  C   LIG    1       27.487 -16.605   3.720  0.00  0.00    +0.014 C 
ATOM     15  C   LIG    1       25.798 -18.531   3.817  0.00  0.00    +0.038 C 
ATOM     16  C   LIG    1       26.878 -19.362   4.531  0.00  0.00    +0.007 C 
ATOM     17  O   LIG    1       23.757 -19.078   2.708  0.00  0.00    -0.220 OA
ATOM     18  C   LIG    1       22.805 -20.330   5.707  0.00  0.00    +0.012 C 
ATOM     19  C   LIG    1       26.513 -20.806   4.750  0.00  0.00    +0.004 C 
ENDROOT
BRANCH  12  20
ATOM     20  O   LIG    1       25.143 -14.794   4.020  0.00  0.00    -0.435 OA
BRANCH  20  21
ATOM     21  C   LIG    1       25.168 -13.775   3.126  0.00  0.00    +0.310 C 
ATOM     22  O   LIG    1       24.210 -13.334   2.501  0.00  0.00    -0.251 OA
BRANCH  21  23
ATOM     23  C   LIG    1       26.555 -13.188   3.044  0.00  0.00    +0.132 C 
BRANCH  23  24
ATOM     24  C   LIG    1       27.209 -13.054   4.420  0.00  0.00    +0.131 C 
BRANCH  24  25
ATOM     25  C   LIG    1       28.688 -12.740   4.369  0.00  0.00    +0.305 C 
ATOM     26  O   LIG    1       29.448 -13.140   3.505  0.00  0.00    -0.251 OA
BRANCH  25  27
ATOM     27  O   LIG    1       29.088 -11.890   5.354  0.00  0.00    -0.481 OA
ATOM     28  H   LIG    1       28.479 -11.817   6.146  0.00  0.00    +0.295 HD
ENDBRANCH  25  27
ENDBRANCH  24  25
ENDBRANCH  23  24
ENDBRANCH  21  23
ENDBRANCH  20  21
ENDBRANCH  12  20
TORSDOF 6
ENDMDL
MODEL 2
REMARK VINA RESULT:       0.9      1.398      2.130
REMARK  Name = *****
REMARK                            x       y       z     vdW  Elec       q    Type
REMARK                         _______ _______ _______ _____ _____    ______ ____
ROOT
ATOM      1  C   LIG    1       24.954 -20.731   7.062  0.00  0.00    +0.008 C 
ATOM      2  C   LIG    1       24.738 -21.287   5.649  0.00  0.00    -0.008 C 
ATOM      3  C   LIG    1       23.743 -20.485   4.781  0.00  0.00    +0.032 C 
ATOM      4  C   LIG    1       24.295 -19.196   4.037  0.00  0.00    +0.161 C 
ATOM      5  C   LIG    1       23.697 -17.824   4.451  0.00  0.00    +0.293 C 
ATOM      6  O   LIG    1       22.284 -17.734   4.292  0.00  0.00    -0.314 OA
ATOM      7  C   LIG    1       21.667 -18.828   3.628  0.00  0.00    +0.203 C 
ATOM      8  O   LIG    1       22.399 -19.543   2.615  0.00  0.00    -0.199 OA
ATOM      9  C   LIG    1       21.265 -19.848   4.697  0.00  0.00    +0.068 C 
ATOM     10  C   LIG    1       20.407 -18.304   2.941  0.00  0.00    +0.077 C 
ATOM     11  O   LIG    1       24.190 -16.737   3.665  0.00  0.00    -0.309 OA
ATOM     12  C   LIG    1       25.592 -16.601   3.512  0.00  0.00    +0.316 C 
ATOM     13  C   LIG    1       26.399 -17.684   4.236  0.00  0.00    +0.061 C 
ATOM     14  C   LIG    1       27.899 -17.552   3.922  0.00  0.00    +0.014 C 
ATOM     15  C   LIG    1       25.860 -19.106   3.902  0.00  0.00    +0.038 C 
ATOM     16  C   LIG    1       26.701 -20.121   4.696  0.00  0.00    +0.007 C 
ATOM     17  O   LIG    1       23.834 -19.259   2.651  0.00  0.00    -0.220 OA
ATOM     18  C   LIG    1       22.445 -20.246   5.576  0.00  0.00    +0.012 C 
ATOM     19  C   LIG    1       26.043 -21.461   4.892  0.00  0.00    +0.004 C 
ENDROOT
BRANCH  12  20
ATOM     20  O   LIG    1       25.945 -15.310   4.046  0.00  0.00    -0.435 OA
BRANCH  20  21
ATOM     21  C   LIG    1       26.375 -14.375   3.164  0.00  0.00    +0.310 C 
ATOM     22  O   LIG    1       26.629 -14.558   1.978  0.00  0.00    -0.251 OA
BRANCH  21  23
ATOM     23  C   LIG    1       26.438 -13.022   3.827  0.00  0.00    +0.132 C 
BRANCH  23  24
ATOM     24  C   LIG    1       25.100 -12.620   4.451  0.00  0.00    +0.131 C 
BRANCH  24  25
ATOM     25  C   LIG    1       23.972 -12.489   3.451  0.00  0.00    +0.305 C 
ATOM     26  O   LIG    1       23.663 -11.450   2.895  0.00  0.00    -0.251 OA
BRANCH  25  27
ATOM     27  O   LIG    1       23.370 -13.675   3.167  0.00  0.00    -0.481 OA
ATOM     28  H   LIG    1       23.412 -13.973   2.212  0.00  0.00    +0.295 HD
ENDBRANCH  25  27
ENDBRANCH  24  25
ENDBRANCH  23  24
ENDBRANCH  21  23
ENDBRANCH  20  21
ENDBRANCH  12  20
TORSDOF 6
ENDMDL
MODEL 3
REMARK VINA RESULT:       1.7      2.496      6.783
REMARK  Name = *****
REMARK                            x       y       z     vdW  Elec       q    Type
REMARK                         _______ _______ _______ _____ _____    ______ ____
ROOT
ATOM      1  C   LIG    1       23.309 -14.557   5.991  0.00  0.00    +0.008 C 
ATOM      2  C   LIG    1       23.511 -14.131   4.532  0.00  0.00    -0.008 C 
ATOM      3  C   LIG    1       24.986 -14.014   4.087  0.00  0.00    +0.032 C 
ATOM      4  C   LIG    1       25.727 -15.348   3.653  0.00  0.00    +0.161 C 
ATOM      5  C   LIG    1       26.930 -15.810   4.520  0.00  0.00    +0.293 C 
ATOM      6  O   LIG    1       27.979 -14.850   4.616  0.00  0.00    -0.314 OA
ATOM      7  C   LIG    1       27.849 -13.708   3.781  0.00  0.00    +0.203 C 
ATOM      8  O   LIG    1       27.190 -13.836   2.507  0.00  0.00    -0.199 OA
ATOM      9  C   LIG    1       27.091 -12.641   4.574  0.00  0.00    +0.068 C 
ATOM     10  C   LIG    1       29.255 -13.195   3.473  0.00  0.00    +0.077 C 
ATOM     11  O   LIG    1       27.586 -16.967   3.998  0.00  0.00    -0.309 OA
ATOM     12  C   LIG    1       26.795 -18.096   3.670  0.00  0.00    +0.316 C 
ATOM     13  C   LIG    1       25.298 -17.896   3.930  0.00  0.00    +0.061 C 
ATOM     14  C   LIG    1       24.489 -19.107   3.433  0.00  0.00    +0.014 C 
ATOM     15  C   LIG    1       24.791 -16.564   3.304  0.00  0.00    +0.038 C 
ATOM     16  C   LIG    1       23.296 -16.430   3.642  0.00  0.00    +0.007 C 
ATOM     17  O   LIG    1       26.419 -15.076   2.394  0.00  0.00    -0.220 OA
ATOM     18  C   LIG    1       25.764 -13.166   5.112  0.00  0.00    +0.012 C 
ATOM     19  C   LIG    1       22.760 -15.025   3.561  0.00  0.00    +0.004 C 
ENDROOT
BRANCH  12  20
ATOM     20  O   LIG    1       27.275 -19.188   4.479  0.00  0.00    -0.435 OA
BRANCH  20  21
ATOM     21  C   LIG    1       28.327 -18.936   5.295  0.00  0.00    +0.310 C 
ATOM     22  O   LIG    1       29.351 -18.332   4.993  0.00  0.00    -0.251 OA
BRANCH  21  23
ATOM     23  C   LIG    1       28.043 -19.446   6.686  0.00  0.00    +0.132 C 
BRANCH  23  24
ATOM     24  C   LIG    1       27.503 -20.877   6.677  0.00  0.00    +0.131 C 
BRANCH  24  25
ATOM     25  C   LIG    1       26.027 -20.975   6.361  0.00  0.00    +0.305 C 
ATOM     26  O   LIG    1       25.142 -20.511   7.059  0.00  0.00    -0.251 OA
BRANCH  25  27
ATOM     27  O   LIG    1       25.775 -21.572   5.165  0.00  0.00    -0.481 OA
ATOM     28  H   LIG    1       26.426 -22.277   4.879  0.00  0.00    +0.295 HD
ENDBRANCH  25  27
ENDBRANCH  24  25
ENDBRANCH  23  24
ENDBRANCH  21  23
ENDBRANCH  20  21
ENDBRANCH  12  20
TORSDOF 6
ENDMDL
MODEL 4
REMARK VINA RESULT:       1.7      1.591      2.060
REMARK  Name = *****
REMARK                            x       y       z     vdW  Elec       q    Type
REMARK                         _______ _______ _______ _____ _____    ______ ____
ROOT
ATOM      1  C   LIG    1       26.811 -19.732   7.062  0.00  0.00    +0.008 C 
ATOM      2  C   LIG    1       26.648 -20.631   5.830  0.00  0.00    -0.008 C 
ATOM      3  C   LIG    1       25.208 -20.723   5.278  0.00  0.00    +0.032 C 
ATOM      4  C   LIG    1       24.716 -19.559   4.319  0.00  0.00    +0.161 C 
ATOM      5  C   LIG    1       23.541 -18.673   4.817  0.00  0.00    +0.293 C 
ATOM      6  O   LIG    1       22.352 -19.400   5.114  0.00  0.00    -0.314 OA
ATOM      7  C   LIG    1       22.362 -20.774   4.752  0.00  0.00    +0.203 C 
ATOM      8  O   LIG    1       23.120 -21.197   3.604  0.00  0.00    -0.199 OA
ATOM      9  C   LIG    1       22.886 -21.563   5.954  0.00  0.00    +0.068 C 
ATOM     10  C   LIG    1       20.918 -21.191   4.474  0.00  0.00    +0.077 C 
ATOM     11  O   LIG    1       23.112 -17.714   3.849  0.00  0.00    -0.309 OA
ATOM     12  C   LIG    1       24.090 -16.885   3.246  0.00  0.00    +0.316 C 
ATOM     13  C   LIG    1       25.515 -17.155   3.739  0.00  0.00    +0.061 C 
ATOM     14  C   LIG    1       26.536 -16.314   2.953  0.00  0.00    +0.014 C 
ATOM     15  C   LIG    1       25.852 -18.675   3.684  0.00  0.00    +0.038 C 
ATOM     16  C   LIG    1       27.281 -18.855   4.227  0.00  0.00    +0.007 C 
ATOM     17  O   LIG    1       24.080 -20.185   3.160  0.00  0.00    -0.220 OA
ATOM     18  C   LIG    1       24.237 -21.042   6.432  0.00  0.00    +0.012 C 
ATOM     19  C   LIG    1       27.596 -20.247   4.707  0.00  0.00    +0.004 C 
ENDROOT
BRANCH  12  20
ATOM     20  O   LIG    1       23.730 -15.525   3.557  0.00  0.00    -0.435 OA
BRANCH  20  21
ATOM     21  C   LIG    1       23.201 -15.293   4.784  0.00  0.00    +0.310 C 
ATOM     22  O   LIG    1       22.353 -15.974   5.349  0.00  0.00    -0.251 OA
BRANCH  21  23
ATOM     23  C   LIG    1       23.857 -14.090   5.415  0.00  0.00    +0.132 C 
BRANCH  23  24
ATOM     24  C   LIG    1       24.704 -13.301   4.415  0.00  0.00    +0.131 C 
BRANCH  24  25
ATOM     25  C   LIG    1       26.190 -13.352   4.694  0.00  0.00    +0.305 C 
ATOM     26  O   LIG    1       27.051 -13.377   3.832  0.00  0.00    -0.251 OA
BRANCH  25  27
ATOM     27  O   LIG    1       26.487 -13.289   6.020  0.00  0.00    -0.481 OA
ATOM     28  H   LIG    1       27.459 -13.331   6.256  0.00  0.00    +0.295 HD
ENDBRANCH  25  27
ENDBRANCH  24  25
ENDBRANCH  23  24
ENDBRANCH  21  23
ENDBRANCH  20  21
ENDBRANCH  12  20
TORSDOF 6
ENDMDL
