MODEL 1
REMARK VINA RESULT:      -4.6      0.000      0.000
REMARK  Name = *****
REMARK                            x       y       z     vdW  Elec       q    Type
REMARK                         _______ _______ _______ _____ _____    ______ ____
ROOT
ATOM      1  O   LIG    1       23.848 -30.077  10.789  0.00  0.00    -0.340 OA
ENDROOT
BRANCH   1   5
ATOM      2  C   LIG    1       24.832 -31.349   6.867  0.00  0.00    +0.181 C 
ATOM      3  C   LIG    1       24.012 -30.044   7.108  0.00  0.00    +0.178 C 
ATOM      4  O   LIG    1       24.102 -29.534   8.458  0.00  0.00    -0.341 OA
ATOM      5  C   LIG    1       23.584 -30.469   9.426  0.00  0.00    +0.282 C 
ATOM      6  C   LIG    1       24.376 -31.799   9.321  0.00  0.00    +0.205 C 
ATOM      7  C   LIG    1       25.457 -31.664   8.201  0.00  0.00    +0.183 C 
BRANCH   2   8
ATOM      8  O   LIG    1       24.060 -32.542   6.533  0.00  0.00    -0.369 OA
BRANCH   8   9
ATOM      9  C   LIG    1       24.646 -33.348   5.467  0.00  0.00    +0.191 C 
BRANCH   9  11
ATOM     10  C   LIG    1       26.982 -33.334   4.385  0.00  0.00    +0.040 C 
ATOM     11  C   LIG    1       25.673 -32.564   4.598  0.00  0.00    +0.137 C 
BRANCH  11  12
ATOM     12  O   LIG    1       25.182 -32.237   3.291  0.00  0.00    -0.390 OA
ATOM     13  H   LIG    1       25.936 -32.187   2.677  0.00  0.00    +0.210 HD
ENDBRANCH  11  12
ENDBRANCH   9  11
ENDBRANCH   8   9
ENDBRANCH   2   8
BRANCH   3  14
ATOM     14  C   LIG    1       24.177 -28.939   6.027  0.00  0.00    +0.194 C 
BRANCH  14  15
ATOM     15  O   LIG    1       24.387 -27.620   6.535  0.00  0.00    -0.375 OA
BRANCH  15  16
ATOM     16  C   LIG    1       25.740 -27.131   6.494  0.00  0.00    +0.190 C 
BRANCH  16  17
ATOM     17  C   LIG    1       25.905 -25.739   5.872  0.00  0.00    +0.137 C 
ATOM     18  C   LIG    1       25.758 -24.615   6.889  0.00  0.00    +0.040 C 
BRANCH  17  19
ATOM     19  O   LIG    1       25.205 -25.638   4.651  0.00  0.00    -0.390 OA
ATOM     20  H   LIG    1       24.577 -24.889   4.692  0.00  0.00    +0.210 HD
ENDBRANCH  17  19
ENDBRANCH  16  17
ENDBRANCH  15  16
ENDBRANCH  14  15
ENDBRANCH   3  14
BRANCH   7  21
ATOM     21  O   LIG    1       26.438 -30.653   8.415  0.00  0.00    -0.369 OA
BRANCH  21  22
ATOM     22  C   LIG    1       27.261 -30.954   9.508  0.00  0.00    +0.191 C 
BRANCH  22  23
ATOM     23  C   LIG    1       27.315 -29.857  10.585  0.00  0.00    +0.137 C 
ATOM     24  C   LIG    1       26.904 -28.603   9.826  0.00  0.00    +0.040 C 
BRANCH  23  25
ATOM     25  O   LIG    1       28.591 -29.727  11.193  0.00  0.00    -0.390 OA
ATOM     26  H   LIG    1       29.064 -29.012  10.746  0.00  0.00    +0.210 HD
ENDBRANCH  23  25
ENDBRANCH  22  23
ENDBRANCH  21  22
ENDBRANCH   7  21
BRANCH   6  27
ATOM     27  O   LIG    1       23.508 -32.941   9.344  0.00  0.00    -0.366 OA
BRANCH  27  28
ATOM     28  C   LIG    1       22.098 -32.690   9.368  0.00  0.00    +0.191 C 
BRANCH  28  29
ATOM     29  C   LIG    1       21.049 -33.632   9.979  0.00  0.00    +0.137 C 
ATOM     30  C   LIG    1       19.593 -33.322   9.740  0.00  0.00    +0.040 C 
BRANCH  29  31
ATOM     31  O   LIG    1       21.252 -33.825  11.356  0.00  0.00    -0.390 OA
ATOM     32  H   LIG    1       22.200 -33.807  11.557  0.00  0.00    +0.210 HD
ENDBRANCH  29  31
ENDBRANCH  28  29
ENDBRANCH  27  28
ENDBRANCH   6  27
ENDBRANCH   1   5
BRANCH   1  33
ATOM     33  C   LIG    1       22.807 -29.622  11.630  0.00  0.00    +0.184 C 
ATOM     34  C   LIG    1       23.152 -28.451  12.542  0.00  0.00    +0.178 C 
ATOM     35  O   LIG    1       21.898 -27.896  13.133  0.00  0.00    -0.341 OA
ATOM     36  C   LIG    1       20.805 -28.789  13.579  0.00  0.00    +0.282 C 
ATOM     37  C   LIG    1       20.730 -30.281  12.680  0.00  0.00    +0.205 C 
ATOM     38  C   LIG    1       22.137 -30.662  12.487  0.00  0.00    +0.183 C 
BRANCH  38  39
ATOM     39  O   LIG    1       22.901 -30.887  13.682  0.00  0.00    -0.369 OA
BRANCH  39  40
ATOM     40  C   LIG    1       23.708 -31.995  14.215  0.00  0.00    +0.191 C 
BRANCH  40  41
ATOM     41  C   LIG    1       25.139 -32.616  13.862  0.00  0.00    +0.137 C 
ATOM     42  C   LIG    1       26.448 -32.675  14.675  0.00  0.00    +0.040 C 
BRANCH  41  43
ATOM     43  O   LIG    1       25.567 -31.954  12.704  0.00  0.00    -0.390 OA
ATOM     44  H   LIG    1       26.379 -32.390  12.520  0.00  0.00    +0.210 HD
ENDBRANCH  41  43
ENDBRANCH  40  41
ENDBRANCH  39  40
ENDBRANCH  38  39
BRANCH  34  45
ATOM     45  C   LIG    1       24.599 -28.564  13.329  0.00  0.00    +0.194 C 
BRANCH  45  46
ATOM     46  O   LIG    1       25.216 -27.443  13.975  0.00  0.00    -0.375 OA
BRANCH  46  47
ATOM     47  C   LIG    1       26.582 -27.125  13.702  0.00  0.00    +0.190 C 
BRANCH  47  48
ATOM     48  C   LIG    1       26.815 -25.648  13.227  0.00  0.00    +0.137 C 
ATOM     49  C   LIG    1       27.830 -24.961  14.142  0.00  0.00    +0.040 C 
BRANCH  48  50
ATOM     50  O   LIG    1       25.640 -24.849  13.239  0.00  0.00    -0.390 OA
ATOM     51  H   LIG    1       25.065 -25.227  12.555  0.00  0.00    +0.210 HD
ENDBRANCH  48  50
ENDBRANCH  47  48
ENDBRANCH  46  47
ENDBRANCH  45  46
ENDBRANCH  34  45
BRANCH  37  52
ATOM     52  O   LIG    1       19.956 -31.570  12.810  0.00  0.00    -0.366 OA
BRANCH  52  53
ATOM     53  C   LIG    1       18.830 -32.038  13.668  0.00  0.00    +0.191 C 
BRANCH  53  54
ATOM     54  C   LIG    1       17.408 -31.623  13.283  0.00  0.00    +0.137 C 
ATOM     55  C   LIG    1       16.970 -32.431  12.119  0.00  0.00    +0.040 C 
BRANCH  54  56
ATOM     56  O   LIG    1       17.483 -30.244  13.010  0.00  0.00    -0.390 OA
ATOM     57  H   LIG    1       18.110 -29.896  13.675  0.00  0.00    +0.210 HD
ENDBRANCH  54  56
ENDBRANCH  53  54
ENDBRANCH  52  53
ENDBRANCH  37  52
BRANCH  36  58
ATOM     58  O   LIG    1       19.422 -28.112  13.799  0.00  0.00    -0.346 OA
BRANCH  58  59
ATOM     59  C   LIG    1       19.171 -26.853  14.730  0.00  0.00    +0.194 C 
BRANCH  59  60
ATOM     60  C   LIG    1       17.688 -26.707  14.889  0.00  0.00    +0.137 C 
ATOM     61  C   LIG    1       16.364 -27.085  14.185  0.00  0.00    +0.040 C 
BRANCH  60  62
ATOM     62  O   LIG    1       17.860 -25.562  14.092  0.00  0.00    -0.390 OA
ATOM     63  H   LIG    1       18.175 -25.932  13.392  0.00  0.00    +0.210 HD
ENDBRANCH  60  62
ENDBRANCH  59  60
ENDBRANCH  58  59
ENDBRANCH  36  58
ENDBRANCH   1  33
TORSDOF 36
ENDMDL
MODEL 2
REMARK VINA RESULT:      -3.4      2.760      9.200
REMARK  Name = *****
REMARK                            x       y       z     vdW  Elec       q    Type
REMARK                         _______ _______ _______ _____ _____    ______ ____
ROOT
ATOM      1  O   LIG    1       26.255 -28.223   7.981  0.00  0.00    -0.340 OA
ENDROOT
BRANCH   1   5
ATOM      2  C   LIG    1       25.811 -31.571  10.544  0.00  0.00    +0.181 C 
ATOM      3  C   LIG    1       24.572 -30.749  10.071  0.00  0.00    +0.178 C 
ATOM      4  O   LIG    1       24.824 -29.919   8.914  0.00  0.00    -0.341 OA
ATOM      5  C   LIG    1       25.839 -28.927   9.170  0.00  0.00    +0.282 C 
ATOM      6  C   LIG    1       27.151 -29.639   9.592  0.00  0.00    +0.205 C 
ATOM      7  C   LIG    1       26.915 -31.184   9.596  0.00  0.00    +0.183 C 
BRANCH   2   8
ATOM      8  O   LIG    1       26.333 -31.245  11.867  0.00  0.00    -0.369 OA
BRANCH   8   9
ATOM      9  C   LIG    1       25.302 -30.923  12.847  0.00  0.00    +0.191 C 
BRANCH   9  11
ATOM     10  C   LIG    1       24.949 -30.421  15.348  0.00  0.00    +0.040 C 
ATOM     11  C   LIG    1       25.722 -31.247  14.312  0.00  0.00    +0.137 C 
BRANCH  11  12
ATOM     12  O   LIG    1       25.532 -32.623  14.669  0.00  0.00    -0.390 OA
ATOM     13  H   LIG    1       26.370 -33.098  14.532  0.00  0.00    +0.210 HD
ENDBRANCH  11  12
ENDBRANCH   9  11
ENDBRANCH   8   9
ENDBRANCH   2   8
BRANCH   3  14
ATOM     14  C   LIG    1       23.239 -31.543   9.973  0.00  0.00    +0.194 C 
BRANCH  14  15
ATOM     15  O   LIG    1       22.079 -30.748   9.716  0.00  0.00    -0.375 OA
BRANCH  15  16
ATOM     16  C   LIG    1       21.222 -30.491  10.842  0.00  0.00    +0.190 C 
BRANCH  16  17
ATOM     17  C   LIG    1       19.803 -31.061  10.720  0.00  0.00    +0.137 C 
ATOM     18  C   LIG    1       19.786 -32.574  10.548  0.00  0.00    +0.040 C 
BRANCH  17  19
ATOM     19  O   LIG    1       19.010 -30.276   9.856  0.00  0.00    -0.390 OA
ATOM     20  H   LIG    1       18.810 -30.781   9.042  0.00  0.00    +0.210 HD
ENDBRANCH  17  19
ENDBRANCH  16  17
ENDBRANCH  15  16
ENDBRANCH  14  15
ENDBRANCH   3  14
BRANCH   7  21
ATOM     21  O   LIG    1       26.561 -31.753   8.338  0.00  0.00    -0.369 OA
BRANCH  21  22
ATOM     22  C   LIG    1       27.392 -32.830   8.005  0.00  0.00    +0.191 C 
BRANCH  22  23
ATOM     23  C   LIG    1       27.451 -33.146   6.500  0.00  0.00    +0.137 C 
ATOM     24  C   LIG    1       28.892 -33.589   6.293  0.00  0.00    +0.040 C 
BRANCH  23  25
ATOM     25  O   LIG    1       27.103 -32.041   5.679  0.00  0.00    -0.390 OA
ATOM     26  H   LIG    1       27.387 -31.234   6.128  0.00  0.00    +0.210 HD
ENDBRANCH  23  25
ENDBRANCH  22  23
ENDBRANCH  21  22
ENDBRANCH   7  21
BRANCH   6  27
ATOM     27  O   LIG    1       27.763 -29.005  10.724  0.00  0.00    -0.366 OA
BRANCH  27  28
ATOM     28  C   LIG    1       27.070 -27.893  11.304  0.00  0.00    +0.191 C 
BRANCH  28  29
ATOM     29  C   LIG    1       26.985 -27.603  12.811  0.00  0.00    +0.137 C 
ATOM     30  C   LIG    1       26.741 -26.180  13.245  0.00  0.00    +0.040 C 
BRANCH  29  31
ATOM     31  O   LIG    1       28.096 -28.107  13.509  0.00  0.00    -0.390 OA
ATOM     32  H   LIG    1       28.570 -28.748  12.958  0.00  0.00    +0.210 HD
ENDBRANCH  29  31
ENDBRANCH  28  29
ENDBRANCH  27  28
ENDBRANCH   6  27
ENDBRANCH   1   5
BRANCH   1  33
ATOM     33  C   LIG    1       25.462 -27.192   7.430  0.00  0.00    +0.184 C 
ATOM     34  C   LIG    1       24.363 -27.637   6.472  0.00  0.00    +0.178 C 
ATOM     35  O   LIG    1       23.435 -26.496   6.217  0.00  0.00    -0.341 OA
ATOM     36  C   LIG    1       23.949 -25.118   6.048  0.00  0.00    +0.282 C 
ATOM     37  C   LIG    1       25.428 -24.828   6.923  0.00  0.00    +0.205 C 
ATOM     38  C   LIG    1       26.200 -26.067   6.757  0.00  0.00    +0.183 C 
BRANCH  38  39
ATOM     39  O   LIG    1       26.532 -26.430   5.407  0.00  0.00    -0.369 OA
BRANCH  39  40
ATOM     40  C   LIG    1       27.560 -27.268   4.771  0.00  0.00    +0.191 C 
BRANCH  40  41
ATOM     41  C   LIG    1       29.021 -27.001   4.178  0.00  0.00    +0.137 C 
ATOM     42  C   LIG    1       29.855 -27.784   3.145  0.00  0.00    +0.040 C 
BRANCH  41  43
ATOM     43  O   LIG    1       29.885 -27.000   5.282  0.00  0.00    -0.390 OA
ATOM     44  H   LIG    1       29.298 -26.798   5.987  0.00  0.00    +0.210 HD
ENDBRANCH  41  43
ENDBRANCH  40  41
ENDBRANCH  39  40
ENDBRANCH  38  39
BRANCH  34  45
ATOM     45  C   LIG    1       24.811 -28.761   5.349  0.00  0.00    +0.194 C 
BRANCH  45  46
ATOM     46  O   LIG    1       24.929 -30.156   5.656  0.00  0.00    -0.375 OA
BRANCH  46  47
ATOM     47  C   LIG    1       23.834 -30.851   6.256  0.00  0.00    +0.190 C 
BRANCH  47  48
ATOM     48  C   LIG    1       23.589 -32.287   5.676  0.00  0.00    +0.137 C 
ATOM     49  C   LIG    1       23.785 -33.333   6.774  0.00  0.00    +0.040 C 
BRANCH  48  50
ATOM     50  O   LIG    1       24.464 -32.634   4.612  0.00  0.00    -0.390 OA
ATOM     51  H   LIG    1       23.972 -32.439   3.800  0.00  0.00    +0.210 HD
ENDBRANCH  48  50
ENDBRANCH  47  48
ENDBRANCH  46  47
ENDBRANCH  45  46
ENDBRANCH  34  45
BRANCH  37  52
ATOM     52  O   LIG    1       26.435 -23.705   6.977  0.00  0.00    -0.366 OA
BRANCH  52  53
ATOM     53  C   LIG    1       26.446 -22.329   7.553  0.00  0.00    +0.191 C 
BRANCH  53  54
ATOM     54  C   LIG    1       27.382 -21.292   6.927  0.00  0.00    +0.137 C 
ATOM     55  C   LIG    1       27.684 -20.247   7.934  0.00  0.00    +0.040 C 
BRANCH  54  56
ATOM     56  O   LIG    1       26.695 -20.802   5.800  0.00  0.00    -0.390 OA
ATOM     57  H   LIG    1       25.791 -21.164   5.887  0.00  0.00    +0.210 HD
ENDBRANCH  54  56
ENDBRANCH  53  54
ENDBRANCH  52  53
ENDBRANCH  37  52
BRANCH  36  58
ATOM     58  O   LIG    1       22.897 -23.980   6.185  0.00  0.00    -0.346 OA
BRANCH  58  59
ATOM     59  C   LIG    1       23.136 -22.616   6.958  0.00  0.00    +0.194 C 
BRANCH  59  60
ATOM     60  C   LIG    1       23.276 -21.539   5.926  0.00  0.00    +0.137 C 
ATOM     61  C   LIG    1       22.867 -20.071   5.665  0.00  0.00    +0.040 C 
BRANCH  60  62
ATOM     62  O   LIG    1       22.049 -22.033   5.453  0.00  0.00    -0.390 OA
ATOM     63  H   LIG    1       22.042 -21.663   4.685  0.00  0.00    +0.210 HD
ENDBRANCH  60  62
ENDBRANCH  59  60
ENDBRANCH  58  59
ENDBRANCH  36  58
ENDBRANCH   1  33
TORSDOF 36
ENDMDL
MODEL 3
REMARK VINA RESULT:      -3.0      1.828      2.699
REMARK  Name = *****
REMARK                            x       y       z     vdW  Elec       q    Type
REMARK                         _______ _______ _______ _____ _____    ______ ____
ROOT
ATOM      1  O   LIG    1       24.552 -29.383  11.596  0.00  0.00    -0.340 OA
ENDROOT
BRANCH   1   5
ATOM      2  C   LIG    1       24.879 -30.433   7.501  0.00  0.00    +0.181 C 
ATOM      3  C   LIG    1       25.264 -29.005   8.000  0.00  0.00    +0.178 C 
ATOM      4  O   LIG    1       25.486 -28.921   9.426  0.00  0.00    -0.341 OA
ATOM      5  C   LIG    1       24.304 -29.260  10.179  0.00  0.00    +0.282 C 
ATOM      6  C   LIG    1       23.861 -30.699   9.809  0.00  0.00    +0.205 C 
ATOM      7  C   LIG    1       24.847 -31.280   8.746  0.00  0.00    +0.183 C 
BRANCH   2   8
ATOM      8  O   LIG    1       23.545 -30.576   6.927  0.00  0.00    -0.369 OA
BRANCH   8   9
ATOM      9  C   LIG    1       23.521 -31.297   5.659  0.00  0.00    +0.191 C 
BRANCH   9  11
ATOM     10  C   LIG    1       24.718 -33.572   5.511  0.00  0.00    +0.040 C 
ATOM     11  C   LIG    1       24.849 -32.052   5.355  0.00  0.00    +0.137 C 
BRANCH  11  12
ATOM     12  O   LIG    1       25.343 -31.824   4.028  0.00  0.00    -0.390 OA
ATOM     13  H   LIG    1       26.223 -31.411   4.090  0.00  0.00    +0.210 HD
ENDBRANCH  11  12
ENDBRANCH   9  11
ENDBRANCH   8   9
ENDBRANCH   2   8
BRANCH   3  14
ATOM     14  C   LIG    1       26.356 -28.276   7.168  0.00  0.00    +0.194 C 
BRANCH  14  15
ATOM     15  O   LIG    1       26.188 -26.862   7.055  0.00  0.00    -0.375 OA
BRANCH  15  16
ATOM     16  C   LIG    1       25.435 -26.400   5.919  0.00  0.00    +0.190 C 
BRANCH  16  17
ATOM     17  C   LIG    1       25.467 -24.883   5.694  0.00  0.00    +0.137 C 
ATOM     18  C   LIG    1       25.708 -24.099   6.978  0.00  0.00    +0.040 C 
BRANCH  17  19
ATOM     19  O   LIG    1       24.423 -24.470   4.840  0.00  0.00    -0.390 OA
ATOM     20  H   LIG    1       23.835 -23.847   5.313  0.00  0.00    +0.210 HD
ENDBRANCH  17  19
ENDBRANCH  16  17
ENDBRANCH  15  16
ENDBRANCH  14  15
ENDBRANCH   3  14
BRANCH   7  21
ATOM     21  O   LIG    1       26.204 -31.396   9.167  0.00  0.00    -0.369 OA
BRANCH  21  22
ATOM     22  C   LIG    1       27.029 -31.857   8.133  0.00  0.00    +0.191 C 
BRANCH  22  23
ATOM     23  C   LIG    1       27.157 -33.389   8.057  0.00  0.00    +0.137 C 
ATOM     24  C   LIG    1       27.006 -33.823   9.507  0.00  0.00    +0.040 C 
BRANCH  23  25
ATOM     25  O   LIG    1       28.384 -33.823   7.488  0.00  0.00    -0.390 OA
ATOM     26  H   LIG    1       29.069 -33.754   8.166  0.00  0.00    +0.210 HD
ENDBRANCH  23  25
ENDBRANCH  22  23
ENDBRANCH  21  22
ENDBRANCH   7  21
BRANCH   6  27
ATOM     27  O   LIG    1       22.445 -30.784   9.594  0.00  0.00    -0.366 OA
BRANCH  27  28
ATOM     28  C   LIG    1       21.774 -31.942  10.105  0.00  0.00    +0.191 C 
BRANCH  28  29
ATOM     29  C   LIG    1       20.307 -31.976  10.560  0.00  0.00    +0.137 C 
ATOM     30  C   LIG    1       19.530 -33.251  10.353  0.00  0.00    +0.040 C 
BRANCH  29  31
ATOM     31  O   LIG    1       19.567 -30.902  10.035  0.00  0.00    -0.390 OA
ATOM     32  H   LIG    1       18.917 -30.599  10.687  0.00  0.00    +0.210 HD
ENDBRANCH  29  31
ENDBRANCH  28  29
ENDBRANCH  27  28
ENDBRANCH   6  27
ENDBRANCH   1   5
BRANCH   1  33
ATOM     33  C   LIG    1       23.501 -29.262  12.532  0.00  0.00    +0.184 C 
ATOM     34  C   LIG    1       23.164 -27.844  12.976  0.00  0.00    +0.178 C 
ATOM     35  O   LIG    1       21.864 -27.849  13.711  0.00  0.00    -0.341 OA
ATOM     36  C   LIG    1       21.525 -28.941  14.652  0.00  0.00    +0.282 C 
ATOM     37  C   LIG    1       22.267 -30.460  14.233  0.00  0.00    +0.205 C 
ATOM     38  C   LIG    1       23.617 -30.095  13.780  0.00  0.00    +0.183 C 
BRANCH  38  39
ATOM     39  O   LIG    1       24.449 -29.430  14.744  0.00  0.00    -0.369 OA
BRANCH  39  40
ATOM     40  C   LIG    1       25.877 -29.470  15.098  0.00  0.00    +0.191 C 
BRANCH  40  41
ATOM     41  C   LIG    1       27.163 -30.216  14.508  0.00  0.00    +0.137 C 
ATOM     42  C   LIG    1       28.457 -29.662  13.879  0.00  0.00    +0.040 C 
BRANCH  41  43
ATOM     43  O   LIG    1       26.687 -31.037  13.477  0.00  0.00    -0.390 OA
ATOM     44  H   LIG    1       25.846 -31.294  13.806  0.00  0.00    +0.210 HD
ENDBRANCH  41  43
ENDBRANCH  40  41
ENDBRANCH  39  40
ENDBRANCH  38  39
BRANCH  34  45
ATOM     45  C   LIG    1       24.457 -26.889  13.350  0.00  0.00    +0.194 C 
BRANCH  45  46
ATOM     46  O   LIG    1       24.455 -25.985  14.462  0.00  0.00    -0.375 OA
BRANCH  46  47
ATOM     47  C   LIG    1       25.219 -24.779  14.405  0.00  0.00    +0.190 C 
BRANCH  47  48
ATOM     48  C   LIG    1       26.668 -24.963  13.832  0.00  0.00    +0.137 C 
ATOM     49  C   LIG    1       27.235 -26.313  14.272  0.00  0.00    +0.040 C 
BRANCH  48  50
ATOM     50  O   LIG    1       27.586 -23.967  14.262  0.00  0.00    -0.390 OA
ATOM     51  H   LIG    1       28.101 -23.734  13.474  0.00  0.00    +0.210 HD
ENDBRANCH  48  50
ENDBRANCH  47  48
ENDBRANCH  46  47
ENDBRANCH  45  46
ENDBRANCH  34  45
BRANCH  37  52
ATOM     52  O   LIG    1       22.395 -31.808  14.901  0.00  0.00    -0.366 OA
BRANCH  52  53
ATOM     53  C   LIG    1       23.273 -32.999  14.708  0.00  0.00    +0.191 C 
BRANCH  53  54
ATOM     54  C   LIG    1       23.097 -33.825  13.432  0.00  0.00    +0.137 C 
ATOM     55  C   LIG    1       23.952 -33.251  12.366  0.00  0.00    +0.040 C 
BRANCH  54  56
ATOM     56  O   LIG    1       21.721 -33.768  13.137  0.00  0.00    -0.390 OA
ATOM     57  H   LIG    1       21.612 -32.936  12.635  0.00  0.00    +0.210 HD
ENDBRANCH  54  56
ENDBRANCH  53  54
ENDBRANCH  52  53
ENDBRANCH  37  52
BRANCH  36  58
ATOM     58  O   LIG    1       20.024 -29.055  15.045  0.00  0.00    -0.346 OA
BRANCH  58  59
ATOM     59  C   LIG    1       18.838 -29.307  14.023  0.00  0.00    +0.194 C 
BRANCH  59  60
ATOM     60  C   LIG    1       17.599 -28.717  14.624  0.00  0.00    +0.137 C 
ATOM     61  C   LIG    1       16.382 -27.843  14.241  0.00  0.00    +0.040 C 
BRANCH  60  62
ATOM     62  O   LIG    1       18.416 -27.595  14.846  0.00  0.00    -0.390 OA
ATOM     63  H   LIG    1       18.993 -27.725  14.232  0.00  0.00    +0.210 HD
ENDBRANCH  60  62
ENDBRANCH  59  60
ENDBRANCH  58  59
ENDBRANCH  36  58
ENDBRANCH   1  33
TORSDOF 36
ENDMDL
MODEL 4
REMARK VINA RESULT:      -3.0      2.910      9.077
REMARK  Name = *****
REMARK                            x       y       z     vdW  Elec       q    Type
REMARK                         _______ _______ _______ _____ _____    ______ ____
ROOT
ATOM      1  O   LIG    1       26.303 -28.616   7.867  0.00  0.00    -0.340 OA
ENDROOT
BRANCH   1   5
ATOM      2  C   LIG    1       26.269 -29.178  12.068  0.00  0.00    +0.181 C 
ATOM      3  C   LIG    1       26.721 -27.823  11.441  0.00  0.00    +0.178 C 
ATOM      4  O   LIG    1       26.305 -27.643  10.068  0.00  0.00    -0.341 OA
ATOM      5  C   LIG    1       26.862 -28.648   9.197  0.00  0.00    +0.282 C 
ATOM      6  C   LIG    1       26.421 -30.051   9.692  0.00  0.00    +0.205 C 
ATOM      7  C   LIG    1       25.529 -29.887  10.964  0.00  0.00    +0.183 C 
BRANCH   2   8
ATOM      8  O   LIG    1       27.335 -30.101  12.445  0.00  0.00    -0.369 OA
BRANCH   8   9
ATOM      9  C   LIG    1       27.703 -30.036  13.856  0.00  0.00    +0.191 C 
BRANCH   9  11
ATOM     10  C   LIG    1       30.034 -29.645  12.835  0.00  0.00    +0.040 C 
ATOM     11  C   LIG    1       29.159 -29.535  14.089  0.00  0.00    +0.137 C 
BRANCH  11  12
ATOM     12  O   LIG    1       29.231 -28.167  14.513  0.00  0.00    -0.390 OA
ATOM     13  H   LIG    1       28.784 -27.612  13.849  0.00  0.00    +0.210 HD
ENDBRANCH  11  12
ENDBRANCH   9  11
ENDBRANCH   8   9
ENDBRANCH   2   8
BRANCH   3  14
ATOM     14  C   LIG    1       26.482 -26.564  12.321  0.00  0.00    +0.194 C 
BRANCH  14  15
ATOM     15  O   LIG    1       27.187 -26.552  13.564  0.00  0.00    -0.375 OA
BRANCH  15  16
ATOM     16  C   LIG    1       26.497 -25.961  14.680  0.00  0.00    +0.190 C 
BRANCH  16  17
ATOM     17  C   LIG    1       26.849 -24.494  14.956  0.00  0.00    +0.137 C 
ATOM     18  C   LIG    1       25.627 -23.585  14.974  0.00  0.00    +0.040 C 
BRANCH  17  19
ATOM     19  O   LIG    1       27.977 -24.090  14.210  0.00  0.00    -0.390 OA
ATOM     20  H   LIG    1       27.717 -23.402  13.564  0.00  0.00    +0.210 HD
ENDBRANCH  17  19
ENDBRANCH  16  17
ENDBRANCH  15  16
ENDBRANCH  14  15
ENDBRANCH   3  14
BRANCH   7  21
ATOM     21  O   LIG    1       24.322 -29.152  10.776  0.00  0.00    -0.369 OA
BRANCH  21  22
ATOM     22  C   LIG    1       23.220 -29.818  11.330  0.00  0.00    +0.191 C 
BRANCH  22  23
ATOM     23  C   LIG    1       22.627 -29.137  12.576  0.00  0.00    +0.137 C 
ATOM     24  C   LIG    1       21.129 -29.164  12.309  0.00  0.00    +0.040 C 
BRANCH  23  25
ATOM     25  O   LIG    1       23.114 -27.819  12.782  0.00  0.00    -0.390 OA
ATOM     26  H   LIG    1       23.660 -27.824  13.580  0.00  0.00    +0.210 HD
ENDBRANCH  23  25
ENDBRANCH  22  23
ENDBRANCH  21  22
ENDBRANCH   7  21
BRANCH   6  27
ATOM     27  O   LIG    1       27.511 -30.983   9.696  0.00  0.00    -0.366 OA
BRANCH  27  28
ATOM     28  C   LIG    1       27.354 -32.176   8.920  0.00  0.00    +0.191 C 
BRANCH  28  29
ATOM     29  C   LIG    1       26.299 -33.262   9.186  0.00  0.00    +0.137 C 
ATOM     30  C   LIG    1       24.970 -33.145   8.484  0.00  0.00    +0.040 C 
BRANCH  29  31
ATOM     31  O   LIG    1       26.073 -33.453  10.560  0.00  0.00    -0.390 OA
ATOM     32  H   LIG    1       26.816 -33.097  11.070  0.00  0.00    +0.210 HD
ENDBRANCH  29  31
ENDBRANCH  28  29
ENDBRANCH  27  28
ENDBRANCH   6  27
ENDBRANCH   1   5
BRANCH   1  33
ATOM     33  C   LIG    1       25.510 -27.529   7.435  0.00  0.00    +0.184 C 
ATOM     34  C   LIG    1       24.300 -27.886   6.580  0.00  0.00    +0.178 C 
ATOM     35  O   LIG    1       23.408 -26.695   6.461  0.00  0.00    -0.341 OA
ATOM     36  C   LIG    1       23.969 -25.336   6.288  0.00  0.00    +0.282 C 
ATOM     37  C   LIG    1       25.541 -25.148   7.016  0.00  0.00    +0.205 C 
ATOM     38  C   LIG    1       26.232 -26.413   6.729  0.00  0.00    +0.183 C 
BRANCH  38  39
ATOM     39  O   LIG    1       26.407 -26.737   5.341  0.00  0.00    -0.369 OA
BRANCH  39  40
ATOM     40  C   LIG    1       27.444 -27.415   4.547  0.00  0.00    +0.191 C 
BRANCH  40  41
ATOM     41  C   LIG    1       28.937 -27.053   4.103  0.00  0.00    +0.137 C 
ATOM     42  C   LIG    1       29.917 -27.775   3.157  0.00  0.00    +0.040 C 
BRANCH  41  43
ATOM     43  O   LIG    1       29.686 -27.005   5.287  0.00  0.00    -0.390 OA
ATOM     44  H   LIG    1       29.922 -26.096   5.329  0.00  0.00    +0.210 HD
ENDBRANCH  41  43
ENDBRANCH  40  41
ENDBRANCH  39  40
ENDBRANCH  38  39
BRANCH  34  45
ATOM     45  C   LIG    1       24.576 -28.984   5.378  0.00  0.00    +0.194 C 
BRANCH  45  46
ATOM     46  O   LIG    1       24.654 -30.394   5.623  0.00  0.00    -0.375 OA
BRANCH  46  47
ATOM     47  C   LIG    1       25.811 -31.128   5.215  0.00  0.00    +0.190 C 
BRANCH  47  48
ATOM     48  C   LIG    1       25.497 -32.547   4.628  0.00  0.00    +0.137 C 
ATOM     49  C   LIG    1       26.129 -32.689   3.243  0.00  0.00    +0.040 C 
BRANCH  48  50
ATOM     50  O   LIG    1       24.109 -32.814   4.479  0.00  0.00    -0.390 OA
ATOM     51  H   LIG    1       24.058 -33.669   4.026  0.00  0.00    +0.210 HD
ENDBRANCH  48  50
ENDBRANCH  47  48
ENDBRANCH  46  47
ENDBRANCH  45  46
ENDBRANCH  34  45
BRANCH  37  52
ATOM     52  O   LIG    1       26.603 -24.075   7.006  0.00  0.00    -0.366 OA
BRANCH  52  53
ATOM     53  C   LIG    1       26.591 -22.583   7.032  0.00  0.00    +0.191 C 
BRANCH  53  54
ATOM     54  C   LIG    1       26.902 -21.882   8.356  0.00  0.00    +0.137 C 
ATOM     55  C   LIG    1       26.011 -20.706   8.499  0.00  0.00    +0.040 C 
BRANCH  54  56
ATOM     56  O   LIG    1       28.268 -21.545   8.288  0.00  0.00    -0.390 OA
ATOM     57  H   LIG    1       28.275 -20.573   8.181  0.00  0.00    +0.210 HD
ENDBRANCH  54  56
ENDBRANCH  53  54
ENDBRANCH  52  53
ENDBRANCH  37  52
BRANCH  36  58
ATOM     58  O   LIG    1       22.994 -24.158   6.572  0.00  0.00    -0.346 OA
BRANCH  58  59
ATOM     59  C   LIG    1       23.433 -22.728   7.099  0.00  0.00    +0.194 C 
BRANCH  59  60
ATOM     60  C   LIG    1       23.335 -21.779   5.944  0.00  0.00    +0.137 C 
ATOM     61  C   LIG    1       22.758 -20.391   5.580  0.00  0.00    +0.040 C 
BRANCH  60  62
ATOM     62  O   LIG    1       22.109 -22.423   5.705  0.00  0.00    -0.390 OA
ATOM     63  H   LIG    1       22.344 -23.225   5.872  0.00  0.00    +0.210 HD
ENDBRANCH  60  62
ENDBRANCH  59  60
ENDBRANCH  58  59
ENDBRANCH  36  58
ENDBRANCH   1  33
TORSDOF 36
ENDMDL
MODEL 5
REMARK VINA RESULT:      -3.0      2.674      9.047
REMARK  Name = *****
REMARK                            x       y       z     vdW  Elec       q    Type
REMARK                         _______ _______ _______ _____ _____    ______ ____
ROOT
ATOM      1  O   LIG    1       26.421 -28.571   7.854  0.00  0.00    -0.340 OA
ENDROOT
BRANCH   1   5
ATOM      2  C   LIG    1       25.835 -29.525  11.943  0.00  0.00    +0.181 C 
ATOM      3  C   LIG    1       26.331 -28.110  11.509  0.00  0.00    +0.178 C 
ATOM      4  O   LIG    1       26.099 -27.808  10.114  0.00  0.00    -0.341 OA
ATOM      5  C   LIG    1       26.795 -28.719   9.239  0.00  0.00    +0.282 C 
ATOM      6  C   LIG    1       26.329 -30.168   9.539  0.00  0.00    +0.205 C 
ATOM      7  C   LIG    1       25.270 -30.137  10.688  0.00  0.00    +0.183 C 
BRANCH   2   8
ATOM      8  O   LIG    1       26.865 -30.463  12.376  0.00  0.00    -0.369 OA
BRANCH   8   9
ATOM      9  C   LIG    1       27.667 -29.986  13.497  0.00  0.00    +0.191 C 
BRANCH   9  11
ATOM     10  C   LIG    1       30.197 -29.786  13.929  0.00  0.00    +0.040 C 
ATOM     11  C   LIG    1       29.015 -29.341  13.060  0.00  0.00    +0.137 C 
BRANCH  11  12
ATOM     12  O   LIG    1       29.377 -29.640  11.704  0.00  0.00    -0.390 OA
ATOM     13  H   LIG    1       28.576 -29.597  11.152  0.00  0.00    +0.210 HD
ENDBRANCH  11  12
ENDBRANCH   9  11
ENDBRANCH   8   9
ENDBRANCH   2   8
BRANCH   3  14
ATOM     14  C   LIG    1       25.942 -26.943  12.458  0.00  0.00    +0.194 C 
BRANCH  14  15
ATOM     15  O   LIG    1       24.925 -27.253  13.414  0.00  0.00    -0.375 OA
BRANCH  15  16
ATOM     16  C   LIG    1       23.891 -26.267  13.583  0.00  0.00    +0.190 C 
BRANCH  16  17
ATOM     17  C   LIG    1       22.465 -26.777  13.338  0.00  0.00    +0.137 C 
ATOM     18  C   LIG    1       21.572 -26.650  14.565  0.00  0.00    +0.040 C 
BRANCH  17  19
ATOM     19  O   LIG    1       22.473 -28.000  12.634  0.00  0.00    -0.390 OA
ATOM     20  H   LIG    1       22.855 -27.866  11.743  0.00  0.00    +0.210 HD
ENDBRANCH  17  19
ENDBRANCH  16  17
ENDBRANCH  15  16
ENDBRANCH  14  15
ENDBRANCH   3  14
BRANCH   7  21
ATOM     21  O   LIG    1       24.080 -29.405  10.404  0.00  0.00    -0.369 OA
BRANCH  21  22
ATOM     22  C   LIG    1       23.023 -30.255  10.049  0.00  0.00    +0.191 C 
BRANCH  22  23
ATOM     23  C   LIG    1       22.610 -31.249  11.149  0.00  0.00    +0.137 C 
ATOM     24  C   LIG    1       22.281 -32.513  10.370  0.00  0.00    +0.040 C 
BRANCH  23  25
ATOM     25  O   LIG    1       21.517 -30.797  11.933  0.00  0.00    -0.390 OA
ATOM     26  H   LIG    1       21.867 -30.462  12.770  0.00  0.00    +0.210 HD
ENDBRANCH  23  25
ENDBRANCH  22  23
ENDBRANCH  21  22
ENDBRANCH   7  21
BRANCH   6  27
ATOM     27  O   LIG    1       27.434 -31.081   9.609  0.00  0.00    -0.366 OA
BRANCH  27  28
ATOM     28  C   LIG    1       27.223 -32.402   9.096  0.00  0.00    +0.191 C 
BRANCH  28  29
ATOM     29  C   LIG    1       27.136 -32.760   7.604  0.00  0.00    +0.137 C 
ATOM     30  C   LIG    1       28.198 -33.663   7.030  0.00  0.00    +0.040 C 
BRANCH  29  31
ATOM     31  O   LIG    1       27.024 -31.617   6.793  0.00  0.00    -0.390 OA
ATOM     32  H   LIG    1       26.928 -30.827   7.346  0.00  0.00    +0.210 HD
ENDBRANCH  29  31
ENDBRANCH  28  29
ENDBRANCH  27  28
ENDBRANCH   6  27
ENDBRANCH   1   5
BRANCH   1  33
ATOM     33  C   LIG    1       25.583 -27.513   7.435  0.00  0.00    +0.184 C 
ATOM     34  C   LIG    1       24.420 -27.903   6.529  0.00  0.00    +0.178 C 
ATOM     35  O   LIG    1       23.468 -26.757   6.423  0.00  0.00    -0.341 OA
ATOM     36  C   LIG    1       23.959 -25.365   6.316  0.00  0.00    +0.282 C 
ATOM     37  C   LIG    1       25.496 -25.119   7.100  0.00  0.00    +0.205 C 
ATOM     38  C   LIG    1       26.263 -26.335   6.792  0.00  0.00    +0.183 C 
BRANCH  38  39
ATOM     39  O   LIG    1       26.498 -26.598   5.399  0.00  0.00    -0.369 OA
BRANCH  39  40
ATOM     40  C   LIG    1       27.504 -27.348   4.631  0.00  0.00    +0.191 C 
BRANCH  40  41
ATOM     41  C   LIG    1       28.980 -27.034   4.103  0.00  0.00    +0.137 C 
ATOM     42  C   LIG    1       29.882 -27.787   3.105  0.00  0.00    +0.040 C 
BRANCH  41  43
ATOM     43  O   LIG    1       29.796 -27.010   5.243  0.00  0.00    -0.390 OA
ATOM     44  H   LIG    1       30.647 -27.160   4.875  0.00  0.00    +0.210 HD
ENDBRANCH  41  43
ENDBRANCH  40  41
ENDBRANCH  39  40
ENDBRANCH  38  39
BRANCH  34  45
ATOM     45  C   LIG    1       24.792 -28.940   5.300  0.00  0.00    +0.194 C 
BRANCH  45  46
ATOM     46  O   LIG    1       24.887 -30.358   5.487  0.00  0.00    -0.375 OA
BRANCH  46  47
ATOM     47  C   LIG    1       23.842 -31.061   6.162  0.00  0.00    +0.190 C 
BRANCH  47  48
ATOM     48  C   LIG    1       23.718 -32.571   5.757  0.00  0.00    +0.137 C 
ATOM     49  C   LIG    1       23.580 -33.436   7.010  0.00  0.00    +0.040 C 
BRANCH  48  50
ATOM     50  O   LIG    1       24.837 -33.065   5.033  0.00  0.00    -0.390 OA
ATOM     51  H   LIG    1       25.498 -32.357   5.066  0.00  0.00    +0.210 HD
ENDBRANCH  48  50
ENDBRANCH  47  48
ENDBRANCH  46  47
ENDBRANCH  45  46
ENDBRANCH  34  45
BRANCH  37  52
ATOM     52  O   LIG    1       26.497 -23.991   7.161  0.00  0.00    -0.366 OA
BRANCH  52  53
ATOM     53  C   LIG    1       26.515 -22.634   7.779  0.00  0.00    +0.191 C 
BRANCH  53  54
ATOM     54  C   LIG    1       26.934 -21.449   6.906  0.00  0.00    +0.137 C 
ATOM     55  C   LIG    1       28.376 -21.179   7.121  0.00  0.00    +0.040 C 
BRANCH  54  56
ATOM     56  O   LIG    1       26.101 -20.384   7.298  0.00  0.00    -0.390 OA
ATOM     57  H   LIG    1       25.232 -20.595   6.903  0.00  0.00    +0.210 HD
ENDBRANCH  54  56
ENDBRANCH  53  54
ENDBRANCH  52  53
ENDBRANCH  37  52
BRANCH  36  58
ATOM     58  O   LIG    1       22.913 -24.252   6.608  0.00  0.00    -0.346 OA
BRANCH  58  59
ATOM     59  C   LIG    1       23.266 -22.786   7.099  0.00  0.00    +0.194 C 
BRANCH  59  60
ATOM     60  C   LIG    1       22.940 -21.850   5.976  0.00  0.00    +0.137 C 
ATOM     61  C   LIG    1       23.629 -21.051   4.844  0.00  0.00    +0.040 C 
BRANCH  60  62
ATOM     62  O   LIG    1       23.198 -20.848   6.927  0.00  0.00    -0.390 OA
ATOM     63  H   LIG    1       22.915 -21.249   7.625  0.00  0.00    +0.210 HD
ENDBRANCH  60  62
ENDBRANCH  59  60
ENDBRANCH  58  59
ENDBRANCH  36  58
ENDBRANCH   1  33
TORSDOF 36
ENDMDL
MODEL 6
REMARK VINA RESULT:      -2.8      2.508      9.266
REMARK  Name = *****
REMARK                            x       y       z     vdW  Elec       q    Type
REMARK                         _______ _______ _______ _____ _____    ______ ____
ROOT
ATOM      1  O   LIG    1       25.933 -28.264   7.863  0.00  0.00    -0.340 OA
ENDROOT
BRANCH   1   5
ATOM      2  C   LIG    1       25.154 -31.369  10.642  0.00  0.00    +0.181 C 
ATOM      3  C   LIG    1       24.112 -30.237  10.388  0.00  0.00    +0.178 C 
ATOM      4  O   LIG    1       24.328 -29.504   9.160  0.00  0.00    -0.341 OA
ATOM      5  C   LIG    1       25.603 -28.830   9.149  0.00  0.00    +0.282 C 
ATOM      6  C   LIG    1       26.733 -29.877   9.333  0.00  0.00    +0.205 C 
ATOM      7  C   LIG    1       26.096 -31.298   9.469  0.00  0.00    +0.183 C 
BRANCH   2   8
ATOM      8  O   LIG    1       26.012 -31.204  11.811  0.00  0.00    -0.369 OA
BRANCH   8   9
ATOM      9  C   LIG    1       25.512 -31.865  13.011  0.00  0.00    +0.191 C 
BRANCH   9  11
ATOM     10  C   LIG    1       23.698 -31.588  14.817  0.00  0.00    +0.040 C 
ATOM     11  C   LIG    1       24.791 -30.895  13.994  0.00  0.00    +0.137 C 
BRANCH  11  12
ATOM     12  O   LIG    1       25.677 -30.277  14.938  0.00  0.00    -0.390 OA
ATOM     13  H   LIG    1       26.043 -29.469  14.537  0.00  0.00    +0.210 HD
ENDBRANCH  11  12
ENDBRANCH   9  11
ENDBRANCH   8   9
ENDBRANCH   2   8
BRANCH   3  14
ATOM     14  C   LIG    1       22.625 -30.632  10.608  0.00  0.00    +0.194 C 
BRANCH  14  15
ATOM     15  O   LIG    1       21.791 -29.591  11.120  0.00  0.00    -0.375 OA
BRANCH  15  16
ATOM     16  C   LIG    1       21.608 -29.567  12.547  0.00  0.00    +0.190 C 
BRANCH  16  17
ATOM     17  C   LIG    1       21.882 -28.212  13.212  0.00  0.00    +0.137 C 
ATOM     18  C   LIG    1       20.797 -27.182  12.925  0.00  0.00    +0.040 C 
BRANCH  17  19
ATOM     19  O   LIG    1       23.231 -27.830  13.058  0.00  0.00    -0.390 OA
ATOM     20  H   LIG    1       23.523 -28.012  12.142  0.00  0.00    +0.210 HD
ENDBRANCH  17  19
ENDBRANCH  16  17
ENDBRANCH  15  16
ENDBRANCH  14  15
ENDBRANCH   3  14
BRANCH   7  21
ATOM     21  O   LIG    1       25.343 -31.743   8.343  0.00  0.00    -0.369 OA
BRANCH  21  22
ATOM     22  C   LIG    1       25.397 -33.136   8.204  0.00  0.00    +0.191 C 
BRANCH  22  23
ATOM     23  C   LIG    1       24.022 -33.818   8.101  0.00  0.00    +0.137 C 
ATOM     24  C   LIG    1       23.314 -33.015   7.020  0.00  0.00    +0.040 C 
BRANCH  23  25
ATOM     25  O   LIG    1       23.304 -33.825   9.326  0.00  0.00    -0.390 OA
ATOM     26  H   LIG    1       23.218 -32.911   9.627  0.00  0.00    +0.210 HD
ENDBRANCH  23  25
ENDBRANCH  22  23
ENDBRANCH  21  22
ENDBRANCH   7  21
BRANCH   6  27
ATOM     27  O   LIG    1       27.718 -29.440  10.279  0.00  0.00    -0.366 OA
BRANCH  27  28
ATOM     28  C   LIG    1       27.452 -28.221  10.983  0.00  0.00    +0.191 C 
BRANCH  28  29
ATOM     29  C   LIG    1       26.888 -28.137  12.410  0.00  0.00    +0.137 C 
ATOM     30  C   LIG    1       26.617 -26.770  12.986  0.00  0.00    +0.040 C 
BRANCH  29  31
ATOM     31  O   LIG    1       27.662 -28.871  13.327  0.00  0.00    -0.390 OA
ATOM     32  H   LIG    1       28.569 -28.530  13.342  0.00  0.00    +0.210 HD
ENDBRANCH  29  31
ENDBRANCH  28  29
ENDBRANCH  27  28
ENDBRANCH   6  27
ENDBRANCH   1   5
BRANCH   1  33
ATOM     33  C   LIG    1       25.249 -27.131   7.369  0.00  0.00    +0.184 C 
ATOM     34  C   LIG    1       24.134 -27.409   6.368  0.00  0.00    +0.178 C 
ATOM     35  O   LIG    1       23.319 -26.173   6.176  0.00  0.00    -0.341 OA
ATOM     36  C   LIG    1       23.961 -24.841   6.105  0.00  0.00    +0.282 C 
ATOM     37  C   LIG    1       25.442 -24.746   7.018  0.00  0.00    +0.205 C 
ATOM     38  C   LIG    1       26.101 -26.038   6.782  0.00  0.00    +0.183 C 
BRANCH  38  39
ATOM     39  O   LIG    1       26.425 -26.343   5.416  0.00  0.00    -0.369 OA
BRANCH  39  40
ATOM     40  C   LIG    1       27.410 -27.202   4.741  0.00  0.00    +0.191 C 
BRANCH  40  41
ATOM     41  C   LIG    1       28.902 -26.997   4.203  0.00  0.00    +0.137 C 
ATOM     42  C   LIG    1       29.739 -27.813   3.198  0.00  0.00    +0.040 C 
BRANCH  41  43
ATOM     43  O   LIG    1       29.724 -27.033   5.337  0.00  0.00    -0.390 OA
ATOM     44  H   LIG    1       29.099 -26.941   6.033  0.00  0.00    +0.210 HD
ENDBRANCH  41  43
ENDBRANCH  40  41
ENDBRANCH  39  40
ENDBRANCH  38  39
BRANCH  34  45
ATOM     45  C   LIG    1       24.499 -28.496   5.180  0.00  0.00    +0.194 C 
BRANCH  45  46
ATOM     46  O   LIG    1       24.625 -29.901   5.430  0.00  0.00    -0.375 OA
BRANCH  46  47
ATOM     47  C   LIG    1       25.817 -30.591   5.049  0.00  0.00    +0.190 C 
BRANCH  47  48
ATOM     48  C   LIG    1       25.574 -32.042   4.505  0.00  0.00    +0.137 C 
ATOM     49  C   LIG    1       26.730 -32.953   4.918  0.00  0.00    +0.040 C 
BRANCH  48  50
ATOM     50  O   LIG    1       25.472 -32.115   3.090  0.00  0.00    -0.390 OA
ATOM     51  H   LIG    1       26.183 -32.713   2.811  0.00  0.00    +0.210 HD
ENDBRANCH  48  50
ENDBRANCH  47  48
ENDBRANCH  46  47
ENDBRANCH  45  46
ENDBRANCH  34  45
BRANCH  37  52
ATOM     52  O   LIG    1       26.547 -23.727   7.161  0.00  0.00    -0.366 OA
BRANCH  52  53
ATOM     53  C   LIG    1       26.631 -22.334   7.687  0.00  0.00    +0.191 C 
BRANCH  53  54
ATOM     54  C   LIG    1       27.617 -21.370   7.022  0.00  0.00    +0.137 C 
ATOM     55  C   LIG    1       27.956 -20.291   7.981  0.00  0.00    +0.040 C 
BRANCH  54  56
ATOM     56  O   LIG    1       26.962 -20.906   5.865  0.00  0.00    -0.390 OA
ATOM     57  H   LIG    1       27.604 -21.057   5.144  0.00  0.00    +0.210 HD
ENDBRANCH  54  56
ENDBRANCH  53  54
ENDBRANCH  52  53
ENDBRANCH  37  52
BRANCH  36  58
ATOM     58  O   LIG    1       23.015 -23.621   6.302  0.00  0.00    -0.346 OA
BRANCH  58  59
ATOM     59  C   LIG    1       23.500 -22.137   6.579  0.00  0.00    +0.194 C 
BRANCH  59  60
ATOM     60  C   LIG    1       23.326 -21.367   5.306  0.00  0.00    +0.137 C 
ATOM     61  C   LIG    1       23.999 -21.161   3.929  0.00  0.00    +0.040 C 
BRANCH  60  62
ATOM     62  O   LIG    1       24.164 -20.427   5.928  0.00  0.00    -0.390 OA
ATOM     63  H   LIG    1       24.346 -19.940   5.252  0.00  0.00    +0.210 HD
ENDBRANCH  60  62
ENDBRANCH  59  60
ENDBRANCH  58  59
ENDBRANCH  36  58
ENDBRANCH   1  33
TORSDOF 36
ENDMDL
MODEL 7
REMARK VINA RESULT:      -2.6      1.448      1.965
REMARK  Name = *****
REMARK                            x       y       z     vdW  Elec       q    Type
REMARK                         _______ _______ _______ _____ _____    ______ ____
ROOT
ATOM      1  O   LIG    1       23.844 -30.006  10.636  0.00  0.00    -0.340 OA
ENDROOT
BRANCH   1   5
ATOM      2  C   LIG    1       25.140 -31.439   6.862  0.00  0.00    +0.181 C 
ATOM      3  C   LIG    1       24.222 -30.181   6.974  0.00  0.00    +0.178 C 
ATOM      4  O   LIG    1       24.199 -29.587   8.292  0.00  0.00    -0.341 OA
ATOM      5  C   LIG    1       23.688 -30.497   9.288  0.00  0.00    +0.282 C 
ATOM      6  C   LIG    1       24.570 -31.772   9.311  0.00  0.00    +0.205 C 
ATOM      7  C   LIG    1       25.704 -31.629   8.245  0.00  0.00    +0.183 C 
BRANCH   2   8
ATOM      8  O   LIG    1       24.469 -32.700   6.563  0.00  0.00    -0.369 OA
BRANCH   8   9
ATOM      9  C   LIG    1       24.238 -32.925   5.140  0.00  0.00    +0.191 C 
BRANCH   9  11
ATOM     10  C   LIG    1       25.295 -33.009   2.794  0.00  0.00    +0.040 C 
ATOM     11  C   LIG    1       25.552 -32.987   4.306  0.00  0.00    +0.137 C 
BRANCH  11  12
ATOM     12  O   LIG    1       26.435 -31.884   4.549  0.00  0.00    -0.390 OA
ATOM     13  H   LIG    1       25.913 -31.138   4.894  0.00  0.00    +0.210 HD
ENDBRANCH  11  12
ENDBRANCH   9  11
ENDBRANCH   8   9
ENDBRANCH   2   8
BRANCH   3  14
ATOM     14  C   LIG    1       24.377 -29.135   5.836  0.00  0.00    +0.194 C 
BRANCH  14  15
ATOM     15  O   LIG    1       25.655 -28.498   5.768  0.00  0.00    -0.375 OA
BRANCH  15  16
ATOM     16  C   LIG    1       25.740 -27.329   4.934  0.00  0.00    +0.190 C 
BRANCH  16  17
ATOM     17  C   LIG    1       25.197 -26.042   5.567  0.00  0.00    +0.137 C 
ATOM     18  C   LIG    1       25.508 -25.936   7.054  0.00  0.00    +0.040 C 
BRANCH  17  19
ATOM     19  O   LIG    1       23.880 -25.775   5.134  0.00  0.00    -0.390 OA
ATOM     20  H   LIG    1       23.819 -24.854   4.809  0.00  0.00    +0.210 HD
ENDBRANCH  17  19
ENDBRANCH  16  17
ENDBRANCH  15  16
ENDBRANCH  14  15
ENDBRANCH   3  14
BRANCH   7  21
ATOM     21  O   LIG    1       26.602 -30.541   8.448  0.00  0.00    -0.369 OA
BRANCH  21  22
ATOM     22  C   LIG    1       27.114 -30.529   9.752  0.00  0.00    +0.191 C 
BRANCH  22  23
ATOM     23  C   LIG    1       27.691 -29.174  10.196  0.00  0.00    +0.137 C 
ATOM     24  C   LIG    1       28.312 -29.485  11.549  0.00  0.00    +0.040 C 
BRANCH  23  25
ATOM     25  O   LIG    1       26.715 -28.145  10.273  0.00  0.00    -0.390 OA
ATOM     26  H   LIG    1       25.971 -28.396   9.710  0.00  0.00    +0.210 HD
ENDBRANCH  23  25
ENDBRANCH  22  23
ENDBRANCH  21  22
ENDBRANCH   7  21
BRANCH   6  27
ATOM     27  O   LIG    1       23.780 -32.968   9.359  0.00  0.00    -0.366 OA
BRANCH  27  28
ATOM     28  C   LIG    1       22.363 -32.821   9.206  0.00  0.00    +0.191 C 
BRANCH  28  29
ATOM     29  C   LIG    1       21.315 -33.803   9.753  0.00  0.00    +0.137 C 
ATOM     30  C   LIG    1       19.946 -33.804   9.121  0.00  0.00    +0.040 C 
BRANCH  29  31
ATOM     31  O   LIG    1       21.172 -33.698  11.148  0.00  0.00    -0.390 OA
ATOM     32  H   LIG    1       20.684 -32.891  11.371  0.00  0.00    +0.210 HD
ENDBRANCH  29  31
ENDBRANCH  28  29
ENDBRANCH  27  28
ENDBRANCH   6  27
ENDBRANCH   1   5
BRANCH   1  33
ATOM     33  C   LIG    1       22.726 -29.595  11.395  0.00  0.00    +0.184 C 
ATOM     34  C   LIG    1       23.034 -28.777  12.644  0.00  0.00    +0.178 C 
ATOM     35  O   LIG    1       21.773 -28.167  13.162  0.00  0.00    -0.341 OA
ATOM     36  C   LIG    1       20.502 -28.925  13.157  0.00  0.00    +0.282 C 
ATOM     37  C   LIG    1       20.410 -30.100  11.873  0.00  0.00    +0.205 C 
ATOM     38  C   LIG    1       21.761 -30.674  11.805  0.00  0.00    +0.183 C 
BRANCH  38  39
ATOM     39  O   LIG    1       22.229 -31.332  12.993  0.00  0.00    -0.369 OA
BRANCH  39  40
ATOM     40  C   LIG    1       21.656 -32.285  13.955  0.00  0.00    +0.191 C 
BRANCH  40  41
ATOM     41  C   LIG    1       20.700 -32.160  15.231  0.00  0.00    +0.137 C 
ATOM     42  C   LIG    1       19.287 -32.716  15.498  0.00  0.00    +0.040 C 
BRANCH  41  43
ATOM     43  O   LIG    1       20.492 -30.787  15.418  0.00  0.00    -0.390 OA
ATOM     44  H   LIG    1       19.579 -30.699  15.213  0.00  0.00    +0.210 HD
ENDBRANCH  41  43
ENDBRANCH  40  41
ENDBRANCH  39  40
ENDBRANCH  38  39
BRANCH  34  45
ATOM     45  C   LIG    1       24.262 -29.352  13.586  0.00  0.00    +0.194 C 
BRANCH  45  46
ATOM     46  O   LIG    1       25.621 -28.924  13.431  0.00  0.00    -0.375 OA
BRANCH  46  47
ATOM     47  C   LIG    1       26.306 -28.310  14.524  0.00  0.00    +0.190 C 
BRANCH  47  48
ATOM     48  C   LIG    1       27.089 -27.006  14.142  0.00  0.00    +0.137 C 
ATOM     49  C   LIG    1       26.518 -25.812  14.906  0.00  0.00    +0.040 C 
BRANCH  48  50
ATOM     50  O   LIG    1       27.025 -26.683  12.759  0.00  0.00    -0.390 OA
ATOM     51  H   LIG    1       27.059 -27.533  12.294  0.00  0.00    +0.210 HD
ENDBRANCH  48  50
ENDBRANCH  47  48
ENDBRANCH  46  47
ENDBRANCH  45  46
ENDBRANCH  34  45
BRANCH  37  52
ATOM     52  O   LIG    1       19.458 -31.213  11.508  0.00  0.00    -0.366 OA
BRANCH  52  53
ATOM     53  C   LIG    1       18.693 -32.237  12.277  0.00  0.00    +0.191 C 
BRANCH  53  54
ATOM     54  C   LIG    1       17.248 -31.917  12.665  0.00  0.00    +0.137 C 
ATOM     55  C   LIG    1       16.343 -32.872  11.981  0.00  0.00    +0.040 C 
BRANCH  54  56
ATOM     56  O   LIG    1       17.045 -30.578  12.276  0.00  0.00    -0.390 OA
ATOM     57  H   LIG    1       17.549 -30.054  12.930  0.00  0.00    +0.210 HD
ENDBRANCH  54  56
ENDBRANCH  53  54
ENDBRANCH  52  53
ENDBRANCH  37  52
BRANCH  36  58
ATOM     58  O   LIG    1       19.208 -28.081  13.338  0.00  0.00    -0.346 OA
BRANCH  58  59
ATOM     59  C   LIG    1       19.157 -26.496  13.350  0.00  0.00    +0.194 C 
BRANCH  59  60
ATOM     60  C   LIG    1       19.618 -26.046  14.703  0.00  0.00    +0.137 C 
ATOM     61  C   LIG    1       20.912 -25.677  15.466  0.00  0.00    +0.040 C 
BRANCH  60  62
ATOM     62  O   LIG    1       19.794 -27.420  14.940  0.00  0.00    -0.390 OA
ATOM     63  H   LIG    1       19.242 -27.727  14.368  0.00  0.00    +0.210 HD
ENDBRANCH  60  62
ENDBRANCH  59  60
ENDBRANCH  58  59
ENDBRANCH  36  58
ENDBRANCH   1  33
TORSDOF 36
ENDMDL
MODEL 8
REMARK VINA RESULT:      -2.4      1.764      5.002
REMARK  Name = *****
REMARK                            x       y       z     vdW  Elec       q    Type
REMARK                         _______ _______ _______ _____ _____    ______ ____
ROOT
ATOM      1  O   LIG    1       22.841 -30.907  10.315  0.00  0.00    -0.340 OA
ENDROOT
BRANCH   1   5
ATOM      2  C   LIG    1       26.395 -29.392   8.570  0.00  0.00    +0.181 C 
ATOM      3  C   LIG    1       25.715 -28.666   9.771  0.00  0.00    +0.178 C 
ATOM      4  O   LIG    1       24.776 -29.489  10.501  0.00  0.00    -0.341 OA
ATOM      5  C   LIG    1       23.679 -29.922   9.673  0.00  0.00    +0.282 C 
ATOM      6  C   LIG    1       24.237 -30.721   8.466  0.00  0.00    +0.205 C 
ATOM      7  C   LIG    1       25.795 -30.774   8.565  0.00  0.00    +0.183 C 
BRANCH   2   8
ATOM      8  O   LIG    1       26.099 -28.860   7.243  0.00  0.00    -0.369 OA
BRANCH   8   9
ATOM      9  C   LIG    1       25.844 -27.424   7.226  0.00  0.00    +0.191 C 
BRANCH   9  11
ATOM     10  C   LIG    1       24.840 -25.871   5.435  0.00  0.00    +0.040 C 
ATOM     11  C   LIG    1       24.582 -27.032   6.402  0.00  0.00    +0.137 C 
BRANCH  11  12
ATOM     12  O   LIG    1       24.061 -28.108   5.611  0.00  0.00    -0.390 OA
ATOM     13  H   LIG    1       24.695 -28.307   4.900  0.00  0.00    +0.210 HD
ENDBRANCH  11  12
ENDBRANCH   9  11
ENDBRANCH   8   9
ENDBRANCH   2   8
BRANCH   3  14
ATOM     14  C   LIG    1       26.671 -27.863  10.697  0.00  0.00    +0.194 C 
BRANCH  14  15
ATOM     15  O   LIG    1       26.475 -28.072  12.098  0.00  0.00    -0.375 OA
BRANCH  15  16
ATOM     16  C   LIG    1       25.611 -27.135  12.765  0.00  0.00    +0.190 C 
BRANCH  16  17
ATOM     17  C   LIG    1       26.291 -26.284  13.845  0.00  0.00    +0.137 C 
ATOM     18  C   LIG    1       25.472 -26.186  15.125  0.00  0.00    +0.040 C 
BRANCH  17  19
ATOM     19  O   LIG    1       26.829 -25.099  13.298  0.00  0.00    -0.390 OA
ATOM     20  H   LIG    1       27.575 -25.319  12.704  0.00  0.00    +0.210 HD
ENDBRANCH  17  19
ENDBRANCH  16  17
ENDBRANCH  15  16
ENDBRANCH  14  15
ENDBRANCH   3  14
BRANCH   7  21
ATOM     21  O   LIG    1       26.314 -31.423   9.724  0.00  0.00    -0.369 OA
BRANCH  21  22
ATOM     22  C   LIG    1       27.429 -32.214   9.417  0.00  0.00    +0.191 C 
BRANCH  22  23
ATOM     23  C   LIG    1       27.303 -33.009   8.106  0.00  0.00    +0.137 C 
ATOM     24  C   LIG    1       26.037 -33.825   8.312  0.00  0.00    +0.040 C 
BRANCH  23  25
ATOM     25  O   LIG    1       28.433 -33.825   7.831  0.00  0.00    -0.390 OA
ATOM     26  H   LIG    1       28.130 -34.739   7.754  0.00  0.00    +0.210 HD
ENDBRANCH  23  25
ENDBRANCH  22  23
ENDBRANCH  21  22
ENDBRANCH   7  21
BRANCH   6  27
ATOM     27  O   LIG    1       23.610 -30.335   7.235  0.00  0.00    -0.366 OA
BRANCH  27  28
ATOM     28  C   LIG    1       23.566 -31.313   6.189  0.00  0.00    +0.191 C 
BRANCH  28  29
ATOM     29  C   LIG    1       24.608 -31.447   5.068  0.00  0.00    +0.137 C 
ATOM     30  C   LIG    1       25.195 -32.810   4.805  0.00  0.00    +0.040 C 
BRANCH  29  31
ATOM     31  O   LIG    1       25.656 -30.520   5.209  0.00  0.00    -0.390 OA
ATOM     32  H   LIG    1       25.303 -29.660   5.484  0.00  0.00    +0.210 HD
ENDBRANCH  29  31
ENDBRANCH  28  29
ENDBRANCH  27  28
ENDBRANCH   6  27
ENDBRANCH   1   5
BRANCH   1  33
ATOM     33  C   LIG    1       22.345 -30.701  11.622  0.00  0.00    +0.184 C 
ATOM     34  C   LIG    1       23.282 -31.091  12.759  0.00  0.00    +0.178 C 
ATOM     35  O   LIG    1       22.758 -30.543  14.045  0.00  0.00    -0.341 OA
ATOM     36  C   LIG    1       21.308 -30.553  14.342  0.00  0.00    +0.282 C 
ATOM     37  C   LIG    1       20.315 -30.458  12.914  0.00  0.00    +0.205 C 
ATOM     38  C   LIG    1       21.004 -31.308  11.932  0.00  0.00    +0.183 C 
BRANCH  38  39
ATOM     39  O   LIG    1       21.158 -32.691  12.291  0.00  0.00    -0.369 OA
BRANCH  39  40
ATOM     40  C   LIG    1       20.272 -33.738  12.824  0.00  0.00    +0.191 C 
BRANCH  40  41
ATOM     41  C   LIG    1       18.714 -33.824  13.173  0.00  0.00    +0.137 C 
ATOM     42  C   LIG    1       17.465 -33.538  12.316  0.00  0.00    +0.040 C 
BRANCH  41  43
ATOM     43  O   LIG    1       18.515 -32.945  14.247  0.00  0.00    -0.390 OA
ATOM     44  H   LIG    1       17.588 -32.797  14.207  0.00  0.00    +0.210 HD
ENDBRANCH  41  43
ENDBRANCH  40  41
ENDBRANCH  39  40
ENDBRANCH  38  39
BRANCH  34  45
ATOM     45  C   LIG    1       24.037 -32.549  12.590  0.00  0.00    +0.194 C 
BRANCH  45  46
ATOM     46  O   LIG    1       25.233 -32.887  13.304  0.00  0.00    -0.375 OA
BRANCH  46  47
ATOM     47  C   LIG    1       25.313 -32.660  14.713  0.00  0.00    +0.190 C 
BRANCH  47  48
ATOM     48  C   LIG    1       26.767 -32.404  15.241  0.00  0.00    +0.137 C 
ATOM     49  C   LIG    1       27.260 -31.036  14.767  0.00  0.00    +0.040 C 
BRANCH  48  50
ATOM     50  O   LIG    1       27.717 -33.363  14.797  0.00  0.00    -0.390 OA
ATOM     51  H   LIG    1       27.248 -33.908  14.146  0.00  0.00    +0.210 HD
ENDBRANCH  48  50
ENDBRANCH  47  48
ENDBRANCH  46  47
ENDBRANCH  45  46
ENDBRANCH  34  45
BRANCH  37  52
ATOM     52  O   LIG    1       18.839 -30.591  12.626  0.00  0.00    -0.366 OA
BRANCH  52  53
ATOM     53  C   LIG    1       17.648 -29.711  12.812  0.00  0.00    +0.191 C 
BRANCH  53  54
ATOM     54  C   LIG    1       16.913 -29.768  14.153  0.00  0.00    +0.137 C 
ATOM     55  C   LIG    1       16.466 -28.402  14.515  0.00  0.00    +0.040 C 
BRANCH  54  56
ATOM     56  O   LIG    1       17.838 -30.314  15.063  0.00  0.00    -0.390 OA
ATOM     57  H   LIG    1       17.984 -31.227  14.746  0.00  0.00    +0.210 HD
ENDBRANCH  54  56
ENDBRANCH  53  54
ENDBRANCH  52  53
ENDBRANCH  37  52
BRANCH  36  58
ATOM     58  O   LIG    1       20.846 -29.620  15.499  0.00  0.00    -0.346 OA
BRANCH  58  59
ATOM     59  C   LIG    1       20.573 -28.065  15.351  0.00  0.00    +0.194 C 
BRANCH  59  60
ATOM     60  C   LIG    1       21.090 -27.649  14.008  0.00  0.00    +0.137 C 
ATOM     61  C   LIG    1       21.975 -26.566  13.348  0.00  0.00    +0.040 C 
BRANCH  60  62
ATOM     62  O   LIG    1       19.952 -26.824  13.985  0.00  0.00    -0.390 OA
ATOM     63  H   LIG    1       20.094 -26.419  13.249  0.00  0.00    +0.210 HD
ENDBRANCH  60  62
ENDBRANCH  59  60
ENDBRANCH  58  59
ENDBRANCH  36  58
ENDBRANCH   1  33
TORSDOF 36
ENDMDL
MODEL 9
REMARK VINA RESULT:      -2.2      2.877      7.674
REMARK  Name = *****
REMARK                            x       y       z     vdW  Elec       q    Type
REMARK                         _______ _______ _______ _____ _____    ______ ____
ROOT
ATOM      1  O   LIG    1       26.399 -28.437   8.178  0.00  0.00    -0.340 OA
ENDROOT
BRANCH   1   5
ATOM      2  C   LIG    1       25.230 -25.143   5.780  0.00  0.00    +0.181 C 
ATOM      3  C   LIG    1       25.707 -24.939   7.251  0.00  0.00    +0.178 C 
ATOM      4  O   LIG    1       26.438 -26.062   7.793  0.00  0.00    -0.341 OA
ATOM      5  C   LIG    1       25.638 -27.260   7.836  0.00  0.00    +0.282 C 
ATOM      6  C   LIG    1       25.155 -27.601   6.402  0.00  0.00    +0.205 C 
ATOM      7  C   LIG    1       25.702 -26.525   5.410  0.00  0.00    +0.183 C 
BRANCH   2   8
ATOM      8  O   LIG    1       23.786 -25.181   5.570  0.00  0.00    -0.369 OA
BRANCH   8   9
ATOM      9  C   LIG    1       23.023 -24.450   6.575  0.00  0.00    +0.191 C 
BRANCH   9  11
ATOM     10  C   LIG    1       23.035 -22.010   7.399  0.00  0.00    +0.040 C 
ATOM     11  C   LIG    1       22.802 -22.951   6.211  0.00  0.00    +0.137 C 
BRANCH  11  12
ATOM     12  O   LIG    1       23.656 -22.489   5.156  0.00  0.00    -0.390 OA
ATOM     13  H   LIG    1       24.511 -22.225   5.541  0.00  0.00    +0.210 HD
ENDBRANCH  11  12
ENDBRANCH   9  11
ENDBRANCH   8   9
ENDBRANCH   2   8
BRANCH   3  14
ATOM     14  C   LIG    1       26.378 -23.570   7.554  0.00  0.00    +0.194 C 
BRANCH  14  15
ATOM     15  O   LIG    1       26.282 -22.603   6.506  0.00  0.00    -0.375 OA
BRANCH  15  16
ATOM     16  C   LIG    1       26.530 -21.235   6.879  0.00  0.00    +0.190 C 
BRANCH  16  17
ATOM     17  C   LIG    1       27.894 -20.683   6.445  0.00  0.00    +0.137 C 
ATOM     18  C   LIG    1       28.600 -19.914   7.553  0.00  0.00    +0.040 C 
BRANCH  17  19
ATOM     19  O   LIG    1       27.826 -20.103   5.160  0.00  0.00    -0.390 OA
ATOM     20  H   LIG    1       26.890 -19.967   4.909  0.00  0.00    +0.210 HD
ENDBRANCH  17  19
ENDBRANCH  16  17
ENDBRANCH  15  16
ENDBRANCH  14  15
ENDBRANCH   3  14
BRANCH   7  21
ATOM     21  O   LIG    1       27.122 -26.436   5.323  0.00  0.00    -0.369 OA
BRANCH  21  22
ATOM     22  C   LIG    1       27.648 -27.403   4.455  0.00  0.00    +0.191 C 
BRANCH  22  23
ATOM     23  C   LIG    1       29.184 -27.480   4.446  0.00  0.00    +0.137 C 
ATOM     24  C   LIG    1       29.594 -26.393   5.428  0.00  0.00    +0.040 C 
BRANCH  23  25
ATOM     25  O   LIG    1       29.750 -27.284   3.158  0.00  0.00    -0.390 OA
ATOM     26  H   LIG    1       29.628 -28.098   2.651  0.00  0.00    +0.210 HD
ENDBRANCH  23  25
ENDBRANCH  22  23
ENDBRANCH  21  22
ENDBRANCH   7  21
BRANCH   6  27
ATOM     27  O   LIG    1       23.766 -27.958   6.377  0.00  0.00    -0.366 OA
BRANCH  27  28
ATOM     28  C   LIG    1       23.424 -29.206   5.760  0.00  0.00    +0.191 C 
BRANCH  28  29
ATOM     29  C   LIG    1       24.141 -30.539   6.022  0.00  0.00    +0.137 C 
ATOM     30  C   LIG    1       25.484 -30.760   5.376  0.00  0.00    +0.040 C 
BRANCH  29  31
ATOM     31  O   LIG    1       23.316 -31.644   5.747  0.00  0.00    -0.390 OA
ATOM     32  H   LIG    1       22.909 -31.544   4.873  0.00  0.00    +0.210 HD
ENDBRANCH  29  31
ENDBRANCH  28  29
ENDBRANCH  27  28
ENDBRANCH   6  27
ENDBRANCH   1   5
BRANCH   1  33
ATOM     33  C   LIG    1       26.889 -28.633   9.489  0.00  0.00    +0.184 C 
ATOM     34  C   LIG    1       27.500 -30.000   9.774  0.00  0.00    +0.178 C 
ATOM     35  O   LIG    1       28.234 -29.954  11.073  0.00  0.00    -0.341 OA
ATOM     36  C   LIG    1       27.688 -29.213  12.232  0.00  0.00    +0.282 C 
ATOM     37  C   LIG    1       26.697 -27.856  11.771  0.00  0.00    +0.205 C 
ATOM     38  C   LIG    1       25.932 -28.338  10.612  0.00  0.00    +0.183 C 
BRANCH  38  39
ATOM     39  O   LIG    1       25.078 -29.470  10.845  0.00  0.00    -0.369 OA
BRANCH  39  40
ATOM     40  C   LIG    1       23.657 -29.657  11.175  0.00  0.00    +0.191 C 
BRANCH  40  41
ATOM     41  C   LIG    1       22.719 -29.229  12.398  0.00  0.00    +0.137 C 
ATOM     42  C   LIG    1       21.203 -28.960  12.468  0.00  0.00    +0.040 C 
BRANCH  41  43
ATOM     43  O   LIG    1       23.234 -28.012  12.865  0.00  0.00    -0.390 OA
ATOM     44  H   LIG    1       23.332 -28.183  13.784  0.00  0.00    +0.210 HD
ENDBRANCH  41  43
ENDBRANCH  40  41
ENDBRANCH  39  40
ENDBRANCH  38  39
BRANCH  34  45
ATOM     45  C   LIG    1       26.638 -31.295   9.221  0.00  0.00    +0.194 C 
BRANCH  45  46
ATOM     46  O   LIG    1       26.609 -32.553   9.905  0.00  0.00    -0.375 OA
BRANCH  46  47
ATOM     47  C   LIG    1       25.362 -33.102  10.338  0.00  0.00    +0.190 C 
BRANCH  47  48
ATOM     48  C   LIG    1       25.188 -33.152  11.896  0.00  0.00    +0.137 C 
ATOM     49  C   LIG    1       23.702 -33.165  12.253  0.00  0.00    +0.040 C 
BRANCH  48  50
ATOM     50  O   LIG    1       25.768 -32.046  12.574  0.00  0.00    -0.390 OA
ATOM     51  H   LIG    1       26.415 -31.675  11.954  0.00  0.00    +0.210 HD
ENDBRANCH  48  50
ENDBRANCH  47  48
ENDBRANCH  46  47
ENDBRANCH  45  46
ENDBRANCH  34  45
BRANCH  37  52
ATOM     52  O   LIG    1       25.794 -26.893  12.503  0.00  0.00    -0.366 OA
BRANCH  52  53
ATOM     53  C   LIG    1       26.011 -25.746  13.432  0.00  0.00    +0.191 C 
BRANCH  53  54
ATOM     54  C   LIG    1       25.480 -25.865  14.861  0.00  0.00    +0.137 C 
ATOM     55  C   LIG    1       26.038 -27.090  15.482  0.00  0.00    +0.040 C 
BRANCH  54  56
ATOM     56  O   LIG    1       24.077 -25.889  14.737  0.00  0.00    -0.390 OA
ATOM     57  H   LIG    1       23.756 -26.127  15.629  0.00  0.00    +0.210 HD
ENDBRANCH  54  56
ENDBRANCH  53  54
ENDBRANCH  52  53
ENDBRANCH  37  52
BRANCH  36  58
ATOM     58  O   LIG    1       28.696 -28.902  13.376  0.00  0.00    -0.346 OA
BRANCH  58  59
ATOM     59  C   LIG    1       29.614 -29.981  14.089  0.00  0.00    +0.194 C 
BRANCH  59  60
ATOM     60  C   LIG    1       31.037 -29.573  13.864  0.00  0.00    +0.137 C 
ATOM     61  C   LIG    1       32.238 -29.875  12.936  0.00  0.00    +0.040 C 
BRANCH  60  62
ATOM     62  O   LIG    1       31.332 -30.659  14.705  0.00  0.00    -0.390 OA
ATOM     63  H   LIG    1       31.891 -31.067  14.207  0.00  0.00    +0.210 HD
ENDBRANCH  60  62
ENDBRANCH  59  60
ENDBRANCH  58  59
ENDBRANCH  36  58
ENDBRANCH   1  33
TORSDOF 36
ENDMDL
