MODEL 1
REMARK VINA RESULT:      -5.5      0.000      0.000
REMARK  Name = *****
REMARK                            x       y       z     vdW  Elec       q    Type
REMARK                         _______ _______ _______ _____ _____    ______ ____
ROOT
ATOM      1  C   LIG    1       27.090 -17.265   3.663  0.00  0.00    +0.041 C 
ENDROOT
BRANCH   1   2
ATOM      2  C   LIG    1       25.696 -17.787   3.315  0.00  0.00    +0.003 C 
BRANCH   2   3
ATOM      3  C   LIG    1       25.493 -19.252   3.712  0.00  0.00    +0.000 C 
BRANCH   3   4
ATOM      4  C   LIG    1       26.415 -19.729   4.836  0.00  0.00    -0.000 C 
BRANCH   4   5
ATOM      5  C   LIG    1       25.964 -20.971   5.612  0.00  0.00    -0.000 C 
BRANCH   5   6
ATOM      6  C   LIG    1       25.265 -20.691   6.949  0.00  0.00    -0.000 C 
BRANCH   6   7
ATOM      7  C   LIG    1       23.777 -21.079   6.933  0.00  0.00    -0.000 C 
BRANCH   7   8
ATOM      8  C   LIG    1       22.883 -19.999   6.303  0.00  0.00    -0.000 C 
BRANCH   8   9
ATOM      9  C   LIG    1       22.274 -20.472   4.979  0.00  0.00    -0.000 C 
BRANCH   9  11
ATOM     10  C   LIG    1       22.200 -17.962   4.664  0.00  0.00    +0.004 C 
ATOM     11  C   LIG    1       21.805 -19.317   4.086  0.00  0.00    -0.003 C 
ENDBRANCH   9  11
ENDBRANCH   8   9
ENDBRANCH   7   8
ENDBRANCH   6   7
ENDBRANCH   5   6
ENDBRANCH   4   5
ENDBRANCH   3   4
ENDBRANCH   2   3
ENDBRANCH   1   2
BRANCH   1  12
ATOM     12  C   LIG    1       27.160 -15.746   3.809  0.00  0.00    +0.232 C 
BRANCH  12  13
ATOM     13  O   LIG    1       26.537 -15.122   2.676  0.00  0.00    -0.463 OA
BRANCH  13  14
ATOM     14  C   LIG    1       26.604 -13.766   2.626  0.00  0.00    +0.331 C 
ATOM     15  O   LIG    1       27.580 -13.098   2.945  0.00  0.00    -0.249 OA
BRANCH  14  16
ATOM     16  C   LIG    1       25.296 -13.176   2.249  0.00  0.00    +0.318 C 
BRANCH  16  17
ATOM     17  S   LIG    1       24.286 -13.099   3.695  0.00  0.00    +0.090 S 
ATOM     18  O   LIG    1       23.561 -14.323   3.895  0.00  0.00    -0.147 OA
ATOM     19  O   LIG    1       23.651 -11.796   3.802  0.00  0.00    -0.147 OA
BRANCH  17  20
ATOM     20  O   LIG    1       25.472 -13.079   4.794  0.00  0.00    -0.254 OA
ATOM     21  H   LIG    1       25.991 -12.257   4.667  0.00  0.00    +0.244 HD
ENDBRANCH  17  20
ENDBRANCH  16  17
ENDBRANCH  14  16
ENDBRANCH  13  14
ENDBRANCH  12  13
ENDBRANCH   1  12
TORSDOF 15
ENDMDL
MODEL 2
REMARK VINA RESULT:      -4.6      1.826      3.752
REMARK  Name = *****
REMARK                            x       y       z     vdW  Elec       q    Type
REMARK                         _______ _______ _______ _____ _____    ______ ____
ROOT
ATOM      1  C   LIG    1       23.816 -14.650   4.766  0.00  0.00    +0.041 C 
ENDROOT
BRANCH   1   2
ATOM      2  C   LIG    1       22.748 -15.655   4.335  0.00  0.00    +0.003 C 
BRANCH   2   3
ATOM      3  C   LIG    1       23.279 -17.089   4.251  0.00  0.00    +0.000 C 
BRANCH   3   4
ATOM      4  C   LIG    1       22.192 -18.164   4.320  0.00  0.00    -0.000 C 
BRANCH   4   5
ATOM      5  C   LIG    1       22.335 -19.214   5.426  0.00  0.00    -0.000 C 
BRANCH   5   6
ATOM      6  C   LIG    1       22.376 -20.671   4.946  0.00  0.00    -0.000 C 
BRANCH   6   7
ATOM      7  C   LIG    1       23.504 -21.481   5.606  0.00  0.00    -0.000 C 
BRANCH   7   8
ATOM      8  C   LIG    1       24.768 -21.569   4.735  0.00  0.00    -0.000 C 
BRANCH   8   9
ATOM      9  C   LIG    1       25.707 -20.384   4.984  0.00  0.00    -0.000 C 
BRANCH   9  11
ATOM     10  C   LIG    1       27.952 -19.997   6.086  0.00  0.00    +0.004 C 
ATOM     11  C   LIG    1       26.536 -20.533   6.266  0.00  0.00    -0.003 C 
ENDBRANCH   9  11
ENDBRANCH   8   9
ENDBRANCH   7   8
ENDBRANCH   6   7
ENDBRANCH   5   6
ENDBRANCH   4   5
ENDBRANCH   3   4
ENDBRANCH   2   3
ENDBRANCH   1   2
BRANCH   1  12
ATOM     12  C   LIG    1       23.964 -13.464   3.817  0.00  0.00    +0.232 C 
BRANCH  12  13
ATOM     13  O   LIG    1       24.591 -13.894   2.598  0.00  0.00    -0.463 OA
BRANCH  13  14
ATOM     14  C   LIG    1       25.878 -14.317   2.703  0.00  0.00    +0.331 C 
ATOM     15  O   LIG    1       26.230 -15.487   2.783  0.00  0.00    -0.249 OA
BRANCH  14  16
ATOM     16  C   LIG    1       26.812 -13.171   2.833  0.00  0.00    +0.318 C 
BRANCH  16  17
ATOM     17  S   LIG    1       27.753 -13.388   4.311  0.00  0.00    +0.090 S 
ATOM     18  O   LIG    1       26.905 -13.445   5.469  0.00  0.00    -0.147 OA
ATOM     19  O   LIG    1       28.956 -12.576   4.270  0.00  0.00    -0.147 OA
BRANCH  17  20
ATOM     20  O   LIG    1       28.257 -14.899   4.033  0.00  0.00    -0.254 OA
ATOM     21  H   LIG    1       27.520 -15.395   3.619  0.00  0.00    +0.244 HD
ENDBRANCH  17  20
ENDBRANCH  16  17
ENDBRANCH  14  16
ENDBRANCH  13  14
ENDBRANCH  12  13
ENDBRANCH   1  12
TORSDOF 15
ENDMDL
MODEL 3
REMARK VINA RESULT:      -4.5      3.847      6.764
REMARK  Name = *****
REMARK                            x       y       z     vdW  Elec       q    Type
REMARK                         _______ _______ _______ _____ _____    ______ ____
ROOT
ATOM      1  C   LIG    1       25.637 -17.336   3.366  0.00  0.00    +0.041 C 
ENDROOT
BRANCH   1   2
ATOM      2  C   LIG    1       27.074 -16.864   3.585  0.00  0.00    +0.003 C 
BRANCH   2   3
ATOM      3  C   LIG    1       27.171 -15.360   3.858  0.00  0.00    +0.000 C 
BRANCH   3   4
ATOM      4  C   LIG    1       27.110 -14.490   2.601  0.00  0.00    -0.000 C 
BRANCH   4   5
ATOM      5  C   LIG    1       26.426 -13.127   2.742  0.00  0.00    -0.000 C 
BRANCH   5   6
ATOM      6  C   LIG    1       25.113 -12.968   1.965  0.00  0.00    -0.000 C 
BRANCH   6   7
ATOM      7  C   LIG    1       23.933 -12.572   2.868  0.00  0.00    -0.000 C 
BRANCH   7   8
ATOM      8  C   LIG    1       24.294 -12.579   4.363  0.00  0.00    -0.000 C 
BRANCH   8   9
ATOM      9  C   LIG    1       24.229 -13.993   4.951  0.00  0.00    -0.000 C 
BRANCH   9  11
ATOM     10  C   LIG    1       22.399 -15.723   5.198  0.00  0.00    +0.004 C 
ATOM     11  C   LIG    1       23.235 -14.903   4.221  0.00  0.00    -0.003 C 
ENDBRANCH   9  11
ENDBRANCH   8   9
ENDBRANCH   7   8
ENDBRANCH   6   7
ENDBRANCH   5   6
ENDBRANCH   4   5
ENDBRANCH   3   4
ENDBRANCH   2   3
ENDBRANCH   1   2
BRANCH   1  12
ATOM     12  C   LIG    1       25.481 -18.855   3.367  0.00  0.00    +0.232 C 
BRANCH  12  13
ATOM     13  O   LIG    1       25.991 -19.392   4.597  0.00  0.00    -0.463 OA
BRANCH  13  14
ATOM     14  C   LIG    1       25.419 -20.546   5.031  0.00  0.00    +0.331 C 
ATOM     15  O   LIG    1       25.908 -21.307   5.856  0.00  0.00    -0.249 OA
BRANCH  14  16
ATOM     16  C   LIG    1       24.170 -20.841   4.285  0.00  0.00    +0.318 C 
BRANCH  16  17
ATOM     17  S   LIG    1       22.801 -20.316   5.268  0.00  0.00    +0.090 S 
ATOM     18  O   LIG    1       22.205 -19.119   4.741  0.00  0.00    -0.147 OA
ATOM     19  O   LIG    1       23.098 -20.476   6.680  0.00  0.00    -0.147 OA
BRANCH  17  20
ATOM     20  O   LIG    1       21.793 -21.530   4.911  0.00  0.00    -0.254 OA
ATOM     21  H   LIG    1       21.663 -21.542   3.939  0.00  0.00    +0.244 HD
ENDBRANCH  17  20
ENDBRANCH  16  17
ENDBRANCH  14  16
ENDBRANCH  13  14
ENDBRANCH  12  13
ENDBRANCH   1  12
TORSDOF 15
ENDMDL
MODEL 4
REMARK VINA RESULT:      -4.3      4.126      7.129
REMARK  Name = *****
REMARK                            x       y       z     vdW  Elec       q    Type
REMARK                         _______ _______ _______ _____ _____    ______ ____
ROOT
ATOM      1  C   LIG    1       24.089 -18.845   3.691  0.00  0.00    +0.041 C 
ENDROOT
BRANCH   1   2
ATOM      2  C   LIG    1       22.832 -19.389   4.370  0.00  0.00    +0.003 C 
BRANCH   2   3
ATOM      3  C   LIG    1       21.978 -18.290   5.010  0.00  0.00    +0.000 C 
BRANCH   3   4
ATOM      4  C   LIG    1       22.028 -16.950   4.272  0.00  0.00    -0.000 C 
BRANCH   4   5
ATOM      5  C   LIG    1       22.689 -15.783   5.013  0.00  0.00    -0.000 C 
BRANCH   5   6
ATOM      6  C   LIG    1       23.456 -14.793   4.125  0.00  0.00    -0.000 C 
BRANCH   6   7
ATOM      7  C   LIG    1       23.972 -13.573   4.907  0.00  0.00    -0.000 C 
BRANCH   7   8
ATOM      8  C   LIG    1       25.219 -12.939   4.270  0.00  0.00    -0.000 C 
BRANCH   8   9
ATOM      9  C   LIG    1       26.506 -13.426   4.945  0.00  0.00    -0.000 C 
BRANCH   9  11
ATOM     10  C   LIG    1       26.823 -14.586   2.718  0.00  0.00    +0.004 C 
ATOM     11  C   LIG    1       27.514 -14.023   3.956  0.00  0.00    -0.003 C 
ENDBRANCH   9  11
ENDBRANCH   8   9
ENDBRANCH   7   8
ENDBRANCH   6   7
ENDBRANCH   5   6
ENDBRANCH   4   5
ENDBRANCH   3   4
ENDBRANCH   2   3
ENDBRANCH   1   2
BRANCH   1  12
ATOM     12  C   LIG    1       25.258 -19.827   3.684  0.00  0.00    +0.232 C 
BRANCH  12  13
ATOM     13  O   LIG    1       26.076 -19.614   4.844  0.00  0.00    -0.463 OA
BRANCH  13  14
ATOM     14  C   LIG    1       26.005 -20.566   5.811  0.00  0.00    +0.331 C 
ATOM     15  O   LIG    1       25.308 -21.572   5.758  0.00  0.00    -0.249 OA
BRANCH  14  16
ATOM     16  C   LIG    1       26.792 -20.178   7.008  0.00  0.00    +0.318 C 
BRANCH  16  17
ATOM     17  S   LIG    1       28.506 -20.251   6.592  0.00  0.00    +0.090 S 
ATOM     18  O   LIG    1       29.109 -21.468   7.062  0.00  0.00    -0.147 OA
ATOM     19  O   LIG    1       29.131 -18.954   6.782  0.00  0.00    -0.147 OA
BRANCH  17  20
ATOM     20  O   LIG    1       28.340 -20.406   4.991  0.00  0.00    -0.254 OA
ATOM     21  H   LIG    1       28.003 -21.308   4.805  0.00  0.00    +0.244 HD
ENDBRANCH  17  20
ENDBRANCH  16  17
ENDBRANCH  14  16
ENDBRANCH  13  14
ENDBRANCH  12  13
ENDBRANCH   1  12
TORSDOF 15
ENDMDL
MODEL 5
REMARK VINA RESULT:      -4.3      3.955      7.673
REMARK  Name = *****
REMARK                            x       y       z     vdW  Elec       q    Type
REMARK                         _______ _______ _______ _____ _____    ______ ____
ROOT
ATOM      1  C   LIG    1       22.627 -17.514   3.986  0.00  0.00    +0.041 C 
ENDROOT
BRANCH   1   2
ATOM      2  C   LIG    1       22.671 -16.207   4.779  0.00  0.00    +0.003 C 
BRANCH   2   3
ATOM      3  C   LIG    1       23.478 -15.111   4.077  0.00  0.00    +0.000 C 
BRANCH   3   4
ATOM      4  C   LIG    1       23.826 -13.920   4.972  0.00  0.00    -0.000 C 
BRANCH   4   5
ATOM      5  C   LIG    1       24.011 -12.568   4.274  0.00  0.00    -0.000 C 
BRANCH   5   6
ATOM      6  C   LIG    1       24.000 -12.615   2.740  0.00  0.00    -0.000 C 
BRANCH   6   7
ATOM      7  C   LIG    1       25.410 -12.514   2.134  0.00  0.00    -0.000 C 
BRANCH   7   8
ATOM      8  C   LIG    1       26.212 -13.820   2.262  0.00  0.00    -0.000 C 
BRANCH   8   9
ATOM      9  C   LIG    1       27.531 -13.600   3.010  0.00  0.00    -0.000 C 
BRANCH   9  11
ATOM     10  C   LIG    1       27.263 -13.459   5.523  0.00  0.00    +0.004 C 
ATOM     11  C   LIG    1       27.602 -14.361   4.340  0.00  0.00    -0.003 C 
ENDBRANCH   9  11
ENDBRANCH   8   9
ENDBRANCH   7   8
ENDBRANCH   6   7
ENDBRANCH   5   6
ENDBRANCH   4   5
ENDBRANCH   3   4
ENDBRANCH   2   3
ENDBRANCH   1   2
BRANCH   1  12
ATOM     12  C   LIG    1       22.033 -18.686   4.763  0.00  0.00    +0.232 C 
BRANCH  12  13
ATOM     13  O   LIG    1       22.806 -19.870   4.518  0.00  0.00    -0.463 OA
BRANCH  13  14
ATOM     14  C   LIG    1       23.095 -20.633   5.605  0.00  0.00    +0.331 C 
ATOM     15  O   LIG    1       22.419 -21.572   6.005  0.00  0.00    -0.249 OA
BRANCH  14  16
ATOM     16  C   LIG    1       24.279 -20.109   6.331  0.00  0.00    +0.318 C 
BRANCH  16  17
ATOM     17  S   LIG    1       25.717 -20.450   5.365  0.00  0.00    +0.090 S 
ATOM     18  O   LIG    1       26.727 -21.110   6.143  0.00  0.00    -0.147 OA
ATOM     19  O   LIG    1       26.020 -19.328   4.493  0.00  0.00    -0.147 OA
BRANCH  17  20
ATOM     20  O   LIG    1       25.072 -21.572   4.395  0.00  0.00    -0.254 OA
ATOM     21  H   LIG    1       25.787 -22.183   4.119  0.00  0.00    +0.244 HD
ENDBRANCH  17  20
ENDBRANCH  16  17
ENDBRANCH  14  16
ENDBRANCH  13  14
ENDBRANCH  12  13
ENDBRANCH   1  12
TORSDOF 15
ENDMDL
MODEL 6
REMARK VINA RESULT:      -3.8      3.818      6.675
REMARK  Name = *****
REMARK                            x       y       z     vdW  Elec       q    Type
REMARK                         _______ _______ _______ _____ _____    ______ ____
ROOT
ATOM      1  C   LIG    1       28.736 -18.952   5.843  0.00  0.00    +0.041 C 
ENDROOT
BRANCH   1   2
ATOM      2  C   LIG    1       28.666 -17.785   4.858  0.00  0.00    +0.003 C 
BRANCH   2   3
ATOM      3  C   LIG    1       27.329 -17.712   4.116  0.00  0.00    +0.000 C 
BRANCH   3   4
ATOM      4  C   LIG    1       27.022 -16.339   3.513  0.00  0.00    -0.000 C 
BRANCH   4   5
ATOM      5  C   LIG    1       27.773 -15.144   4.110  0.00  0.00    -0.000 C 
BRANCH   5   6
ATOM      6  C   LIG    1       27.400 -13.776   3.524  0.00  0.00    -0.000 C 
BRANCH   6   7
ATOM      7  C   LIG    1       26.336 -13.876   2.417  0.00  0.00    -0.000 C 
BRANCH   7   8
ATOM      8  C   LIG    1       25.245 -12.799   2.537  0.00  0.00    -0.000 C 
BRANCH   8   9
ATOM      9  C   LIG    1       23.994 -13.339   3.237  0.00  0.00    -0.000 C 
BRANCH   9  11
ATOM     10  C   LIG    1       22.982 -15.158   4.677  0.00  0.00    +0.004 C 
ATOM     11  C   LIG    1       24.253 -14.634   4.017  0.00  0.00    -0.003 C 
ENDBRANCH   9  11
ENDBRANCH   8   9
ENDBRANCH   7   8
ENDBRANCH   6   7
ENDBRANCH   5   6
ENDBRANCH   4   5
ENDBRANCH   3   4
ENDBRANCH   2   3
ENDBRANCH   1   2
BRANCH   1  12
ATOM     12  C   LIG    1       27.748 -20.074   5.538  0.00  0.00    +0.232 C 
BRANCH  12  13
ATOM     13  O   LIG    1       26.816 -20.207   6.623  0.00  0.00    -0.463 OA
BRANCH  13  14
ATOM     14  C   LIG    1       25.543 -20.536   6.283  0.00  0.00    +0.331 C 
ATOM     15  O   LIG    1       24.599 -20.594   7.062  0.00  0.00    -0.249 OA
BRANCH  14  16
ATOM     16  C   LIG    1       25.454 -20.941   4.858  0.00  0.00    +0.318 C 
BRANCH  16  17
ATOM     17  S   LIG    1       23.929 -20.337   4.204  0.00  0.00    +0.090 S 
ATOM     18  O   LIG    1       23.965 -18.913   4.020  0.00  0.00    -0.147 OA
ATOM     19  O   LIG    1       22.805 -21.008   4.833  0.00  0.00    -0.147 OA
BRANCH  17  20
ATOM     20  O   LIG    1       24.042 -20.997   2.732  0.00  0.00    -0.254 OA
ATOM     21  H   LIG    1       24.913 -20.753   2.355  0.00  0.00    +0.244 HD
ENDBRANCH  17  20
ENDBRANCH  16  17
ENDBRANCH  14  16
ENDBRANCH  13  14
ENDBRANCH  12  13
ENDBRANCH   1  12
TORSDOF 15
ENDMDL
MODEL 7
REMARK VINA RESULT:      -3.8      3.382      5.971
REMARK  Name = *****
REMARK                            x       y       z     vdW  Elec       q    Type
REMARK                         _______ _______ _______ _____ _____    ______ ____
ROOT
ATOM      1  C   LIG    1       26.299 -20.541   6.904  0.00  0.00    +0.041 C 
ENDROOT
BRANCH   1   2
ATOM      2  C   LIG    1       27.645 -21.248   7.060  0.00  0.00    +0.003 C 
BRANCH   2   3
ATOM      3  C   LIG    1       28.819 -20.416   6.534  0.00  0.00    +0.000 C 
BRANCH   3   4
ATOM      4  C   LIG    1       28.462 -19.505   5.357  0.00  0.00    -0.000 C 
BRANCH   4   5
ATOM      5  C   LIG    1       29.223 -18.178   5.261  0.00  0.00    -0.000 C 
BRANCH   5   6
ATOM      6  C   LIG    1       28.427 -17.008   4.670  0.00  0.00    -0.000 C 
BRANCH   6   7
ATOM      7  C   LIG    1       27.187 -17.470   3.886  0.00  0.00    -0.000 C 
BRANCH   7   8
ATOM      8  C   LIG    1       26.377 -16.300   3.302  0.00  0.00    -0.000 C 
BRANCH   8   9
ATOM      9  C   LIG    1       27.027 -14.950   3.622  0.00  0.00    -0.000 C 
BRANCH   9  11
ATOM     10  C   LIG    1       24.883 -13.615   3.461  0.00  0.00    +0.004 C 
ATOM     11  C   LIG    1       26.078 -13.980   4.336  0.00  0.00    -0.003 C 
ENDBRANCH   9  11
ENDBRANCH   8   9
ENDBRANCH   7   8
ENDBRANCH   6   7
ENDBRANCH   5   6
ENDBRANCH   4   5
ENDBRANCH   3   4
ENDBRANCH   2   3
ENDBRANCH   1   2
BRANCH   1  12
ATOM     12  C   LIG    1       25.349 -21.234   5.931  0.00  0.00    +0.232 C 
BRANCH  12  13
ATOM     13  O   LIG    1       25.300 -20.501   4.697  0.00  0.00    -0.463 OA
BRANCH  13  14
ATOM     14  C   LIG    1       24.083 -20.412   4.100  0.00  0.00    +0.331 C 
ATOM     15  O   LIG    1       23.336 -21.357   3.881  0.00  0.00    -0.249 OA
BRANCH  14  16
ATOM     16  C   LIG    1       23.815 -19.030   3.630  0.00  0.00    +0.318 C 
BRANCH  16  17
ATOM     17  S   LIG    1       22.306 -18.478   4.363  0.00  0.00    +0.090 S 
ATOM     18  O   LIG    1       21.163 -18.989   3.660  0.00  0.00    -0.147 OA
ATOM     19  O   LIG    1       22.414 -17.084   4.757  0.00  0.00    -0.147 OA
BRANCH  17  20
ATOM     20  O   LIG    1       22.412 -19.313   5.744  0.00  0.00    -0.254 OA
ATOM     21  H   LIG    1       23.317 -19.685   5.806  0.00  0.00    +0.244 HD
ENDBRANCH  17  20
ENDBRANCH  16  17
ENDBRANCH  14  16
ENDBRANCH  13  14
ENDBRANCH  12  13
ENDBRANCH   1  12
TORSDOF 15
ENDMDL
MODEL 8
REMARK VINA RESULT:      -3.3      3.985      6.805
REMARK  Name = *****
REMARK                            x       y       z     vdW  Elec       q    Type
REMARK                         _______ _______ _______ _____ _____    ______ ____
ROOT
ATOM      1  C   LIG    1       28.252 -20.523   7.007  0.00  0.00    +0.041 C 
ENDROOT
BRANCH   1   2
ATOM      2  C   LIG    1       28.641 -19.404   6.041  0.00  0.00    +0.003 C 
BRANCH   2   3
ATOM      3  C   LIG    1       27.663 -19.260   4.871  0.00  0.00    +0.000 C 
BRANCH   3   4
ATOM      4  C   LIG    1       27.592 -17.848   4.286  0.00  0.00    -0.000 C 
BRANCH   4   5
ATOM      5  C   LIG    1       26.363 -17.520   3.432  0.00  0.00    -0.000 C 
BRANCH   5   6
ATOM      6  C   LIG    1       26.128 -16.027   3.166  0.00  0.00    -0.000 C 
BRANCH   6   7
ATOM      7  C   LIG    1       27.182 -15.132   3.840  0.00  0.00    -0.000 C 
BRANCH   7   8
ATOM      8  C   LIG    1       26.634 -13.749   4.227  0.00  0.00    -0.000 C 
BRANCH   8   9
ATOM      9  C   LIG    1       25.973 -13.051   3.034  0.00  0.00    -0.000 C 
BRANCH   9  11
ATOM     10  C   LIG    1       23.966 -12.063   4.219  0.00  0.00    +0.004 C 
ATOM     11  C   LIG    1       24.443 -13.018   3.129  0.00  0.00    -0.003 C 
ENDBRANCH   9  11
ENDBRANCH   8   9
ENDBRANCH   7   8
ENDBRANCH   6   7
ENDBRANCH   5   6
ENDBRANCH   4   5
ENDBRANCH   3   4
ENDBRANCH   2   3
ENDBRANCH   1   2
BRANCH   1  12
ATOM     12  C   LIG    1       26.936 -21.213   6.651  0.00  0.00    +0.232 C 
BRANCH  12  13
ATOM     13  O   LIG    1       25.833 -20.388   7.056  0.00  0.00    -0.463 OA
BRANCH  13  14
ATOM     14  C   LIG    1       24.628 -20.686   6.504  0.00  0.00    +0.331 C 
ATOM     15  O   LIG    1       23.545 -20.526   7.053  0.00  0.00    -0.249 OA
BRANCH  14  16
ATOM     16  C   LIG    1       24.788 -21.350   5.187  0.00  0.00    +0.318 C 
BRANCH  16  17
ATOM     17  S   LIG    1       23.541 -20.735   4.100  0.00  0.00    +0.090 S 
ATOM     18  O   LIG    1       22.240 -21.224   4.464  0.00  0.00    -0.147 OA
ATOM     19  O   LIG    1       24.015 -20.741   2.727  0.00  0.00    -0.147 OA
BRANCH  17  20
ATOM     20  O   LIG    1       23.595 -19.184   4.555  0.00  0.00    -0.254 OA
ATOM     21  H   LIG    1       22.747 -18.965   4.996  0.00  0.00    +0.244 HD
ENDBRANCH  17  20
ENDBRANCH  16  17
ENDBRANCH  14  16
ENDBRANCH  13  14
ENDBRANCH  12  13
ENDBRANCH   1  12
TORSDOF 15
ENDMDL
MODEL 9
REMARK VINA RESULT:      -3.2      3.274      6.363
REMARK  Name = *****
REMARK                            x       y       z     vdW  Elec       q    Type
REMARK                         _______ _______ _______ _____ _____    ______ ____
ROOT
ATOM      1  C   LIG    1       25.216 -20.449   5.837  0.00  0.00    +0.041 C 
ENDROOT
BRANCH   1   2
ATOM      2  C   LIG    1       26.699 -20.512   6.202  0.00  0.00    +0.003 C 
BRANCH   2   3
ATOM      3  C   LIG    1       27.577 -19.667   5.274  0.00  0.00    +0.000 C 
BRANCH   3   4
ATOM      4  C   LIG    1       26.794 -18.845   4.249  0.00  0.00    -0.000 C 
BRANCH   4   5
ATOM      5  C   LIG    1       27.255 -17.400   4.031  0.00  0.00    -0.000 C 
BRANCH   5   6
ATOM      6  C   LIG    1       26.285 -16.515   3.238  0.00  0.00    -0.000 C 
BRANCH   6   7
ATOM      7  C   LIG    1       26.716 -15.038   3.212  0.00  0.00    -0.000 C 
BRANCH   7   8
ATOM      8  C   LIG    1       25.846 -14.146   4.113  0.00  0.00    -0.000 C 
BRANCH   8   9
ATOM      9  C   LIG    1       24.391 -14.110   3.634  0.00  0.00    -0.000 C 
BRANCH   9  11
ATOM     10  C   LIG    1       24.676 -12.054   2.185  0.00  0.00    +0.004 C 
ATOM     11  C   LIG    1       23.893 -12.691   3.329  0.00  0.00    -0.003 C 
ENDBRANCH   9  11
ENDBRANCH   8   9
ENDBRANCH   7   8
ENDBRANCH   6   7
ENDBRANCH   5   6
ENDBRANCH   4   5
ENDBRANCH   3   4
ENDBRANCH   2   3
ENDBRANCH   1   2
BRANCH   1  12
ATOM     12  C   LIG    1       24.771 -21.552   4.880  0.00  0.00    +0.232 C 
BRANCH  12  13
ATOM     13  O   LIG    1       23.551 -21.165   4.228  0.00  0.00    -0.463 OA
BRANCH  13  14
ATOM     14  C   LIG    1       22.506 -20.862   5.043  0.00  0.00    +0.331 C 
ATOM     15  O   LIG    1       21.525 -21.571   5.220  0.00  0.00    -0.249 OA
BRANCH  14  16
ATOM     16  C   LIG    1       22.641 -19.495   5.606  0.00  0.00    +0.318 C 
BRANCH  16  17
ATOM     17  S   LIG    1       22.198 -18.334   4.352  0.00  0.00    +0.090 S 
ATOM     18  O   LIG    1       22.344 -16.981   4.815  0.00  0.00    -0.147 OA
ATOM     19  O   LIG    1       21.018 -18.785   3.636  0.00  0.00    -0.147 OA
BRANCH  17  20
ATOM     20  O   LIG    1       23.432 -18.613   3.345  0.00  0.00    -0.254 OA
ATOM     21  H   LIG    1       24.026 -17.833   3.366  0.00  0.00    +0.244 HD
ENDBRANCH  17  20
ENDBRANCH  16  17
ENDBRANCH  14  16
ENDBRANCH  13  14
ENDBRANCH  12  13
ENDBRANCH   1  12
TORSDOF 15
ENDMDL
