MODEL 1
REMARK VINA RESULT:      -5.3      0.000      0.000
REMARK  Name = *****
REMARK                            x       y       z     vdW  Elec       q    Type
REMARK                         _______ _______ _______ _____ _____    ______ ____
ROOT
ATOM      1  C   LIG    1       22.584 -33.014  12.122  0.00  0.00    +0.134 C 
ATOM      2  C   LIG    1       22.724 -31.554  11.288  0.00  0.00    +0.065 C 
ATOM      3  C   LIG    1       21.333 -30.881  11.231  0.00  0.00    +0.022 C 
ATOM      4  C   LIG    1       23.812 -30.687  12.104  0.00  0.00    +0.097 C 
ATOM      5  C   LIG    1       24.723 -29.459  11.642  0.00  0.00    +0.217 C 
ATOM      6  C   LIG    1       26.048 -29.755  10.634  0.00  0.00    +0.116 C 
ATOM      7  C   LIG    1       25.907 -30.849   9.494  0.00  0.00    +0.022 C 
ATOM      8  C   LIG    1       27.176 -30.962   8.529  0.00  0.00    +0.019 C 
ATOM      9  C   LIG    1       25.874 -32.294  10.028  0.00  0.00    +0.019 C 
ATOM     10  C   LIG    1       24.723 -30.270   8.708  0.00  0.00    -0.023 C 
ATOM     11  C   LIG    1       23.415 -31.032   8.618  0.00  0.00    +0.211 C 
ATOM     12  C   LIG    1       24.912 -29.034   8.141  0.00  0.00    -0.030 C 
ATOM     13  C   LIG    1       24.004 -28.425   7.103  0.00  0.00    +0.043 C 
ATOM     14  C   LIG    1       26.178 -28.228   8.480  0.00  0.00    +0.205 C 
ATOM     15  C   LIG    1       26.607 -28.446   9.962  0.00  0.00    +0.088 C 
ATOM     16  C   LIG    1       23.293 -30.529  13.638  0.00  0.00    +0.170 C 
ATOM     17  C   LIG    1       23.613 -32.005  14.119  0.00  0.00    +0.167 C 
ATOM     18  O   LIG    1       23.610 -31.546  15.499  0.00  0.00    -0.368 OA
ATOM     19  C   LIG    1       24.153 -30.273  14.946  0.00  0.00    +0.211 C 
ATOM     20  C   LIG    1       22.894 -31.987   9.767  0.00  0.00    +0.175 C 
ATOM     21  O   LIG    1       22.367 -33.060   9.412  0.00  0.00    -0.294 OA
ATOM     22  C   LIG    1       22.509 -32.931  13.681  0.00  0.00    +0.068 C 
ENDROOT
BRANCH  11  23
ATOM     23  O   LIG    1       23.313 -31.639   7.312  0.00  0.00    -0.368 OA
ATOM     24  C   LIG    1       24.542 -31.955   6.673  0.00  0.00    +0.195 C 
ENDBRANCH  11  23
BRANCH   6  25
ATOM     25  O   LIG    1       27.069 -30.219  11.556  0.00  0.00    -0.384 OA
ATOM     26  H   LIG    1       27.928 -30.237  11.100  0.00  0.00    +0.210 HD
ENDBRANCH   6  25
BRANCH   1  28
ATOM     27  C   LIG    1       24.789 -33.821  12.798  0.00  0.00    +0.194 C 
ATOM     28  O   LIG    1       23.749 -33.825  11.820  0.00  0.00    -0.379 OA
ENDBRANCH   1  28
BRANCH  14  29
ATOM     29  O   LIG    1       26.062 -26.815   8.201  0.00  0.00    -0.455 OA
BRANCH  29  30
ATOM     30  C   LIG    1       26.004 -26.465   6.866  0.00  0.00    +0.339 C 
ATOM     31  O   LIG    1       26.593 -27.056   5.969  0.00  0.00    -0.248 OA
BRANCH  30  32
ATOM     32  C   LIG    1       25.148 -25.201   6.647  0.00  0.00    +0.247 C 
BRANCH  32  33
ATOM     33  O   LIG    1       23.929 -25.531   5.959  0.00  0.00    -0.379 OA
ATOM     34  H   LIG    1       23.195 -25.290   6.552  0.00  0.00    +0.211 HD
ENDBRANCH  32  33
BRANCH  32  35
ATOM     35  C   LIG    1       25.891 -24.020   5.911  0.00  0.00    +0.146 C 
BRANCH  35  36
ATOM     36  C   LIG    1       26.088 -22.864   6.929  0.00  0.00    -0.024 A 
ATOM     37  C   LIG    1       25.281 -22.797   8.084  0.00  0.00    +0.005 A 
ATOM     38  C   LIG    1       25.307 -21.683   8.945  0.00  0.00    +0.000 A 
ATOM     39  C   LIG    1       26.169 -20.622   8.698  0.00  0.00    +0.000 A 
ATOM     40  C   LIG    1       26.988 -20.668   7.575  0.00  0.00    +0.000 A 
ATOM     41  C   LIG    1       26.944 -21.769   6.699  0.00  0.00    +0.005 A 
ENDBRANCH  35  36
BRANCH  35  42
ATOM     42  N   LIG    1       25.155 -23.673   4.677  0.00  0.00    -0.271 N 
ATOM     43  H   LIG    1       25.514 -24.054   3.809  0.00  0.00    +0.153 HD
ATOM     44  C   LIG    1       24.435 -22.555   4.369  0.00  0.00    +0.401 C 
ATOM     45  O   LIG    1       23.931 -22.468   3.255  0.00  0.00    -0.226 OA
BRANCH  44  46
ATOM     46  O   LIG    1       24.325 -21.659   5.377  0.00  0.00    -0.445 OA
BRANCH  46  47
ATOM     47  C   LIG    1       23.310 -20.613   5.337  0.00  0.00    +0.107 C 
ATOM     48  C   LIG    1       23.156 -20.061   6.772  0.00  0.00    +0.055 C 
ATOM     49  C   LIG    1       21.949 -21.208   4.954  0.00  0.00    +0.055 C 
ATOM     50  C   LIG    1       23.742 -19.451   4.438  0.00  0.00    +0.055 C 
ENDBRANCH  46  47
ENDBRANCH  44  46
ENDBRANCH  35  42
ENDBRANCH  32  35
ENDBRANCH  30  32
ENDBRANCH  29  30
ENDBRANCH  14  29
BRANCH   5  51
ATOM     51  O   LIG    1       24.045 -28.189  11.412  0.00  0.00    -0.455 OA
BRANCH  51  52
ATOM     52  C   LIG    1       23.997 -27.355  12.522  0.00  0.00    +0.340 C 
ATOM     53  O   LIG    1       22.961 -26.924  13.021  0.00  0.00    -0.245 OA
BRANCH  52  54
ATOM     54  C   LIG    1       25.304 -27.118  13.211  0.00  0.00    +0.059 A 
ATOM     55  C   LIG    1       25.573 -27.611  14.486  0.00  0.00    +0.015 A 
ATOM     56  C   LIG    1       26.740 -27.220  15.158  0.00  0.00    +0.001 A 
ATOM     57  C   LIG    1       27.639 -26.327  14.570  0.00  0.00    +0.000 A 
ATOM     58  C   LIG    1       27.399 -25.852  13.284  0.00  0.00    +0.001 A 
ATOM     59  C   LIG    1       26.247 -26.260  12.601  0.00  0.00    +0.015 A 
ENDBRANCH  52  54
ENDBRANCH  51  52
ENDBRANCH   5  51
BRANCH  16  60
ATOM     60  O   LIG    1       21.840 -30.239  13.848  0.00  0.00    -0.453 OA
BRANCH  60  61
ATOM     61  C   LIG    1       21.370 -29.413  14.833  0.00  0.00    +0.305 C 
ATOM     62  O   LIG    1       21.890 -28.414  15.239  0.00  0.00    -0.251 OA
ATOM     63  C   LIG    1       19.965 -29.741  15.287  0.00  0.00    +0.136 C 
ENDBRANCH  60  61
ENDBRANCH  16  60
TORSDOF 17
ENDMDL
MODEL 2
REMARK VINA RESULT:      -4.3      1.164      2.193
REMARK  Name = *****
REMARK                            x       y       z     vdW  Elec       q    Type
REMARK                         _______ _______ _______ _____ _____    ______ ____
ROOT
ATOM      1  C   LIG    1       22.758 -32.997  12.185  0.00  0.00    +0.134 C 
ATOM      2  C   LIG    1       22.882 -31.549  11.326  0.00  0.00    +0.065 C 
ATOM      3  C   LIG    1       21.498 -30.860  11.315  0.00  0.00    +0.022 C 
ATOM      4  C   LIG    1       24.012 -30.685  12.088  0.00  0.00    +0.097 C 
ATOM      5  C   LIG    1       24.918 -29.474  11.575  0.00  0.00    +0.217 C 
ATOM      6  C   LIG    1       26.199 -29.799  10.521  0.00  0.00    +0.116 C 
ATOM      7  C   LIG    1       26.001 -30.906   9.401  0.00  0.00    +0.022 C 
ATOM      8  C   LIG    1       27.230 -31.047   8.389  0.00  0.00    +0.019 C 
ATOM      9  C   LIG    1       25.973 -32.343   9.955  0.00  0.00    +0.019 C 
ATOM     10  C   LIG    1       24.794 -30.323   8.654  0.00  0.00    -0.023 C 
ATOM     11  C   LIG    1       23.475 -31.070   8.625  0.00  0.00    +0.211 C 
ATOM     12  C   LIG    1       24.975 -29.096   8.064  0.00  0.00    -0.030 C 
ATOM     13  C   LIG    1       24.034 -28.489   7.054  0.00  0.00    +0.043 C 
ATOM     14  C   LIG    1       26.262 -28.301   8.343  0.00  0.00    +0.205 C 
ATOM     15  C   LIG    1       26.746 -28.506   9.809  0.00  0.00    +0.088 C 
ATOM     16  C   LIG    1       23.554 -30.501  13.639  0.00  0.00    +0.170 C 
ATOM     17  C   LIG    1       23.876 -31.974  14.126  0.00  0.00    +0.167 C 
ATOM     18  O   LIG    1       23.932 -31.498  15.500  0.00  0.00    -0.368 OA
ATOM     19  C   LIG    1       24.467 -30.239  14.909  0.00  0.00    +0.211 C 
ATOM     20  C   LIG    1       22.988 -32.004   9.805  0.00  0.00    +0.175 C 
ATOM     21  O   LIG    1       22.436 -33.075   9.485  0.00  0.00    -0.294 OA
ATOM     22  C   LIG    1       22.745 -32.893  13.745  0.00  0.00    +0.068 C 
ENDROOT
BRANCH  11  23
ATOM     23  O   LIG    1       23.315 -31.692   7.332  0.00  0.00    -0.368 OA
ATOM     24  C   LIG    1       23.704 -33.056   7.244  0.00  0.00    +0.195 C 
ENDBRANCH  11  23
BRANCH   6  25
ATOM     25  O   LIG    1       27.250 -30.263  11.408  0.00  0.00    -0.384 OA
ATOM     26  H   LIG    1       27.091 -29.915  12.302  0.00  0.00    +0.210 HD
ENDBRANCH   6  25
BRANCH   1  28
ATOM     27  C   LIG    1       24.977 -33.825  12.787  0.00  0.00    +0.194 C 
ATOM     28  O   LIG    1       23.902 -33.825  11.848  0.00  0.00    -0.379 OA
ENDBRANCH   1  28
BRANCH  14  29
ATOM     29  O   LIG    1       26.152 -26.890   8.050  0.00  0.00    -0.455 OA
BRANCH  29  30
ATOM     30  C   LIG    1       26.290 -26.536   6.722  0.00  0.00    +0.339 C 
ATOM     31  O   LIG    1       27.221 -26.884   6.005  0.00  0.00    -0.248 OA
BRANCH  30  32
ATOM     32  C   LIG    1       25.153 -25.600   6.263  0.00  0.00    +0.247 C 
BRANCH  32  33
ATOM     33  O   LIG    1       25.107 -25.530   4.827  0.00  0.00    -0.379 OA
ATOM     34  H   LIG    1       24.286 -25.975   4.548  0.00  0.00    +0.211 HD
ENDBRANCH  32  33
BRANCH  32  35
ATOM     35  C   LIG    1       25.204 -24.149   6.881  0.00  0.00    +0.146 C 
BRANCH  35  36
ATOM     36  C   LIG    1       24.102 -23.294   6.195  0.00  0.00    -0.024 A 
ATOM     37  C   LIG    1       24.458 -22.326   5.233  0.00  0.00    +0.005 A 
ATOM     38  C   LIG    1       23.518 -21.418   4.712  0.00  0.00    +0.000 A 
ATOM     39  C   LIG    1       22.187 -21.475   5.106  0.00  0.00    +0.000 A 
ATOM     40  C   LIG    1       21.804 -22.431   6.042  0.00  0.00    +0.000 A 
ATOM     41  C   LIG    1       22.748 -23.323   6.584  0.00  0.00    +0.005 A 
ENDBRANCH  35  36
BRANCH  35  42
ATOM     42  N   LIG    1       26.581 -23.623   6.783  0.00  0.00    -0.271 N 
ATOM     43  H   LIG    1       27.298 -24.273   6.481  0.00  0.00    +0.153 HD
ATOM     44  C   LIG    1       27.196 -22.634   7.495  0.00  0.00    +0.401 C 
ATOM     45  O   LIG    1       28.373 -22.386   7.262  0.00  0.00    -0.226 OA
BRANCH  44  46
ATOM     46  O   LIG    1       26.395 -21.994   8.379  0.00  0.00    -0.445 OA
BRANCH  46  47
ATOM     47  C   LIG    1       26.037 -20.595   8.182  0.00  0.00    +0.107 C 
ATOM     48  C   LIG    1       24.496 -20.519   8.091  0.00  0.00    +0.055 C 
ATOM     49  C   LIG    1       26.575 -20.093   6.836  0.00  0.00    +0.055 C 
ATOM     50  C   LIG    1       26.472 -19.734   9.372  0.00  0.00    +0.055 C 
ENDBRANCH  46  47
ENDBRANCH  44  46
ENDBRANCH  35  42
ENDBRANCH  32  35
ENDBRANCH  30  32
ENDBRANCH  29  30
ENDBRANCH  14  29
BRANCH   5  51
ATOM     51  O   LIG    1       24.246 -28.199  11.354  0.00  0.00    -0.455 OA
BRANCH  51  52
ATOM     52  C   LIG    1       24.344 -27.308  12.416  0.00  0.00    +0.340 C 
ATOM     53  O   LIG    1       23.381 -26.795  12.982  0.00  0.00    -0.245 OA
BRANCH  52  54
ATOM     54  C   LIG    1       25.719 -27.108  12.969  0.00  0.00    +0.059 A 
ATOM     55  C   LIG    1       26.368 -28.085  13.722  0.00  0.00    +0.015 A 
ATOM     56  C   LIG    1       27.580 -27.789  14.361  0.00  0.00    +0.001 A 
ATOM     57  C   LIG    1       28.147 -26.515  14.266  0.00  0.00    +0.000 A 
ATOM     58  C   LIG    1       27.527 -25.540  13.491  0.00  0.00    +0.001 A 
ATOM     59  C   LIG    1       26.329 -25.841  12.830  0.00  0.00    +0.015 A 
ENDBRANCH  52  54
ENDBRANCH  51  52
ENDBRANCH   5  51
BRANCH  16  60
ATOM     60  O   LIG    1       22.115 -30.191  13.901  0.00  0.00    -0.453 OA
BRANCH  60  61
ATOM     61  C   LIG    1       21.656 -28.939  14.211  0.00  0.00    +0.305 C 
ATOM     62  O   LIG    1       21.909 -28.307  15.196  0.00  0.00    -0.251 OA
ATOM     63  C   LIG    1       20.911 -28.263  13.082  0.00  0.00    +0.136 C 
ENDBRANCH  60  61
ENDBRANCH  16  60
TORSDOF 17
ENDMDL
