MODEL 1
REMARK VINA RESULT:      12.5      0.000      0.000
REMARK  Name = *****
REMARK                            x       y       z     vdW  Elec       q    Type
REMARK                         _______ _______ _______ _____ _____    ______ ____
ROOT
ATOM      1  N   LIG    1       28.345 -16.195   3.956  0.00  0.00    -0.294 NA
ATOM      2  C   LIG    1       27.399 -15.044   3.982  0.00  0.00    +0.069 C 
ATOM      3  C   LIG    1       26.027 -15.382   4.694  0.00  0.00    +0.038 C 
ATOM      4  C   LIG    1       25.071 -14.214   4.635  0.00  0.00    -0.033 C 
ATOM      5  C   LIG    1       25.254 -13.294   3.599  0.00  0.00    +0.006 C 
ATOM      6  C   LIG    1       24.411 -12.219   3.407  0.00  0.00    +0.047 C 
ATOM      7  N   LIG    1       24.910 -11.546   2.313  0.00  0.00    -0.360 NA
ATOM      8  H   LIG    1       24.507 -10.707   1.925  0.00  0.00    +0.165 HD
ATOM      9  C   LIG    1       26.023 -12.193   1.812  0.00  0.00    +0.087 C 
ATOM     10  C   LIG    1       23.309 -12.008   4.238  0.00  0.00    +0.026 C 
ATOM     11  C   LIG    1       23.103 -12.942   5.272  0.00  0.00    +0.002 C 
ATOM     12  C   LIG    1       26.247 -13.299   2.597  0.00  0.00    -0.021 C 
ATOM     13  C   LIG    1       23.967 -14.027   5.473  0.00  0.00    +0.005 C 
ATOM     14  C   LIG    1       25.363 -16.600   4.054  0.00  0.00    +0.023 C 
ATOM     15  C   LIG    1       26.344 -17.764   3.913  0.00  0.00    +0.090 C 
ATOM     16  C   LIG    1       27.249 -14.404   2.555  0.00  0.00    +0.056 C 
ATOM     17  C   LIG    1       27.703 -17.365   3.313  0.00  0.00    +0.097 C 
ENDROOT
BRANCH  15  18
ATOM     18  C   LIG    1       25.718 -18.882   3.065  0.00  0.00    +0.227 C 
ATOM     19  N   LIG    1       25.222 -20.049   3.682  0.00  0.00    -0.226 N 
ATOM     20  C   LIG    1       24.942 -20.124   5.051  0.00  0.00    +0.308 C 
ATOM     21  N   LIG    1       24.493 -21.341   5.502  0.00  0.00    -0.299 N 
ATOM     22  H   LIG    1       24.615 -22.162   4.932  0.00  0.00    +0.150 HD
ATOM     23  O   LIG    1       25.037 -19.207   5.850  0.00  0.00    -0.252 OA
ATOM     24  O   LIG    1       25.695 -18.756   1.838  0.00  0.00    -0.275 OA
BRANCH  21  25
ATOM     25  C   LIG    1       24.166 -21.558   6.897  0.00  0.00    +0.102 C 
ATOM     26  C   LIG    1       22.662 -21.571   7.057  0.00  0.00    +0.024 C 
ENDBRANCH  21  25
BRANCH  19  27
ATOM     27  C   LIG    1       24.692 -21.061   2.735  0.00  0.00    +0.119 C 
BRANCH  27  28
ATOM     28  C   LIG    1       23.162 -21.144   2.581  0.00  0.00    +0.035 C 
BRANCH  28  29
ATOM     29  C   LIG    1       22.437 -19.795   2.721  0.00  0.00    +0.085 C 
BRANCH  29  30
ATOM     30  N   LIG    1       21.785 -19.621   4.034  0.00  0.00    -0.308 NA
ATOM     31  C   LIG    1       21.697 -18.192   4.372  0.00  0.00    +0.104 C 
ATOM     32  C   LIG    1       20.448 -20.213   4.080  0.00  0.00    +0.104 C 
ENDBRANCH  29  30
ENDBRANCH  28  29
ENDBRANCH  27  28
ENDBRANCH  19  27
ENDBRANCH  15  18
BRANCH   1  33
ATOM     33  C   LIG    1       28.856 -16.532   5.301  0.00  0.00    +0.111 C 
BRANCH  33  35
ATOM     34  C   LIG    1       29.291 -18.656   6.584  0.00  0.00    +0.005 C 
ATOM     35  C   LIG    1       29.282 -17.974   5.427  0.00  0.00    -0.019 C 
ENDBRANCH  33  35
ENDBRANCH   1  33
TORSDOF 8
ENDMDL
MODEL 2
REMARK VINA RESULT:      12.8      2.078      4.860
REMARK  Name = *****
REMARK                            x       y       z     vdW  Elec       q    Type
REMARK                         _______ _______ _______ _____ _____    ______ ____
ROOT
ATOM      1  N   LIG    1       22.902 -16.450   4.042  0.00  0.00    -0.294 NA
ATOM      2  C   LIG    1       23.894 -15.341   3.971  0.00  0.00    +0.069 C 
ATOM      3  C   LIG    1       25.137 -15.674   3.050  0.00  0.00    +0.038 C 
ATOM      4  C   LIG    1       26.151 -14.554   3.064  0.00  0.00    -0.033 C 
ATOM      5  C   LIG    1       26.159 -13.717   4.183  0.00  0.00    +0.006 C 
ATOM      6  C   LIG    1       27.075 -12.697   4.336  0.00  0.00    +0.047 C 
ATOM      7  N   LIG    1       26.766 -12.097   5.537  0.00  0.00    -0.360 NA
ATOM      8  H   LIG    1       27.261 -11.310   5.928  0.00  0.00    +0.165 HD
ATOM      9  C   LIG    1       25.700 -12.738   6.139  0.00  0.00    +0.087 C 
ATOM     10  C   LIG    1       28.063 -12.462   3.377  0.00  0.00    +0.026 C 
ATOM     11  C   LIG    1       28.077 -13.314   2.256  0.00  0.00    +0.002 C 
ATOM     12  C   LIG    1       25.314 -13.764   5.311  0.00  0.00    -0.021 C 
ATOM     13  C   LIG    1       27.138 -14.343   2.096  0.00  0.00    +0.005 C 
ATOM     14  C   LIG    1       25.818 -16.967   3.495  0.00  0.00    +0.023 C 
ATOM     15  C   LIG    1       24.807 -18.097   3.683  0.00  0.00    +0.090 C 
ATOM     16  C   LIG    1       24.270 -14.827   5.408  0.00  0.00    +0.056 C 
ATOM     17  C   LIG    1       23.565 -17.695   4.497  0.00  0.00    +0.097 C 
ENDROOT
BRANCH  15  18
ATOM     18  C   LIG    1       25.484 -19.306   4.347  0.00  0.00    +0.227 C 
ATOM     19  N   LIG    1       24.712 -20.259   5.043  0.00  0.00    -0.226 N 
ATOM     20  C   LIG    1       23.327 -20.376   4.887  0.00  0.00    +0.308 C 
ATOM     21  N   LIG    1       22.719 -21.335   5.659  0.00  0.00    -0.299 N 
ATOM     22  H   LIG    1       23.205 -21.724   6.450  0.00  0.00    +0.150 HD
ATOM     23  O   LIG    1       22.639 -19.727   4.117  0.00  0.00    -0.252 OA
ATOM     24  O   LIG    1       26.713 -19.403   4.292  0.00  0.00    -0.275 OA
BRANCH  21  25
ATOM     25  C   LIG    1       21.288 -21.561   5.597  0.00  0.00    +0.102 C 
ATOM     26  C   LIG    1       20.760 -21.032   4.283  0.00  0.00    +0.024 C 
ENDBRANCH  21  25
BRANCH  19  27
ATOM     27  C   LIG    1       25.506 -21.344   5.673  0.00  0.00    +0.119 C 
BRANCH  27  28
ATOM     28  C   LIG    1       26.152 -21.038   7.037  0.00  0.00    +0.035 C 
BRANCH  28  29
ATOM     29  C   LIG    1       27.061 -19.798   7.045  0.00  0.00    +0.085 C 
BRANCH  29  30
ATOM     30  N   LIG    1       28.499 -20.134   7.025  0.00  0.00    -0.308 NA
ATOM     31  C   LIG    1       28.697 -21.494   6.501  0.00  0.00    +0.104 C 
ATOM     32  C   LIG    1       29.284 -19.189   6.230  0.00  0.00    +0.104 C 
ENDBRANCH  29  30
ENDBRANCH  28  29
ENDBRANCH  27  28
ENDBRANCH  19  27
ENDBRANCH  15  18
BRANCH   1  33
ATOM     33  C   LIG    1       22.196 -16.653   2.760  0.00  0.00    +0.111 C 
BRANCH  33  35
ATOM     34  C   LIG    1       19.895 -17.575   2.309  0.00  0.00    +0.005 C 
ATOM     35  C   LIG    1       21.121 -17.710   2.839  0.00  0.00    -0.019 C 
ENDBRANCH  33  35
ENDBRANCH   1  33
TORSDOF 8
ENDMDL
MODEL 3
REMARK VINA RESULT:      14.8      1.019      2.047
REMARK  Name = *****
REMARK                            x       y       z     vdW  Elec       q    Type
REMARK                         _______ _______ _______ _____ _____    ______ ____
ROOT
ATOM      1  N   LIG    1       28.398 -16.150   4.038  0.00  0.00    -0.294 NA
ATOM      2  C   LIG    1       27.475 -14.980   4.058  0.00  0.00    +0.069 C 
ATOM      3  C   LIG    1       26.100 -15.284   4.781  0.00  0.00    +0.038 C 
ATOM      4  C   LIG    1       25.168 -14.097   4.716  0.00  0.00    -0.033 C 
ATOM      5  C   LIG    1       25.362 -13.192   3.669  0.00  0.00    +0.006 C 
ATOM      6  C   LIG    1       24.539 -12.103   3.471  0.00  0.00    +0.047 C 
ATOM      7  N   LIG    1       25.045 -11.451   2.367  0.00  0.00    -0.360 NA
ATOM      8  H   LIG    1       24.656 -10.608   1.972  0.00  0.00    +0.165 HD
ATOM      9  C   LIG    1       26.142 -12.125   1.866  0.00  0.00    +0.087 C 
ATOM     10  C   LIG    1       23.447 -11.861   4.305  0.00  0.00    +0.026 C 
ATOM     11  C   LIG    1       23.229 -12.780   5.350  0.00  0.00    +0.002 C 
ATOM     12  C   LIG    1       26.349 -13.227   2.661  0.00  0.00    -0.021 C 
ATOM     13  C   LIG    1       24.073 -13.880   5.557  0.00  0.00    +0.005 C 
ATOM     14  C   LIG    1       25.409 -16.495   4.158  0.00  0.00    +0.023 C 
ATOM     15  C   LIG    1       26.366 -17.679   4.023  0.00  0.00    +0.090 C 
ATOM     16  C   LIG    1       27.329 -14.352   2.625  0.00  0.00    +0.056 C 
ATOM     17  C   LIG    1       27.728 -17.313   3.411  0.00  0.00    +0.097 C 
ENDROOT
BRANCH  15  18
ATOM     18  C   LIG    1       25.713 -18.793   3.190  0.00  0.00    +0.227 C 
ATOM     19  N   LIG    1       24.332 -19.056   3.314  0.00  0.00    -0.226 N 
ATOM     20  C   LIG    1       23.435 -18.150   3.888  0.00  0.00    +0.308 C 
ATOM     21  N   LIG    1       22.129 -18.569   3.960  0.00  0.00    -0.299 N 
ATOM     22  H   LIG    1       21.909 -19.545   3.847  0.00  0.00    +0.150 HD
ATOM     23  O   LIG    1       23.710 -17.033   4.293  0.00  0.00    -0.252 OA
ATOM     24  O   LIG    1       26.423 -19.475   2.447  0.00  0.00    -0.275 OA
BRANCH  21  25
ATOM     25  C   LIG    1       21.095 -17.729   4.532  0.00  0.00    +0.102 C 
ATOM     26  C   LIG    1       20.038 -17.462   3.484  0.00  0.00    +0.024 C 
ENDBRANCH  21  25
BRANCH  19  27
ATOM     27  C   LIG    1       23.852 -20.191   2.487  0.00  0.00    +0.119 C 
BRANCH  27  28
ATOM     28  C   LIG    1       23.446 -21.478   3.229  0.00  0.00    +0.035 C 
BRANCH  28  29
ATOM     29  C   LIG    1       23.900 -21.532   4.697  0.00  0.00    +0.085 C 
BRANCH  29  30
ATOM     30  N   LIG    1       22.773 -21.561   5.652  0.00  0.00    -0.308 NA
ATOM     31  C   LIG    1       23.084 -20.737   6.829  0.00  0.00    +0.104 C 
ATOM     32  C   LIG    1       21.520 -21.098   5.054  0.00  0.00    +0.104 C 
ENDBRANCH  29  30
ENDBRANCH  28  29
ENDBRANCH  27  28
ENDBRANCH  19  27
ENDBRANCH  15  18
BRANCH   1  33
ATOM     33  C   LIG    1       28.910 -16.483   5.383  0.00  0.00    +0.111 C 
BRANCH  33  35
ATOM     34  C   LIG    1       28.738 -18.650   6.657  0.00  0.00    +0.005 C 
ATOM     35  C   LIG    1       29.143 -17.961   5.577  0.00  0.00    -0.019 C 
ENDBRANCH  33  35
ENDBRANCH   1  33
TORSDOF 8
ENDMDL
