MODEL 1
REMARK VINA RESULT:       0.3      0.000      0.000
REMARK  Name = *****
REMARK                            x       y       z     vdW  Elec       q    Type
REMARK                         _______ _______ _______ _____ _____    ______ ____
ROOT
ATOM      1  C   LIG    1       23.525 -13.789   3.354  0.00  0.00    +0.040 C 
ATOM      2  C   LIG    1       24.985 -14.087   3.760  0.00  0.00    +0.135 C 
ATOM      3  S   LIG    1       26.102 -13.248   2.548  0.00  0.00    -0.002 S 
ATOM      4  O   LIG    1       25.354 -12.248   1.812  0.00  0.00    -0.172 OA
ATOM      5  O   LIG    1       26.823 -14.274   1.815  0.00  0.00    -0.172 OA
ATOM      6  C   LIG    1       27.227 -12.430   3.702  0.00  0.00    +0.229 C 
ATOM      7  N   LIG    1       26.808 -13.033   4.989  0.00  0.00    -0.263 N 
ATOM      8  C   LIG    1       27.867 -13.893   5.012  0.00  0.00    +0.221 C 
ATOM      9  O   LIG    1       27.961 -14.992   5.517  0.00  0.00    -0.275 OA
ATOM     10  C   LIG    1       28.606 -13.067   3.948  0.00  0.00    +0.142 C 
ATOM     11  C   LIG    1       25.432 -13.500   5.117  0.00  0.00    +0.215 C 
ENDROOT
BRANCH  11  12
ATOM     12  C   LIG    1       24.581 -12.312   5.554  0.00  0.00    +0.328 C 
ATOM     13  O   LIG    1       23.505 -12.028   5.046  0.00  0.00    -0.249 OA
BRANCH  12  14
ATOM     14  O   LIG    1       25.101 -11.617   6.591  0.00  0.00    -0.479 OA
ATOM     15  H   LIG    1       25.925 -11.115   6.412  0.00  0.00    +0.295 HD
ENDBRANCH  12  14
ENDBRANCH  11  12
BRANCH   2  16
ATOM     16  C   LIG    1       25.262 -15.610   3.675  0.00  0.00    +0.177 C 
BRANCH  16  17
ATOM     17  N   LIG    1       24.147 -16.489   3.969  0.00  0.00    -0.249 N 
ATOM     18  N   LIG    1       24.207 -17.810   3.721  0.00  0.00    -0.066 NA
ATOM     19  N   LIG    1       23.052 -18.340   4.093  0.00  0.00    -0.138 NA
ATOM     20  C   LIG    1       22.253 -17.332   4.554  0.00  0.00    +0.156 A 
ATOM     21  C   LIG    1       22.925 -16.138   4.459  0.00  0.00    +0.130 A 
ENDBRANCH  16  17
ENDBRANCH   2  16
TORSDOF 4
ENDMDL
MODEL 2
REMARK VINA RESULT:       0.3      2.041      3.700
REMARK  Name = *****
REMARK                            x       y       z     vdW  Elec       q    Type
REMARK                         _______ _______ _______ _____ _____    ______ ____
ROOT
ATOM      1  C   LIG    1       27.581 -15.493   4.443  0.00  0.00    +0.040 C 
ATOM      2  C   LIG    1       26.436 -14.625   3.880  0.00  0.00    +0.135 C 
ATOM      3  S   LIG    1       25.447 -13.981   5.304  0.00  0.00    -0.002 S 
ATOM      4  O   LIG    1       26.212 -14.122   6.527  0.00  0.00    -0.172 OA
ATOM      5  O   LIG    1       24.118 -14.561   5.229  0.00  0.00    -0.172 OA
ATOM      6  C   LIG    1       25.368 -12.235   4.841  0.00  0.00    +0.229 C 
ATOM      7  N   LIG    1       25.933 -12.274   3.472  0.00  0.00    -0.263 N 
ATOM      8  C   LIG    1       24.704 -12.190   2.886  0.00  0.00    +0.221 C 
ATOM      9  O   LIG    1       24.328 -12.612   1.812  0.00  0.00    -0.275 OA
ATOM     10  C   LIG    1       24.071 -11.711   4.201  0.00  0.00    +0.142 C 
ATOM     11  C   LIG    1       26.874 -13.340   3.144  0.00  0.00    +0.215 C 
ENDROOT
BRANCH  11  12
ATOM     12  C   LIG    1       28.265 -12.870   3.557  0.00  0.00    +0.328 C 
ATOM     13  O   LIG    1       28.482 -12.197   4.555  0.00  0.00    -0.249 OA
BRANCH  12  14
ATOM     14  O   LIG    1       29.254 -13.299   2.741  0.00  0.00    -0.479 OA
ATOM     15  H   LIG    1       29.548 -12.675   2.044  0.00  0.00    +0.295 HD
ENDBRANCH  12  14
ENDBRANCH  11  12
BRANCH   2  16
ATOM     16  C   LIG    1       25.489 -15.490   3.007  0.00  0.00    +0.177 C 
BRANCH  16  17
ATOM     17  N   LIG    1       25.413 -16.900   3.336  0.00  0.00    -0.249 N 
ATOM     18  N   LIG    1       26.498 -17.695   3.285  0.00  0.00    -0.066 NA
ATOM     19  N   LIG    1       26.118 -18.914   3.638  0.00  0.00    -0.138 NA
ATOM     20  C   LIG    1       24.775 -18.883   3.886  0.00  0.00    +0.156 A 
ATOM     21  C   LIG    1       24.301 -17.611   3.674  0.00  0.00    +0.130 A 
ENDBRANCH  16  17
ENDBRANCH   2  16
TORSDOF 4
ENDMDL
MODEL 3
REMARK VINA RESULT:       0.7      4.438      6.861
REMARK  Name = *****
REMARK                            x       y       z     vdW  Elec       q    Type
REMARK                         _______ _______ _______ _____ _____    ______ ____
ROOT
ATOM      1  C   LIG    1       26.462 -18.612   3.311  0.00  0.00    +0.040 C 
ATOM      2  C   LIG    1       25.140 -18.911   4.050  0.00  0.00    +0.135 C 
ATOM      3  S   LIG    1       24.224 -20.201   3.092  0.00  0.00    -0.002 S 
ATOM      4  O   LIG    1       25.130 -20.851   2.167  0.00  0.00    -0.172 OA
ATOM      5  O   LIG    1       23.002 -19.602   2.585  0.00  0.00    -0.172 OA
ATOM      6  C   LIG    1       23.822 -21.337   4.440  0.00  0.00    +0.229 C 
ATOM      7  N   LIG    1       24.234 -20.541   5.620  0.00  0.00    -0.263 N 
ATOM      8  C   LIG    1       22.950 -20.187   5.918  0.00  0.00    +0.221 C 
ATOM      9  O   LIG    1       22.531 -19.194   6.474  0.00  0.00    -0.275 OA
ATOM     10  C   LIG    1       22.396 -21.303   5.019  0.00  0.00    +0.142 C 
ATOM     11  C   LIG    1       25.289 -19.548   5.449  0.00  0.00    +0.215 C 
ENDROOT
BRANCH  11  12
ATOM     12  C   LIG    1       26.626 -20.259   5.633  0.00  0.00    +0.328 C 
ATOM     13  O   LIG    1       27.708 -19.695   5.552  0.00  0.00    -0.249 OA
BRANCH  12  14
ATOM     14  O   LIG    1       26.512 -21.571   5.940  0.00  0.00    -0.479 OA
ATOM     15  H   LIG    1       27.215 -22.163   5.599  0.00  0.00    +0.295 HD
ENDBRANCH  12  14
ENDBRANCH  11  12
BRANCH   2  16
ATOM     16  C   LIG    1       24.252 -17.640   4.091  0.00  0.00    +0.177 C 
BRANCH  16  17
ATOM     17  N   LIG    1       24.900 -16.386   3.758  0.00  0.00    -0.249 N 
ATOM     18  N   LIG    1       26.075 -16.352   3.103  0.00  0.00    -0.066 NA
ATOM     19  N   LIG    1       26.407 -15.080   2.944  0.00  0.00    -0.138 NA
ATOM     20  C   LIG    1       25.440 -14.313   3.529  0.00  0.00    +0.156 A 
ATOM     21  C   LIG    1       24.481 -15.129   4.078  0.00  0.00    +0.130 A 
ENDBRANCH  16  17
ENDBRANCH   2  16
TORSDOF 4
ENDMDL
MODEL 4
REMARK VINA RESULT:       1.5      1.131      1.345
REMARK  Name = *****
REMARK                            x       y       z     vdW  Elec       q    Type
REMARK                         _______ _______ _______ _____ _____    ______ ____
ROOT
ATOM      1  C   LIG    1       23.707 -14.651   3.070  0.00  0.00    +0.040 C 
ATOM      2  C   LIG    1       25.162 -14.619   3.587  0.00  0.00    +0.135 C 
ATOM      3  S   LIG    1       26.118 -13.429   2.543  0.00  0.00    -0.002 S 
ATOM      4  O   LIG    1       25.199 -12.579   1.812  0.00  0.00    -0.172 OA
ATOM      5  O   LIG    1       27.125 -14.179   1.812  0.00  0.00    -0.172 OA
ATOM      6  C   LIG    1       26.916 -12.468   3.850  0.00  0.00    +0.229 C 
ATOM      7  N   LIG    1       26.570 -13.267   5.048  0.00  0.00    -0.263 N 
ATOM      8  C   LIG    1       27.806 -13.842   5.110  0.00  0.00    +0.221 C 
ATOM      9  O   LIG    1       28.134 -14.925   5.545  0.00  0.00    -0.275 OA
ATOM     10  C   LIG    1       28.389 -12.769   4.178  0.00  0.00    +0.142 C 
ATOM     11  C   LIG    1       25.348 -14.064   5.016  0.00  0.00    +0.215 C 
ENDROOT
BRANCH  11  12
ATOM     12  C   LIG    1       24.198 -13.164   5.454  0.00  0.00    +0.328 C 
ATOM     13  O   LIG    1       24.296 -11.949   5.565  0.00  0.00    -0.249 OA
BRANCH  12  14
ATOM     14  O   LIG    1       23.037 -13.822   5.670  0.00  0.00    -0.479 OA
ATOM     15  H   LIG    1       22.211 -13.324   5.490  0.00  0.00    +0.295 HD
ENDBRANCH  12  14
ENDBRANCH  11  12
BRANCH   2  16
ATOM     16  C   LIG    1       25.817 -16.015   3.424  0.00  0.00    +0.177 C 
BRANCH  16  17
ATOM     17  N   LIG    1       24.953 -17.163   3.615  0.00  0.00    -0.249 N 
ATOM     18  N   LIG    1       23.689 -17.028   4.057  0.00  0.00    -0.066 NA
ATOM     19  N   LIG    1       23.158 -18.239   4.127  0.00  0.00    -0.138 NA
ATOM     20  C   LIG    1       24.111 -19.142   3.749  0.00  0.00    +0.156 A 
ATOM     21  C   LIG    1       25.273 -18.477   3.443  0.00  0.00    +0.130 A 
ENDBRANCH  16  17
ENDBRANCH   2  16
TORSDOF 4
ENDMDL
MODEL 5
REMARK VINA RESULT:       2.7      1.711      2.595
REMARK  Name = *****
REMARK                            x       y       z     vdW  Elec       q    Type
REMARK                         _______ _______ _______ _____ _____    ______ ____
ROOT
ATOM      1  C   LIG    1       23.641 -14.413   5.509  0.00  0.00    +0.040 C 
ATOM      2  C   LIG    1       24.536 -14.222   4.266  0.00  0.00    +0.135 C 
ATOM      3  S   LIG    1       24.089 -12.610   3.477  0.00  0.00    -0.002 S 
ATOM      4  O   LIG    1       23.338 -11.802   4.417  0.00  0.00    -0.172 OA
ATOM      5  O   LIG    1       23.519 -12.890   2.170  0.00  0.00    -0.172 OA
ATOM      6  C   LIG    1       25.744 -11.914   3.273  0.00  0.00    +0.229 C 
ATOM      7  N   LIG    1       26.592 -13.075   3.632  0.00  0.00    -0.263 N 
ATOM      8  C   LIG    1       26.865 -13.368   2.328  0.00  0.00    +0.221 C 
ATOM      9  O   LIG    1       27.124 -14.435   1.813  0.00  0.00    -0.275 OA
ATOM     10  C   LIG    1       26.393 -11.976   1.879  0.00  0.00    +0.142 C 
ATOM     11  C   LIG    1       26.046 -14.070   4.549  0.00  0.00    +0.215 C 
ENDROOT
BRANCH  11  12
ATOM     12  C   LIG    1       26.334 -13.596   5.969  0.00  0.00    +0.328 C 
ATOM     13  O   LIG    1       27.112 -14.161   6.726  0.00  0.00    -0.249 OA
BRANCH  12  14
ATOM     14  O   LIG    1       25.684 -12.461   6.312  0.00  0.00    -0.479 OA
ATOM     15  H   LIG    1       25.391 -12.389   7.245  0.00  0.00    +0.295 HD
ENDBRANCH  12  14
ENDBRANCH  11  12
BRANCH   2  16
ATOM     16  C   LIG    1       24.256 -15.343   3.230  0.00  0.00    +0.177 C 
BRANCH  16  17
ATOM     17  N   LIG    1       24.860 -16.634   3.494  0.00  0.00    -0.249 N 
ATOM     18  N   LIG    1       26.162 -16.865   3.250  0.00  0.00    -0.066 NA
ATOM     19  N   LIG    1       26.416 -18.121   3.590  0.00  0.00    -0.138 NA
ATOM     20  C   LIG    1       25.251 -18.684   4.026  0.00  0.00    +0.156 A 
ATOM     21  C   LIG    1       24.239 -17.759   3.949  0.00  0.00    +0.130 A 
ENDBRANCH  16  17
ENDBRANCH   2  16
TORSDOF 4
ENDMDL
