MODEL 1
REMARK VINA RESULT:      -7.5      0.000      0.000
REMARK  Name = *****
REMARK                            x       y       z     vdW  Elec       q    Type
REMARK                         _______ _______ _______ _____ _____    ______ ____
ROOT
ATOM      1  C   LIG    1       28.201 -20.958   7.229  0.00  0.00    +0.181 C 
ATOM      2  O   LIG    1       27.151 -21.276   8.161  0.00  0.00    -0.340 OA
ATOM      3  C   LIG    1       25.997 -21.520   7.337  0.00  0.00    +0.171 C 
ATOM      4  C   LIG    1       24.817 -20.729   7.910  0.00  0.00    +0.065 C 
ATOM      5  C   LIG    1       23.511 -21.034   7.178  0.00  0.00    +0.005 C 
ATOM      6  C   LIG    1       23.219 -22.532   7.155  0.00  0.00    +0.000 C 
ATOM      7  C   LIG    1       24.386 -23.329   6.578  0.00  0.00    +0.005 C 
ATOM      8  C   LIG    1       25.693 -23.022   7.309  0.00  0.00    +0.065 C 
ATOM      9  O   LIG    1       26.266 -21.082   5.993  0.00  0.00    -0.346 OA
ATOM     10  C   LIG    1       27.459 -20.305   6.090  0.00  0.00    +0.198 C 
ENDROOT
BRANCH   1  11
ATOM     11  C   LIG    1       29.277 -20.076   7.860  0.00  0.00    +0.229 C 
BRANCH  11  12
ATOM     12  N   LIG    1       30.592 -20.709   7.751  0.00  0.00    -0.274 N 
ATOM     13  H   LIG    1       31.053 -20.429   6.889  0.00  0.00    +0.258 HD
BRANCH  12  16
ATOM     14  N   LIG    1       31.849 -21.815   9.380  0.00  0.00    -0.130 NA
ATOM     15  H   LIG    1       32.444 -21.573  10.169  0.00  0.00    +0.306 HD
ATOM     16  C   LIG    1       31.427 -20.743   8.812  0.00  0.00    +0.376 C 
BRANCH  16  17
ATOM     17  N   LIG    1       31.766 -19.505   9.215  0.00  0.00    -0.289 N 
ATOM     18  H   LIG    1       32.533 -19.101   8.690  0.00  0.00    +0.255 HD
ATOM     19  H   LIG    1       31.903 -19.394  10.211  0.00  0.00    +0.255 HD
ENDBRANCH  16  17
ENDBRANCH  12  16
ENDBRANCH  11  12
ENDBRANCH   1  11
TORSDOF 4
ENDMDL
MODEL 2
REMARK VINA RESULT:      -7.3      4.333      5.751
REMARK  Name = *****
REMARK                            x       y       z     vdW  Elec       q    Type
REMARK                         _______ _______ _______ _____ _____    ______ ____
ROOT
ATOM      1  C   LIG    1       25.799 -22.525   6.420  0.00  0.00    +0.181 C 
ATOM      2  O   LIG    1       24.768 -22.437   5.420  0.00  0.00    -0.340 OA
ATOM      3  C   LIG    1       24.451 -21.035   5.348  0.00  0.00    +0.171 C 
ATOM      4  C   LIG    1       22.928 -20.880   5.409  0.00  0.00    +0.065 C 
ATOM      5  C   LIG    1       22.490 -19.431   5.202  0.00  0.00    +0.005 C 
ATOM      6  C   LIG    1       23.057 -18.854   3.907  0.00  0.00    +0.000 C 
ATOM      7  C   LIG    1       24.575 -18.997   3.841  0.00  0.00    +0.005 C 
ATOM      8  C   LIG    1       25.014 -20.446   4.050  0.00  0.00    +0.065 C 
ATOM      9  O   LIG    1       25.052 -20.350   6.461  0.00  0.00    -0.346 OA
ATOM     10  C   LIG    1       25.466 -21.386   7.351  0.00  0.00    +0.198 C 
ENDROOT
BRANCH   1  11
ATOM     11  C   LIG    1       25.824 -23.895   7.095  0.00  0.00    +0.229 C 
BRANCH  11  12
ATOM     12  N   LIG    1       25.415 -24.940   6.157  0.00  0.00    -0.274 N 
ATOM     13  H   LIG    1       26.109 -25.684   6.125  0.00  0.00    +0.258 HD
BRANCH  12  16
ATOM     14  N   LIG    1       23.114 -24.709   6.487  0.00  0.00    -0.130 NA
ATOM     15  H   LIG    1       22.279 -25.288   6.422  0.00  0.00    +0.306 HD
ATOM     16  C   LIG    1       24.145 -25.399   6.151  0.00  0.00    +0.376 C 
BRANCH  16  17
ATOM     17  N   LIG    1       24.084 -26.682   5.754  0.00  0.00    -0.289 N 
ATOM     18  H   LIG    1       24.630 -27.313   6.329  0.00  0.00    +0.255 HD
ATOM     19  H   LIG    1       24.254 -26.841   4.769  0.00  0.00    +0.255 HD
ENDBRANCH  16  17
ENDBRANCH  12  16
ENDBRANCH  11  12
ENDBRANCH   1  11
TORSDOF 4
ENDMDL
MODEL 3
REMARK VINA RESULT:      -7.2      1.537      2.463
REMARK  Name = *****
REMARK                            x       y       z     vdW  Elec       q    Type
REMARK                         _______ _______ _______ _____ _____    ______ ____
ROOT
ATOM      1  C   LIG    1       27.202 -20.519   7.480  0.00  0.00    +0.181 C 
ATOM      2  O   LIG    1       26.586 -21.361   6.489  0.00  0.00    -0.340 OA
ATOM      3  C   LIG    1       25.174 -21.249   6.745  0.00  0.00    +0.171 C 
ATOM      4  C   LIG    1       24.576 -22.659   6.779  0.00  0.00    +0.065 C 
ATOM      5  C   LIG    1       23.054 -22.633   6.910  0.00  0.00    +0.005 C 
ATOM      6  C   LIG    1       22.412 -21.782   5.817  0.00  0.00    +0.000 C 
ATOM      7  C   LIG    1       22.996 -20.372   5.781  0.00  0.00    +0.005 C 
ATOM      8  C   LIG    1       24.519 -20.398   5.651  0.00  0.00    +0.065 C 
ATOM      9  O   LIG    1       24.966 -20.604   8.014  0.00  0.00    -0.346 OA
ATOM     10  C   LIG    1       26.247 -20.610   8.644  0.00  0.00    +0.198 C 
ENDROOT
BRANCH   1  11
ATOM     11  C   LIG    1       28.626 -20.966   7.805  0.00  0.00    +0.229 C 
BRANCH  11  12
ATOM     12  N   LIG    1       29.530 -20.650   6.700  0.00  0.00    -0.274 N 
ATOM     13  H   LIG    1       29.051 -20.743   5.807  0.00  0.00    +0.258 HD
BRANCH  12  16
ATOM     14  N   LIG    1       30.063 -18.423   6.239  0.00  0.00    -0.130 NA
ATOM     15  H   LIG    1       30.838 -17.782   6.400  0.00  0.00    +0.306 HD
ATOM     16  C   LIG    1       30.334 -19.566   6.759  0.00  0.00    +0.376 C 
BRANCH  16  17
ATOM     17  N   LIG    1       31.469 -19.828   7.430  0.00  0.00    -0.289 N 
ATOM     18  H   LIG    1       31.533 -19.355   8.324  0.00  0.00    +0.255 HD
ATOM     19  H   LIG    1       32.324 -19.725   6.898  0.00  0.00    +0.255 HD
ENDBRANCH  16  17
ENDBRANCH  12  16
ENDBRANCH  11  12
ENDBRANCH   1  11
TORSDOF 4
ENDMDL
MODEL 4
REMARK VINA RESULT:      -7.2      0.947      1.868
REMARK  Name = *****
REMARK                            x       y       z     vdW  Elec       q    Type
REMARK                         _______ _______ _______ _____ _____    ______ ____
ROOT
ATOM      1  C   LIG    1       27.711 -20.557   7.284  0.00  0.00    +0.181 C 
ATOM      2  O   LIG    1       26.864 -21.023   6.218  0.00  0.00    -0.340 OA
ATOM      3  C   LIG    1       25.750 -21.644   6.886  0.00  0.00    +0.171 C 
ATOM      4  C   LIG    1       25.509 -23.017   6.250  0.00  0.00    +0.065 C 
ATOM      5  C   LIG    1       24.257 -23.694   6.804  0.00  0.00    +0.005 C 
ATOM      6  C   LIG    1       23.030 -22.797   6.673  0.00  0.00    +0.000 C 
ATOM      7  C   LIG    1       23.257 -21.428   7.311  0.00  0.00    +0.005 C 
ATOM      8  C   LIG    1       24.511 -20.751   6.758  0.00  0.00    +0.065 C 
ATOM      9  O   LIG    1       26.057 -21.804   8.282  0.00  0.00    -0.346 OA
ATOM     10  C   LIG    1       27.460 -21.560   8.382  0.00  0.00    +0.198 C 
ENDROOT
BRANCH   1  11
ATOM     11  C   LIG    1       29.173 -20.459   6.851  0.00  0.00    +0.229 C 
BRANCH  11  12
ATOM     12  N   LIG    1       30.045 -21.110   7.828  0.00  0.00    -0.274 N 
ATOM     13  H   LIG    1       30.152 -22.097   7.610  0.00  0.00    +0.258 HD
BRANCH  12  16
ATOM     14  N   LIG    1       31.917 -20.903   9.210  0.00  0.00    -0.130 NA
ATOM     15  H   LIG    1       32.720 -20.285   9.308  0.00  0.00    +0.306 HD
ATOM     16  C   LIG    1       31.199 -20.523   8.215  0.00  0.00    +0.376 C 
BRANCH  16  17
ATOM     17  N   LIG    1       31.510 -19.477   7.429  0.00  0.00    -0.289 N 
ATOM     18  H   LIG    1       30.845 -18.715   7.484  0.00  0.00    +0.255 HD
ATOM     19  H   LIG    1       31.731 -19.705   6.469  0.00  0.00    +0.255 HD
ENDBRANCH  16  17
ENDBRANCH  12  16
ENDBRANCH  11  12
ENDBRANCH   1  11
TORSDOF 4
ENDMDL
MODEL 5
REMARK VINA RESULT:      -7.2      3.426      5.780
REMARK  Name = *****
REMARK                            x       y       z     vdW  Elec       q    Type
REMARK                         _______ _______ _______ _____ _____    ______ ____
ROOT
ATOM      1  C   LIG    1       26.521 -21.949   7.928  0.00  0.00    +0.181 C 
ATOM      2  O   LIG    1       27.595 -21.895   6.971  0.00  0.00    -0.340 OA
ATOM      3  C   LIG    1       28.399 -20.777   7.391  0.00  0.00    +0.171 C 
ATOM      4  C   LIG    1       28.683 -19.899   6.169  0.00  0.00    +0.065 C 
ATOM      5  C   LIG    1       29.646 -18.758   6.493  0.00  0.00    +0.005 C 
ATOM      6  C   LIG    1       30.938 -19.277   7.118  0.00  0.00    +0.000 C 
ATOM      7  C   LIG    1       30.666 -20.147   8.343  0.00  0.00    +0.005 C 
ATOM      8  C   LIG    1       29.701 -21.287   8.019  0.00  0.00    +0.065 C 
ATOM      9  O   LIG    1       27.682 -20.015   8.379  0.00  0.00    -0.346 OA
ATOM     10  C   LIG    1       26.342 -20.503   8.319  0.00  0.00    +0.198 C 
ENDROOT
BRANCH   1  11
ATOM     11  C   LIG    1       25.267 -22.597   7.343  0.00  0.00    +0.229 C 
BRANCH  11  12
ATOM     12  N   LIG    1       25.359 -22.674   5.885  0.00  0.00    -0.274 N 
ATOM     13  H   LIG    1       25.228 -23.632   5.569  0.00  0.00    +0.258 HD
BRANCH  12  16
ATOM     14  N   LIG    1       23.467 -21.778   4.848  0.00  0.00    -0.130 NA
ATOM     15  H   LIG    1       23.241 -21.007   4.223  0.00  0.00    +0.306 HD
ATOM     16  C   LIG    1       24.725 -21.768   5.109  0.00  0.00    +0.376 C 
BRANCH  16  17
ATOM     17  N   LIG    1       25.577 -20.844   4.631  0.00  0.00    -0.289 N 
ATOM     18  H   LIG    1       25.225 -20.346   3.821  0.00  0.00    +0.255 HD
ATOM     19  H   LIG    1       26.526 -21.162   4.483  0.00  0.00    +0.255 HD
ENDBRANCH  16  17
ENDBRANCH  12  16
ENDBRANCH  11  12
ENDBRANCH   1  11
TORSDOF 4
ENDMDL
MODEL 6
REMARK VINA RESULT:      -7.1      5.317      6.602
REMARK  Name = *****
REMARK                            x       y       z     vdW  Elec       q    Type
REMARK                         _______ _______ _______ _____ _____    ______ ____
ROOT
ATOM      1  C   LIG    1       25.502 -25.007   6.070  0.00  0.00    +0.181 C 
ATOM      2  O   LIG    1       24.209 -24.424   5.832  0.00  0.00    -0.340 OA
ATOM      3  C   LIG    1       24.399 -23.015   6.057  0.00  0.00    +0.171 C 
ATOM      4  C   LIG    1       23.279 -22.516   6.975  0.00  0.00    +0.065 C 
ATOM      5  C   LIG    1       23.321 -21.000   7.161  0.00  0.00    +0.005 C 
ATOM      6  C   LIG    1       23.308 -20.271   5.820  0.00  0.00    +0.000 C 
ATOM      7  C   LIG    1       24.427 -20.756   4.901  0.00  0.00    +0.005 C 
ATOM      8  C   LIG    1       24.386 -22.272   4.716  0.00  0.00    +0.065 C 
ATOM      9  O   LIG    1       25.674 -22.798   6.688  0.00  0.00    -0.346 OA
ATOM     10  C   LIG    1       26.101 -24.093   7.111  0.00  0.00    +0.198 C 
ENDROOT
BRANCH   1  11
ATOM     11  C   LIG    1       25.398 -26.467   6.508  0.00  0.00    +0.229 C 
BRANCH  11  12
ATOM     12  N   LIG    1       24.302 -27.138   5.810  0.00  0.00    -0.274 N 
ATOM     13  H   LIG    1       23.993 -26.585   5.014  0.00  0.00    +0.258 HD
BRANCH  12  16
ATOM     14  N   LIG    1       23.352 -29.203   5.273  0.00  0.00    -0.130 NA
ATOM     15  H   LIG    1       23.659 -30.164   5.137  0.00  0.00    +0.306 HD
ATOM     16  C   LIG    1       24.364 -28.460   5.544  0.00  0.00    +0.376 C 
BRANCH  16  17
ATOM     17  N   LIG    1       25.628 -28.918   5.604  0.00  0.00    -0.289 N 
ATOM     18  H   LIG    1       25.982 -29.252   4.715  0.00  0.00    +0.255 HD
ATOM     19  H   LIG    1       25.817 -29.577   6.348  0.00  0.00    +0.255 HD
ENDBRANCH  16  17
ENDBRANCH  12  16
ENDBRANCH  11  12
ENDBRANCH   1  11
TORSDOF 4
ENDMDL
MODEL 7
REMARK VINA RESULT:      -7.1      5.606      7.146
REMARK  Name = *****
REMARK                            x       y       z     vdW  Elec       q    Type
REMARK                         _______ _______ _______ _____ _____    ______ ____
ROOT
ATOM      1  C   LIG    1       24.315 -25.783   5.808  0.00  0.00    +0.181 C 
ATOM      2  O   LIG    1       24.291 -24.994   7.011  0.00  0.00    -0.340 OA
ATOM      3  C   LIG    1       24.359 -23.631   6.552  0.00  0.00    +0.171 C 
ATOM      4  C   LIG    1       25.437 -22.902   7.360  0.00  0.00    +0.065 C 
ATOM      5  C   LIG    1       25.487 -21.410   7.035  0.00  0.00    +0.005 C 
ATOM      6  C   LIG    1       24.120 -20.753   7.210  0.00  0.00    +0.000 C 
ATOM      7  C   LIG    1       23.040 -21.468   6.402  0.00  0.00    +0.005 C 
ATOM      8  C   LIG    1       22.992 -22.961   6.726  0.00  0.00    +0.065 C 
ATOM      9  O   LIG    1       24.705 -23.613   5.156  0.00  0.00    -0.346 OA
ATOM     10  C   LIG    1       25.138 -24.941   4.866  0.00  0.00    +0.198 C 
ENDROOT
BRANCH   1  11
ATOM     11  C   LIG    1       24.882 -27.181   6.053  0.00  0.00    +0.229 C 
BRANCH  11  12
ATOM     12  N   LIG    1       23.987 -28.202   5.510  0.00  0.00    -0.274 N 
ATOM     13  H   LIG    1       23.723 -27.975   4.554  0.00  0.00    +0.258 HD
BRANCH  12  16
ATOM     14  N   LIG    1       23.368 -30.441   5.758  0.00  0.00    -0.130 NA
ATOM     15  H   LIG    1       23.823 -31.338   5.920  0.00  0.00    +0.306 HD
ATOM     16  C   LIG    1       24.255 -29.514   5.689  0.00  0.00    +0.376 C 
BRANCH  16  17
ATOM     17  N   LIG    1       25.577 -29.740   5.793  0.00  0.00    -0.289 N 
ATOM     18  H   LIG    1       25.967 -30.248   5.008  0.00  0.00    +0.255 HD
ATOM     19  H   LIG    1       25.883 -30.132   6.674  0.00  0.00    +0.255 HD
ENDBRANCH  16  17
ENDBRANCH  12  16
ENDBRANCH  11  12
ENDBRANCH   1  11
TORSDOF 4
ENDMDL
MODEL 8
REMARK VINA RESULT:      -6.8      1.823      2.514
REMARK  Name = *****
REMARK                            x       y       z     vdW  Elec       q    Type
REMARK                         _______ _______ _______ _____ _____    ______ ____
ROOT
ATOM      1  C   LIG    1       27.123 -21.451   7.888  0.00  0.00    +0.181 C 
ATOM      2  O   LIG    1       26.548 -20.331   7.192  0.00  0.00    -0.340 OA
ATOM      3  C   LIG    1       25.432 -20.885   6.470  0.00  0.00    +0.171 C 
ATOM      4  C   LIG    1       25.500 -20.392   5.021  0.00  0.00    +0.065 C 
ATOM      5  C   LIG    1       24.278 -20.821   4.211  0.00  0.00    +0.005 C 
ATOM      6  C   LIG    1       22.979 -20.389   4.886  0.00  0.00    +0.000 C 
ATOM      7  C   LIG    1       22.899 -20.882   6.329  0.00  0.00    +0.005 C 
ATOM      8  C   LIG    1       24.122 -20.455   7.139  0.00  0.00    +0.065 C 
ATOM      9  O   LIG    1       25.511 -22.321   6.497  0.00  0.00    -0.346 OA
ATOM     10  C   LIG    1       26.826 -22.610   6.969  0.00  0.00    +0.198 C 
ENDROOT
BRANCH   1  11
ATOM     11  C   LIG    1       28.609 -21.245   8.173  0.00  0.00    +0.229 C 
BRANCH  11  12
ATOM     12  N   LIG    1       29.341 -20.984   6.933  0.00  0.00    -0.274 N 
ATOM     13  H   LIG    1       28.751 -21.168   6.125  0.00  0.00    +0.258 HD
BRANCH  12  16
ATOM     14  N   LIG    1       31.343 -19.790   7.073  0.00  0.00    -0.130 NA
ATOM     15  H   LIG    1       31.669 -18.838   6.914  0.00  0.00    +0.306 HD
ATOM     16  C   LIG    1       30.090 -19.869   6.801  0.00  0.00    +0.376 C 
BRANCH  16  17
ATOM     17  N   LIG    1       29.361 -18.833   6.350  0.00  0.00    -0.289 N 
ATOM     18  H   LIG    1       28.590 -19.107   5.751  0.00  0.00    +0.255 HD
ATOM     19  H   LIG    1       29.890 -18.072   5.944  0.00  0.00    +0.255 HD
ENDBRANCH  16  17
ENDBRANCH  12  16
ENDBRANCH  11  12
ENDBRANCH   1  11
TORSDOF 4
ENDMDL
MODEL 9
REMARK VINA RESULT:      -6.7      2.392      3.639
REMARK  Name = *****
REMARK                            x       y       z     vdW  Elec       q    Type
REMARK                         _______ _______ _______ _____ _____    ______ ____
ROOT
ATOM      1  C   LIG    1       25.341 -22.190   7.093  0.00  0.00    +0.181 C 
ATOM      2  O   LIG    1       25.302 -20.782   6.795  0.00  0.00    -0.340 OA
ATOM      3  C   LIG    1       24.424 -20.676   5.659  0.00  0.00    +0.171 C 
ATOM      4  C   LIG    1       25.104 -19.799   4.603  0.00  0.00    +0.065 C 
ATOM      5  C   LIG    1       24.187 -19.518   3.414  0.00  0.00    +0.005 C 
ATOM      6  C   LIG    1       22.857 -18.918   3.863  0.00  0.00    +0.000 C 
ATOM      7  C   LIG    1       22.167 -19.789   4.910  0.00  0.00    +0.005 C 
ATOM      8  C   LIG    1       23.085 -20.073   6.099  0.00  0.00    +0.065 C 
ATOM      9  O   LIG    1       24.181 -21.986   5.117  0.00  0.00    -0.346 OA
ATOM     10  C   LIG    1       25.150 -22.829   5.739  0.00  0.00    +0.198 C 
ENDROOT
BRANCH   1  11
ATOM     11  C   LIG    1       26.637 -22.590   7.794  0.00  0.00    +0.229 C 
BRANCH  11  12
ATOM     12  N   LIG    1       27.474 -21.416   8.040  0.00  0.00    -0.274 N 
ATOM     13  H   LIG    1       27.727 -21.356   9.024  0.00  0.00    +0.258 HD
BRANCH  12  16
ATOM     14  N   LIG    1       28.367 -20.629   6.030  0.00  0.00    -0.130 NA
ATOM     15  H   LIG    1       29.285 -20.518   5.602  0.00  0.00    +0.306 HD
ATOM     16  C   LIG    1       28.498 -21.117   7.211  0.00  0.00    +0.376 C 
BRANCH  16  17
ATOM     17  N   LIG    1       29.687 -21.400   7.772  0.00  0.00    -0.289 N 
ATOM     18  H   LIG    1       30.356 -20.640   7.713  0.00  0.00    +0.255 HD
ATOM     19  H   LIG    1       30.103 -22.279   7.491  0.00  0.00    +0.255 HD
ENDBRANCH  16  17
ENDBRANCH  12  16
ENDBRANCH  11  12
ENDBRANCH   1  11
TORSDOF 4
ENDMDL
