MODEL 1
REMARK VINA RESULT:      -8.8      0.000      0.000
REMARK  Name = *****
REMARK                            x       y       z     vdW  Elec       q    Type
REMARK                         _______ _______ _______ _____ _____    ______ ____
ROOT
ATOM      1  C   LIG    1       25.423 -21.573   6.926  0.00  0.00    +0.178 C 
ENDROOT
BRANCH   1   2
ATOM      2  C   LIG    1       25.179 -23.072   6.754  0.00  0.00    -0.014 A 
ATOM      3  C   LIG    1       23.870 -23.551   6.560  0.00  0.00    +0.007 A 
ATOM      4  C   LIG    1       23.625 -24.914   6.358  0.00  0.00    +0.015 A 
ATOM      5  C   LIG    1       24.688 -25.809   6.351  0.00  0.00    +0.018 A 
ATOM      6 BR   LIG    1       24.360 -27.654   6.073  0.00  0.00    -0.050 Br
ATOM      7  C   LIG    1       25.991 -25.361   6.541  0.00  0.00    +0.015 A 
ATOM      8  C   LIG    1       26.235 -23.995   6.738  0.00  0.00    +0.007 A 
ENDBRANCH   1   2
BRANCH   1   9
ATOM      9  C   LIG    1       24.598 -20.749   5.944  0.00  0.00    -0.015 A 
ATOM     10  C   LIG    1       23.288 -20.342   6.256  0.00  0.00    +0.006 A 
ATOM     11  C   LIG    1       22.542 -19.587   5.350  0.00  0.00    +0.000 A 
ATOM     12  C   LIG    1       23.102 -19.208   4.130  0.00  0.00    +0.000 A 
ATOM     13  C   LIG    1       24.396 -19.598   3.810  0.00  0.00    +0.000 A 
ATOM     14  C   LIG    1       25.144 -20.367   4.706  0.00  0.00    +0.006 A 
ENDBRANCH   1   9
BRANCH   1  15
ATOM     15  O   LIG    1       26.836 -21.291   6.815  0.00  0.00    -0.366 OA
BRANCH  15  16
ATOM     16  C   LIG    1       27.278 -20.341   7.791  0.00  0.00    +0.176 C 
BRANCH  16  17
ATOM     17  C   LIG    1       28.691 -19.837   7.451  0.00  0.00    +0.112 C 
BRANCH  17  19
ATOM     18  C   LIG    1       30.067 -18.342   8.803  0.00  0.00    +0.104 C 
ATOM     19  N   LIG    1       29.635 -19.720   8.580  0.00  0.00    -0.306 NA
ATOM     20  C   LIG    1       30.790 -20.605   8.433  0.00  0.00    +0.104 C 
ENDBRANCH  17  19
ENDBRANCH  16  17
ENDBRANCH  15  16
ENDBRANCH   1  15
TORSDOF 6
ENDMDL
MODEL 2
REMARK VINA RESULT:      -8.5      3.192      5.406
REMARK  Name = *****
REMARK                            x       y       z     vdW  Elec       q    Type
REMARK                         _______ _______ _______ _____ _____    ______ ____
ROOT
ATOM      1  C   LIG    1       25.502 -21.469   6.048  0.00  0.00    +0.178 C 
ENDROOT
BRANCH   1   2
ATOM      2  C   LIG    1       26.752 -20.728   6.524  0.00  0.00    -0.014 A 
ATOM      3  C   LIG    1       27.033 -20.642   7.900  0.00  0.00    +0.007 A 
ATOM      4  C   LIG    1       28.193 -20.007   8.358  0.00  0.00    +0.015 A 
ATOM      5  C   LIG    1       29.079 -19.451   7.444  0.00  0.00    +0.018 A 
ATOM      6 BR   LIG    1       30.651 -18.594   8.061  0.00  0.00    -0.050 Br
ATOM      7  C   LIG    1       28.822 -19.522   6.078  0.00  0.00    +0.015 A 
ATOM      8  C   LIG    1       27.663 -20.164   5.621  0.00  0.00    +0.007 A 
ENDBRANCH   1   2
BRANCH   1   9
ATOM      9  C   LIG    1       24.513 -20.531   5.366  0.00  0.00    -0.015 A 
ATOM     10  C   LIG    1       23.255 -20.260   5.936  0.00  0.00    +0.006 A 
ATOM     11  C   LIG    1       22.358 -19.399   5.303  0.00  0.00    +0.000 A 
ATOM     12  C   LIG    1       22.712 -18.778   4.106  0.00  0.00    +0.000 A 
ATOM     13  C   LIG    1       23.952 -19.032   3.534  0.00  0.00    +0.000 A 
ATOM     14  C   LIG    1       24.851 -19.905   4.153  0.00  0.00    +0.006 A 
ENDBRANCH   1   9
BRANCH   1  15
ATOM     15  O   LIG    1       24.902 -22.177   7.155  0.00  0.00    -0.366 OA
BRANCH  15  16
ATOM     16  C   LIG    1       24.641 -23.551   6.843  0.00  0.00    +0.176 C 
BRANCH  16  17
ATOM     17  C   LIG    1       25.943 -24.369   6.889  0.00  0.00    +0.112 C 
BRANCH  17  19
ATOM     18  C   LIG    1       25.091 -25.325   4.812  0.00  0.00    +0.104 C 
ATOM     19  N   LIG    1       26.083 -25.437   5.879  0.00  0.00    -0.306 NA
ATOM     20  C   LIG    1       26.055 -26.772   6.472  0.00  0.00    +0.104 C 
ENDBRANCH  17  19
ENDBRANCH  16  17
ENDBRANCH  15  16
ENDBRANCH   1  15
TORSDOF 6
ENDMDL
MODEL 3
REMARK VINA RESULT:      -7.9      2.419      4.706
REMARK  Name = *****
REMARK                            x       y       z     vdW  Elec       q    Type
REMARK                         _______ _______ _______ _____ _____    ______ ____
ROOT
ATOM      1  C   LIG    1       25.861 -22.509   6.748  0.00  0.00    +0.178 C 
ENDROOT
BRANCH   1   2
ATOM      2  C   LIG    1       24.901 -21.522   6.086  0.00  0.00    -0.014 A 
ATOM      3  C   LIG    1       23.762 -21.077   6.784  0.00  0.00    +0.007 A 
ATOM      4  C   LIG    1       22.891 -20.141   6.216  0.00  0.00    +0.015 A 
ATOM      5  C   LIG    1       23.150 -19.642   4.945  0.00  0.00    +0.018 A 
ATOM      6 BR   LIG    1       21.975 -18.372   4.176  0.00  0.00    -0.050 Br
ATOM      7  C   LIG    1       24.269 -20.067   4.235  0.00  0.00    +0.015 A 
ATOM      8  C   LIG    1       25.143 -21.001   4.807  0.00  0.00    +0.007 A 
ENDBRANCH   1   2
BRANCH   1   9
ATOM      9  C   LIG    1       25.420 -23.954   6.540  0.00  0.00    -0.015 A 
ATOM     10  C   LIG    1       24.065 -24.282   6.355  0.00  0.00    +0.006 A 
ATOM     11  C   LIG    1       23.673 -25.608   6.164  0.00  0.00    +0.000 A 
ATOM     12  C   LIG    1       24.631 -26.621   6.132  0.00  0.00    +0.000 A 
ATOM     13  C   LIG    1       25.974 -26.311   6.308  0.00  0.00    +0.000 A 
ATOM     14  C   LIG    1       26.372 -24.988   6.515  0.00  0.00    +0.006 A 
ENDBRANCH   1   9
BRANCH   1  15
ATOM     15  O   LIG    1       26.008 -22.185   8.148  0.00  0.00    -0.366 OA
BRANCH  15  16
ATOM     16  C   LIG    1       26.942 -21.120   8.363  0.00  0.00    +0.176 C 
BRANCH  16  17
ATOM     17  C   LIG    1       28.269 -21.415   7.642  0.00  0.00    +0.112 C 
BRANCH  17  19
ATOM     18  C   LIG    1       30.041 -19.851   7.033  0.00  0.00    +0.104 C 
ATOM     19  N   LIG    1       29.448 -20.654   8.100  0.00  0.00    -0.306 NA
ATOM     20  C   LIG    1       30.456 -21.511   8.723  0.00  0.00    +0.104 C 
ENDBRANCH  17  19
ENDBRANCH  16  17
ENDBRANCH  15  16
ENDBRANCH   1  15
TORSDOF 6
ENDMDL
MODEL 4
REMARK VINA RESULT:      -7.4      2.123      4.524
REMARK  Name = *****
REMARK                            x       y       z     vdW  Elec       q    Type
REMARK                         _______ _______ _______ _____ _____    ______ ____
ROOT
ATOM      1  C   LIG    1       24.972 -21.980   6.559  0.00  0.00    +0.178 C 
ENDROOT
BRANCH   1   2
ATOM      2  C   LIG    1       24.980 -23.506   6.486  0.00  0.00    -0.014 A 
ATOM      3  C   LIG    1       23.763 -24.211   6.420  0.00  0.00    +0.007 A 
ATOM      4  C   LIG    1       23.745 -25.606   6.310  0.00  0.00    +0.015 A 
ATOM      5  C   LIG    1       24.943 -26.308   6.266  0.00  0.00    +0.018 A 
ATOM      6 BR   LIG    1       24.921 -28.195   6.112  0.00  0.00    -0.050 Br
ATOM      7  C   LIG    1       26.159 -25.634   6.330  0.00  0.00    +0.015 A 
ATOM      8  C   LIG    1       26.176 -24.237   6.435  0.00  0.00    +0.007 A 
ENDBRANCH   1   2
BRANCH   1   9
ATOM      9  C   LIG    1       26.373 -21.416   6.767  0.00  0.00    -0.015 A 
ATOM     10  C   LIG    1       27.161 -21.808   7.865  0.00  0.00    +0.006 A 
ATOM     11  C   LIG    1       28.442 -21.286   8.045  0.00  0.00    +0.000 A 
ATOM     12  C   LIG    1       28.964 -20.383   7.119  0.00  0.00    +0.000 A 
ATOM     13  C   LIG    1       28.201 -19.990   6.027  0.00  0.00    +0.000 A 
ATOM     14  C   LIG    1       26.911 -20.497   5.848  0.00  0.00    +0.006 A 
ENDBRANCH   1   9
BRANCH   1  15
ATOM     15  O   LIG    1       24.056 -21.544   7.587  0.00  0.00    -0.366 OA
BRANCH  15  16
ATOM     16  C   LIG    1       23.288 -20.404   7.180  0.00  0.00    +0.176 C 
BRANCH  16  17
ATOM     17  C   LIG    1       22.863 -20.539   5.708  0.00  0.00    +0.112 C 
BRANCH  17  19
ATOM     18  C   LIG    1       22.152 -18.605   4.400  0.00  0.00    +0.104 C 
ATOM     19  N   LIG    1       23.276 -19.448   4.803  0.00  0.00    -0.306 NA
ATOM     20  C   LIG    1       23.997 -19.941   3.630  0.00  0.00    +0.104 C 
ENDBRANCH  17  19
ENDBRANCH  16  17
ENDBRANCH  15  16
ENDBRANCH   1  15
TORSDOF 6
ENDMDL
MODEL 5
REMARK VINA RESULT:      -7.4      3.270      6.157
REMARK  Name = *****
REMARK                            x       y       z     vdW  Elec       q    Type
REMARK                         _______ _______ _______ _____ _____    ______ ____
ROOT
ATOM      1  C   LIG    1       24.792 -21.490   7.668  0.00  0.00    +0.178 C 
ENDROOT
BRANCH   1   2
ATOM      2  C   LIG    1       26.125 -20.825   7.329  0.00  0.00    -0.014 A 
ATOM      3  C   LIG    1       27.056 -20.560   8.350  0.00  0.00    +0.007 A 
ATOM      4  C   LIG    1       28.301 -19.991   8.059  0.00  0.00    +0.015 A 
ATOM      5  C   LIG    1       28.625 -19.682   6.744  0.00  0.00    +0.018 A 
ATOM      6 BR   LIG    1       30.311 -18.916   6.346  0.00  0.00    -0.050 Br
ATOM      7  C   LIG    1       27.721 -19.933   5.716  0.00  0.00    +0.015 A 
ATOM      8  C   LIG    1       26.477 -20.508   6.009  0.00  0.00    +0.007 A 
ENDBRANCH   1   2
BRANCH   1   9
ATOM      9  C   LIG    1       24.740 -22.935   7.186  0.00  0.00    -0.015 A 
ATOM     10  C   LIG    1       25.907 -23.717   7.103  0.00  0.00    +0.006 A 
ATOM     11  C   LIG    1       25.848 -25.040   6.661  0.00  0.00    +0.000 A 
ATOM     12  C   LIG    1       24.621 -25.607   6.319  0.00  0.00    +0.000 A 
ATOM     13  C   LIG    1       23.460 -24.849   6.401  0.00  0.00    +0.000 A 
ATOM     14  C   LIG    1       23.513 -23.520   6.828  0.00  0.00    +0.006 A 
ENDBRANCH   1   9
BRANCH   1  15
ATOM     15  O   LIG    1       23.703 -20.704   7.136  0.00  0.00    -0.366 OA
BRANCH  15  16
ATOM     16  C   LIG    1       23.652 -20.746   5.705  0.00  0.00    +0.176 C 
BRANCH  16  17
ATOM     17  C   LIG    1       22.425 -19.975   5.187  0.00  0.00    +0.112 C 
BRANCH  17  19
ATOM     18  C   LIG    1       24.069 -18.978   3.684  0.00  0.00    +0.104 C 
ATOM     19  N   LIG    1       22.676 -18.980   4.125  0.00  0.00    -0.306 NA
ATOM     20  C   LIG    1       22.255 -17.635   4.512  0.00  0.00    +0.104 C 
ENDBRANCH  17  19
ENDBRANCH  16  17
ENDBRANCH  15  16
ENDBRANCH   1  15
TORSDOF 6
ENDMDL
MODEL 6
REMARK VINA RESULT:      -7.4      3.340      6.098
REMARK  Name = *****
REMARK                            x       y       z     vdW  Elec       q    Type
REMARK                         _______ _______ _______ _____ _____    ______ ____
ROOT
ATOM      1  C   LIG    1       25.328 -20.658   5.538  0.00  0.00    +0.178 C 
ENDROOT
BRANCH   1   2
ATOM      2  C   LIG    1       26.623 -20.395   6.306  0.00  0.00    -0.014 A 
ATOM      3  C   LIG    1       27.771 -19.961   5.616  0.00  0.00    +0.007 A 
ATOM      4  C   LIG    1       28.956 -19.674   6.301  0.00  0.00    +0.015 A 
ATOM      5  C   LIG    1       29.004 -19.819   7.682  0.00  0.00    +0.018 A 
ATOM      6 BR   LIG    1       30.606 -19.426   8.613  0.00  0.00    -0.050 Br
ATOM      7  C   LIG    1       27.884 -20.248   8.387  0.00  0.00    +0.015 A 
ATOM      8  C   LIG    1       26.696 -20.530   7.699  0.00  0.00    +0.007 A 
ENDBRANCH   1   2
BRANCH   1   9
ATOM      9  C   LIG    1       24.697 -21.989   5.930  0.00  0.00    -0.015 A 
ATOM     10  C   LIG    1       25.351 -23.208   5.676  0.00  0.00    +0.006 A 
ATOM     11  C   LIG    1       24.764 -24.421   6.040  0.00  0.00    +0.000 A 
ATOM     12  C   LIG    1       23.528 -24.432   6.684  0.00  0.00    +0.000 A 
ATOM     13  C   LIG    1       22.872 -23.236   6.947  0.00  0.00    +0.000 A 
ATOM     14  C   LIG    1       23.446 -22.018   6.572  0.00  0.00    +0.006 A 
ENDBRANCH   1   9
BRANCH   1  15
ATOM     15  O   LIG    1       25.576 -20.574   4.117  0.00  0.00    -0.366 OA
BRANCH  15  16
ATOM     16  C   LIG    1       24.392 -20.249   3.379  0.00  0.00    +0.176 C 
BRANCH  16  17
ATOM     17  C   LIG    1       23.933 -18.816   3.703  0.00  0.00    +0.112 C 
BRANCH  17  19
ATOM     18  C   LIG    1       22.224 -17.360   4.660  0.00  0.00    +0.104 C 
ATOM     19  N   LIG    1       22.500 -18.641   4.013  0.00  0.00    -0.306 NA
ATOM     20  C   LIG    1       21.962 -19.746   4.805  0.00  0.00    +0.104 C 
ENDBRANCH  17  19
ENDBRANCH  16  17
ENDBRANCH  15  16
ENDBRANCH   1  15
TORSDOF 6
ENDMDL
MODEL 7
REMARK VINA RESULT:      -7.3      3.082      6.071
REMARK  Name = *****
REMARK                            x       y       z     vdW  Elec       q    Type
REMARK                         _______ _______ _______ _____ _____    ______ ____
ROOT
ATOM      1  C   LIG    1       26.116 -21.869   7.029  0.00  0.00    +0.178 C 
ENDROOT
BRANCH   1   2
ATOM      2  C   LIG    1       25.028 -21.132   6.249  0.00  0.00    -0.014 A 
ATOM      3  C   LIG    1       23.877 -20.672   6.917  0.00  0.00    +0.007 A 
ATOM      4  C   LIG    1       22.887 -19.957   6.235  0.00  0.00    +0.015 A 
ATOM      5  C   LIG    1       23.038 -19.698   4.878  0.00  0.00    +0.018 A 
ATOM      6 BR   LIG    1       21.701 -18.726   3.952  0.00  0.00    -0.050 Br
ATOM      7  C   LIG    1       24.166 -20.143   4.195  0.00  0.00    +0.015 A 
ATOM      8  C   LIG    1       25.159 -20.854   4.882  0.00  0.00    +0.007 A 
ENDBRANCH   1   2
BRANCH   1   9
ATOM      9  C   LIG    1       27.444 -21.121   6.993  0.00  0.00    -0.015 A 
ATOM     10  C   LIG    1       28.494 -21.460   7.866  0.00  0.00    +0.006 A 
ATOM     11  C   LIG    1       29.706 -20.769   7.824  0.00  0.00    +0.000 A 
ATOM     12  C   LIG    1       29.894 -19.746   6.894  0.00  0.00    +0.000 A 
ATOM     13  C   LIG    1       28.868 -19.404   6.023  0.00  0.00    +0.000 A 
ATOM     14  C   LIG    1       27.647 -20.081   6.069  0.00  0.00    +0.006 A 
ENDBRANCH   1   9
BRANCH   1  15
ATOM     15  O   LIG    1       26.243 -23.220   6.533  0.00  0.00    -0.366 OA
BRANCH  15  16
ATOM     16  C   LIG    1       25.145 -24.050   6.932  0.00  0.00    +0.176 C 
BRANCH  16  17
ATOM     17  C   LIG    1       24.874 -25.130   5.871  0.00  0.00    +0.112 C 
BRANCH  17  19
ATOM     18  C   LIG    1       26.592 -26.814   5.462  0.00  0.00    +0.104 C 
ATOM     19  N   LIG    1       25.361 -26.490   6.179  0.00  0.00    -0.306 NA
ATOM     20  C   LIG    1       24.343 -27.512   5.945  0.00  0.00    +0.104 C 
ENDBRANCH  17  19
ENDBRANCH  16  17
ENDBRANCH  15  16
ENDBRANCH   1  15
TORSDOF 6
ENDMDL
MODEL 8
REMARK VINA RESULT:      -6.1      2.480      4.630
REMARK  Name = *****
REMARK                            x       y       z     vdW  Elec       q    Type
REMARK                         _______ _______ _______ _____ _____    ______ ____
ROOT
ATOM      1  C   LIG    1       25.123 -22.862   5.494  0.00  0.00    +0.178 C 
ENDROOT
BRANCH   1   2
ATOM      2  C   LIG    1       25.086 -24.340   5.878  0.00  0.00    -0.014 A 
ATOM      3  C   LIG    1       24.027 -25.153   5.433  0.00  0.00    +0.007 A 
ATOM      4  C   LIG    1       23.993 -26.519   5.735  0.00  0.00    +0.015 A 
ATOM      5  C   LIG    1       25.017 -27.083   6.486  0.00  0.00    +0.018 A 
ATOM      6 BR   LIG    1       24.976 -28.932   6.893  0.00  0.00    -0.050 Br
ATOM      7  C   LIG    1       26.075 -26.300   6.939  0.00  0.00    +0.015 A 
ATOM      8  C   LIG    1       26.110 -24.933   6.630  0.00  0.00    +0.007 A 
ENDBRANCH   1   2
BRANCH   1   9
ATOM      9  C   LIG    1       25.729 -22.004   6.600  0.00  0.00    -0.015 A 
ATOM     10  C   LIG    1       26.672 -21.002   6.309  0.00  0.00    +0.006 A 
ATOM     11  C   LIG    1       27.220 -20.222   7.329  0.00  0.00    +0.000 A 
ATOM     12  C   LIG    1       26.816 -20.417   8.650  0.00  0.00    +0.000 A 
ATOM     13  C   LIG    1       25.882 -21.399   8.951  0.00  0.00    +0.000 A 
ATOM     14  C   LIG    1       25.340 -22.194   7.937  0.00  0.00    +0.006 A 
ENDBRANCH   1   9
BRANCH   1  15
ATOM     15  O   LIG    1       23.797 -22.417   5.131  0.00  0.00    -0.366 OA
BRANCH  15  16
ATOM     16  C   LIG    1       23.142 -21.732   6.205  0.00  0.00    +0.176 C 
BRANCH  16  17
ATOM     17  C   LIG    1       23.082 -20.221   5.922  0.00  0.00    +0.112 C 
BRANCH  17  19
ATOM     18  C   LIG    1       24.259 -19.517   3.903  0.00  0.00    +0.104 C 
ATOM     19  N   LIG    1       22.963 -19.823   4.505  0.00  0.00    -0.306 NA
ATOM     20  C   LIG    1       22.031 -18.712   4.315  0.00  0.00    +0.104 C 
ENDBRANCH  17  19
ENDBRANCH  16  17
ENDBRANCH  15  16
ENDBRANCH   1  15
TORSDOF 6
ENDMDL
MODEL 9
REMARK VINA RESULT:      -6.1      6.487      9.019
REMARK  Name = *****
REMARK                            x       y       z     vdW  Elec       q    Type
REMARK                         _______ _______ _______ _____ _____    ______ ____
ROOT
ATOM      1  C   LIG    1       25.003 -29.492   6.822  0.00  0.00    +0.178 C 
ENDROOT
BRANCH   1   2
ATOM      2  C   LIG    1       25.240 -29.395   8.329  0.00  0.00    -0.014 A 
ATOM      3  C   LIG    1       26.335 -28.659   8.819  0.00  0.00    +0.007 A 
ATOM      4  C   LIG    1       26.550 -28.520  10.195  0.00  0.00    +0.015 A 
ATOM      5  C   LIG    1       25.672 -29.117  11.091  0.00  0.00    +0.018 A 
ATOM      6 BR   LIG    1       25.958 -28.926  12.954  0.00  0.00    -0.050 Br
ATOM      7  C   LIG    1       24.583 -29.851  10.632  0.00  0.00    +0.015 A 
ATOM      8  C   LIG    1       24.366 -29.984   9.253  0.00  0.00    +0.007 A 
ENDBRANCH   1   2
BRANCH   1   9
ATOM      9  C   LIG    1       25.030 -28.122   6.155  0.00  0.00    -0.015 A 
ATOM     10  C   LIG    1       24.185 -27.084   6.589  0.00  0.00    +0.006 A 
ATOM     11  C   LIG    1       24.219 -25.832   5.972  0.00  0.00    +0.000 A 
ATOM     12  C   LIG    1       25.114 -25.593   4.929  0.00  0.00    +0.000 A 
ATOM     13  C   LIG    1       25.958 -26.607   4.493  0.00  0.00    +0.000 A 
ATOM     14  C   LIG    1       25.919 -27.867   5.096  0.00  0.00    +0.006 A 
ENDBRANCH   1   9
BRANCH   1  15
ATOM     15  O   LIG    1       23.766 -30.194   6.566  0.00  0.00    -0.366 OA
BRANCH  15  16
ATOM     16  C   LIG    1       23.987 -31.525   6.085  0.00  0.00    +0.176 C 
BRANCH  16  17
ATOM     17  C   LIG    1       25.339 -31.615   5.355  0.00  0.00    +0.112 C 
BRANCH  17  19
ATOM     18  C   LIG    1       27.122 -32.528   6.749  0.00  0.00    +0.104 C 
ATOM     19  N   LIG    1       26.176 -32.791   5.667  0.00  0.00    -0.306 NA
ATOM     20  C   LIG    1       26.870 -33.309   4.489  0.00  0.00    +0.104 C 
ENDBRANCH  17  19
ENDBRANCH  16  17
ENDBRANCH  15  16
ENDBRANCH   1  15
TORSDOF 6
ENDMDL
