MODEL 1
REMARK VINA RESULT:      -6.9      0.000      0.000
REMARK  Name = *****
REMARK                            x       y       z     vdW  Elec       q    Type
REMARK                         _______ _______ _______ _____ _____    ______ ____
ROOT
ATOM      1  C   LIG    1       23.910 -22.341   6.261  0.00  0.00    +0.161 C 
ENDROOT
BRANCH   1   2
ATOM      2  C   LIG    1       23.744 -21.084   5.429  0.00  0.00    -0.018 A 
ATOM      3  C   LIG    1       22.591 -20.290   5.531  0.00  0.00    +0.006 A 
ATOM      4  C   LIG    1       22.442 -19.152   4.737  0.00  0.00    +0.000 A 
ATOM      5  C   LIG    1       23.443 -18.789   3.841  0.00  0.00    +0.000 A 
ATOM      6  C   LIG    1       24.599 -19.560   3.739  0.00  0.00    +0.000 A 
ATOM      7  C   LIG    1       24.750 -20.700   4.529  0.00  0.00    +0.006 A 
ENDBRANCH   1   2
BRANCH   1   8
ATOM      8  C   LIG    1       25.130 -23.229   5.854  0.00  0.00    +0.083 C 
ATOM      9  C   LIG    1       25.763 -23.955   7.046  0.00  0.00    +0.027 C 
BRANCH   8  11
ATOM     10  C   LIG    1       25.189 -25.548   4.983  0.00  0.00    +0.101 C 
ATOM     11  N   LIG    1       24.821 -24.160   4.737  0.00  0.00    -0.314 NA
ATOM     12  H   LIG    1       23.804 -24.120   4.609  0.00  0.00    +0.122 HD
ENDBRANCH   8  11
ENDBRANCH   1   8
BRANCH   1  13
ATOM     13  O   LIG    1       22.710 -23.126   6.172  0.00  0.00    -0.386 OA
ATOM     14  H   LIG    1       22.403 -23.074   5.250  0.00  0.00    +0.210 HD
ENDBRANCH   1  13
TORSDOF 4
ENDMDL
MODEL 2
REMARK VINA RESULT:      -6.8      0.029      1.394
REMARK  Name = *****
REMARK                            x       y       z     vdW  Elec       q    Type
REMARK                         _______ _______ _______ _____ _____    ______ ____
ROOT
ATOM      1  C   LIG    1       23.925 -22.333   6.247  0.00  0.00    +0.161 C 
ENDROOT
BRANCH   1   2
ATOM      2  C   LIG    1       23.757 -21.092   5.392  0.00  0.00    -0.018 A 
ATOM      3  C   LIG    1       24.760 -20.681   4.500  0.00  0.00    +0.006 A 
ATOM      4  C   LIG    1       24.602 -19.521   3.741  0.00  0.00    +0.000 A 
ATOM      5  C   LIG    1       23.439 -18.763   3.857  0.00  0.00    +0.000 A 
ATOM      6  C   LIG    1       22.430 -19.166   4.728  0.00  0.00    +0.000 A 
ATOM      7  C   LIG    1       22.586 -20.324   5.491  0.00  0.00    +0.006 A 
ENDBRANCH   1   2
BRANCH   1   8
ATOM      8  C   LIG    1       25.134 -23.237   5.845  0.00  0.00    +0.083 C 
ATOM      9  C   LIG    1       25.756 -23.967   7.039  0.00  0.00    +0.027 C 
BRANCH   8  11
ATOM     10  C   LIG    1       25.189 -25.554   4.969  0.00  0.00    +0.101 C 
ATOM     11  N   LIG    1       24.816 -24.166   4.729  0.00  0.00    -0.314 NA
ATOM     12  H   LIG    1       23.798 -24.128   4.610  0.00  0.00    +0.122 HD
ENDBRANCH   8  11
ENDBRANCH   1   8
BRANCH   1  13
ATOM     13  O   LIG    1       22.718 -23.112   6.186  0.00  0.00    -0.386 OA
ATOM     14  H   LIG    1       22.983 -24.048   6.209  0.00  0.00    +0.210 HD
ENDBRANCH   1  13
TORSDOF 4
ENDMDL
MODEL 3
REMARK VINA RESULT:      -6.7      3.529      5.088
REMARK  Name = *****
REMARK                            x       y       z     vdW  Elec       q    Type
REMARK                         _______ _______ _______ _____ _____    ______ ____
ROOT
ATOM      1  C   LIG    1       25.835 -20.757   7.958  0.00  0.00    +0.161 C 
ENDROOT
BRANCH   1   2
ATOM      2  C   LIG    1       25.074 -21.989   7.505  0.00  0.00    -0.018 A 
ATOM      3  C   LIG    1       25.736 -23.199   7.244  0.00  0.00    +0.006 A 
ATOM      4  C   LIG    1       25.025 -24.314   6.800  0.00  0.00    +0.000 A 
ATOM      5  C   LIG    1       23.646 -24.238   6.620  0.00  0.00    +0.000 A 
ATOM      6  C   LIG    1       22.974 -23.048   6.888  0.00  0.00    +0.000 A 
ATOM      7  C   LIG    1       23.683 -21.929   7.330  0.00  0.00    +0.006 A 
ENDBRANCH   1   2
BRANCH   1   8
ATOM      8  C   LIG    1       27.302 -20.673   7.430  0.00  0.00    +0.083 C 
ATOM      9  C   LIG    1       27.392 -20.108   6.008  0.00  0.00    +0.027 C 
BRANCH   8  11
ATOM     10  C   LIG    1       29.463 -19.510   7.771  0.00  0.00    +0.101 C 
ATOM     11  N   LIG    1       28.215 -19.968   8.366  0.00  0.00    -0.314 NA
ATOM     12  H   LIG    1       27.701 -19.144   8.696  0.00  0.00    +0.122 HD
ENDBRANCH   8  11
ENDBRANCH   1   8
BRANCH   1  13
ATOM     13  O   LIG    1       25.852 -20.719   9.395  0.00  0.00    -0.386 OA
ATOM     14  H   LIG    1       24.968 -20.433   9.683  0.00  0.00    +0.210 HD
ENDBRANCH   1  13
TORSDOF 4
ENDMDL
MODEL 4
REMARK VINA RESULT:      -6.6      2.636      4.645
REMARK  Name = *****
REMARK                            x       y       z     vdW  Elec       q    Type
REMARK                         _______ _______ _______ _____ _____    ______ ____
ROOT
ATOM      1  C   LIG    1       25.376 -21.006   7.917  0.00  0.00    +0.161 C 
ENDROOT
BRANCH   1   2
ATOM      2  C   LIG    1       24.866 -22.351   7.434  0.00  0.00    -0.018 A 
ATOM      3  C   LIG    1       25.732 -23.445   7.278  0.00  0.00    +0.006 A 
ATOM      4  C   LIG    1       25.252 -24.667   6.805  0.00  0.00    +0.000 A 
ATOM      5  C   LIG    1       23.904 -24.814   6.491  0.00  0.00    +0.000 A 
ATOM      6  C   LIG    1       23.030 -23.741   6.654  0.00  0.00    +0.000 A 
ATOM      7  C   LIG    1       23.508 -22.516   7.124  0.00  0.00    +0.006 A 
ENDBRANCH   1   2
BRANCH   1   8
ATOM      8  C   LIG    1       26.486 -20.374   7.018  0.00  0.00    +0.083 C 
ATOM      9  C   LIG    1       27.888 -20.506   7.621  0.00  0.00    +0.027 C 
BRANCH   8  11
ATOM     10  C   LIG    1       25.620 -20.049   4.719  0.00  0.00    +0.101 C 
ATOM     11  N   LIG    1       26.438 -20.858   5.613  0.00  0.00    -0.314 NA
ATOM     12  H   LIG    1       27.404 -20.829   5.271  0.00  0.00    +0.122 HD
ENDBRANCH   8  11
ENDBRANCH   1   8
BRANCH   1  13
ATOM     13  O   LIG    1       25.882 -21.149   9.254  0.00  0.00    -0.386 OA
ATOM     14  H   LIG    1       26.331 -20.315   9.479  0.00  0.00    +0.210 HD
ENDBRANCH   1  13
TORSDOF 4
ENDMDL
MODEL 5
REMARK VINA RESULT:      -6.5      7.804      8.619
REMARK  Name = *****
REMARK                            x       y       z     vdW  Elec       q    Type
REMARK                         _______ _______ _______ _____ _____    ______ ____
ROOT
ATOM      1  C   LIG    1       30.812 -18.868   9.147  0.00  0.00    +0.161 C 
ENDROOT
BRANCH   1   2
ATOM      2  C   LIG    1       29.980 -19.271   7.945  0.00  0.00    -0.018 A 
ATOM      3  C   LIG    1       29.893 -18.449   6.811  0.00  0.00    +0.006 A 
ATOM      4  C   LIG    1       29.100 -18.822   5.725  0.00  0.00    +0.000 A 
ATOM      5  C   LIG    1       28.393 -20.021   5.754  0.00  0.00    +0.000 A 
ATOM      6  C   LIG    1       28.480 -20.853   6.868  0.00  0.00    +0.000 A 
ATOM      7  C   LIG    1       29.270 -20.482   7.957  0.00  0.00    +0.006 A 
ENDBRANCH   1   2
BRANCH   1   8
ATOM      8  C   LIG    1       30.991 -17.326   9.321  0.00  0.00    +0.083 C 
ATOM      9  C   LIG    1       30.649 -16.842  10.735  0.00  0.00    +0.027 C 
BRANCH   8  11
ATOM     10  C   LIG    1       32.972 -15.914   9.792  0.00  0.00    +0.101 C 
ATOM     11  N   LIG    1       32.324 -16.844   8.876  0.00  0.00    -0.314 NA
ATOM     12  H   LIG    1       32.916 -17.678   8.801  0.00  0.00    +0.122 HD
ENDBRANCH   8  11
ENDBRANCH   1   8
BRANCH   1  13
ATOM     13  O   LIG    1       32.108 -19.481   9.048  0.00  0.00    -0.386 OA
ATOM     14  H   LIG    1       31.997 -20.420   9.277  0.00  0.00    +0.210 HD
ENDBRANCH   1  13
TORSDOF 4
ENDMDL
MODEL 6
REMARK VINA RESULT:      -6.5      2.401      3.061
REMARK  Name = *****
REMARK                            x       y       z     vdW  Elec       q    Type
REMARK                         _______ _______ _______ _____ _____    ______ ____
ROOT
ATOM      1  C   LIG    1       25.079 -21.612   6.513  0.00  0.00    +0.161 C 
ENDROOT
BRANCH   1   2
ATOM      2  C   LIG    1       24.368 -20.635   5.597  0.00  0.00    -0.018 A 
ATOM      3  C   LIG    1       25.000 -20.113   4.457  0.00  0.00    +0.006 A 
ATOM      4  C   LIG    1       24.341 -19.194   3.639  0.00  0.00    +0.000 A 
ATOM      5  C   LIG    1       23.043 -18.792   3.944  0.00  0.00    +0.000 A 
ATOM      6  C   LIG    1       22.399 -19.312   5.065  0.00  0.00    +0.000 A 
ATOM      7  C   LIG    1       23.056 -20.229   5.886  0.00  0.00    +0.006 A 
ENDBRANCH   1   2
BRANCH   1   8
ATOM      8  C   LIG    1       26.303 -21.009   7.276  0.00  0.00    +0.083 C 
ATOM      9  C   LIG    1       25.967 -20.602   8.714  0.00  0.00    +0.027 C 
BRANCH   8  11
ATOM     10  C   LIG    1       28.775 -21.153   7.196  0.00  0.00    +0.101 C 
ATOM     11  N   LIG    1       27.509 -21.874   7.210  0.00  0.00    -0.314 NA
ATOM     12  H   LIG    1       27.486 -22.456   8.054  0.00  0.00    +0.122 HD
ENDBRANCH   8  11
ENDBRANCH   1   8
BRANCH   1  13
ATOM     13  O   LIG    1       25.520 -22.743   5.744  0.00  0.00    -0.386 OA
ATOM     14  H   LIG    1       24.731 -23.119   5.314  0.00  0.00    +0.210 HD
ENDBRANCH   1  13
TORSDOF 4
ENDMDL
MODEL 7
REMARK VINA RESULT:      -6.4      1.858      2.379
REMARK  Name = *****
REMARK                            x       y       z     vdW  Elec       q    Type
REMARK                         _______ _______ _______ _____ _____    ______ ____
ROOT
ATOM      1  C   LIG    1       23.540 -22.245   6.510  0.00  0.00    +0.161 C 
ENDROOT
BRANCH   1   2
ATOM      2  C   LIG    1       23.594 -21.083   5.537  0.00  0.00    -0.018 A 
ATOM      3  C   LIG    1       22.617 -20.075   5.552  0.00  0.00    +0.006 A 
ATOM      4  C   LIG    1       22.665 -19.027   4.632  0.00  0.00    +0.000 A 
ATOM      5  C   LIG    1       23.692 -18.969   3.693  0.00  0.00    +0.000 A 
ATOM      6  C   LIG    1       24.676 -19.954   3.675  0.00  0.00    +0.000 A 
ATOM      7  C   LIG    1       24.629 -21.005   4.593  0.00  0.00    +0.006 A 
ENDBRANCH   1   2
BRANCH   1   8
ATOM      8  C   LIG    1       24.592 -22.172   7.663  0.00  0.00    +0.083 C 
ATOM      9  C   LIG    1       25.859 -22.981   7.366  0.00  0.00    +0.027 C 
BRANCH   8  11
ATOM     10  C   LIG    1       26.322 -20.511   8.286  0.00  0.00    +0.101 C 
ATOM     11  N   LIG    1       24.907 -20.778   8.072  0.00  0.00    -0.314 NA
ATOM     12  H   LIG    1       24.585 -20.178   7.304  0.00  0.00    +0.122 HD
ENDBRANCH   8  11
ENDBRANCH   1   8
BRANCH   1  13
ATOM     13  O   LIG    1       23.725 -23.473   5.787  0.00  0.00    -0.386 OA
ATOM     14  H   LIG    1       23.042 -24.092   6.097  0.00  0.00    +0.210 HD
ENDBRANCH   1  13
TORSDOF 4
ENDMDL
MODEL 8
REMARK VINA RESULT:      -6.4      1.851      2.741
REMARK  Name = *****
REMARK                            x       y       z     vdW  Elec       q    Type
REMARK                         _______ _______ _______ _____ _____    ______ ____
ROOT
ATOM      1  C   LIG    1       23.610 -22.309   6.448  0.00  0.00    +0.161 C 
ENDROOT
BRANCH   1   2
ATOM      2  C   LIG    1       23.645 -21.140   5.483  0.00  0.00    -0.018 A 
ATOM      3  C   LIG    1       24.693 -20.987   4.562  0.00  0.00    +0.006 A 
ATOM      4  C   LIG    1       24.724 -19.890   3.700  0.00  0.00    +0.000 A 
ATOM      5  C   LIG    1       23.708 -18.940   3.740  0.00  0.00    +0.000 A 
ATOM      6  C   LIG    1       22.654 -19.086   4.640  0.00  0.00    +0.000 A 
ATOM      7  C   LIG    1       22.621 -20.180   5.505  0.00  0.00    +0.006 A 
ENDBRANCH   1   2
BRANCH   1   8
ATOM      8  C   LIG    1       24.637 -22.209   7.621  0.00  0.00    +0.083 C 
ATOM      9  C   LIG    1       25.934 -22.977   7.344  0.00  0.00    +0.027 C 
BRANCH   8  11
ATOM     10  C   LIG    1       26.308 -20.477   8.209  0.00  0.00    +0.101 C 
ATOM     11  N   LIG    1       24.900 -20.809   8.044  0.00  0.00    -0.314 NA
ATOM     12  H   LIG    1       24.519 -20.213   7.301  0.00  0.00    +0.122 HD
ENDBRANCH   8  11
ENDBRANCH   1   8
BRANCH   1  13
ATOM     13  O   LIG    1       23.846 -23.526   5.722  0.00  0.00    -0.386 OA
ATOM     14  H   LIG    1       23.891 -24.244   6.376  0.00  0.00    +0.210 HD
ENDBRANCH   1  13
TORSDOF 4
ENDMDL
MODEL 9
REMARK VINA RESULT:      -6.4      2.422      2.774
REMARK  Name = *****
REMARK                            x       y       z     vdW  Elec       q    Type
REMARK                         _______ _______ _______ _____ _____    ______ ____
ROOT
ATOM      1  C   LIG    1       25.078 -21.495   6.381  0.00  0.00    +0.161 C 
ENDROOT
BRANCH   1   2
ATOM      2  C   LIG    1       24.326 -20.510   5.507  0.00  0.00    -0.018 A 
ATOM      3  C   LIG    1       22.997 -20.153   5.787  0.00  0.00    +0.006 A 
ATOM      4  C   LIG    1       22.311 -19.267   4.956  0.00  0.00    +0.000 A 
ATOM      5  C   LIG    1       22.943 -18.720   3.843  0.00  0.00    +0.000 A 
ATOM      6  C   LIG    1       24.266 -19.055   3.560  0.00  0.00    +0.000 A 
ATOM      7  C   LIG    1       24.954 -19.943   4.388  0.00  0.00    +0.006 A 
ENDBRANCH   1   2
BRANCH   1   8
ATOM      8  C   LIG    1       26.265 -20.872   7.182  0.00  0.00    +0.083 C 
ATOM      9  C   LIG    1       26.069 -20.953   8.700  0.00  0.00    +0.027 C 
BRANCH   8  11
ATOM     10  C   LIG    1       28.520 -20.400   6.271  0.00  0.00    +0.101 C 
ATOM     11  N   LIG    1       27.588 -21.404   6.764  0.00  0.00    -0.314 NA
ATOM     12  H   LIG    1       27.998 -21.833   7.601  0.00  0.00    +0.122 HD
ENDBRANCH   8  11
ENDBRANCH   1   8
BRANCH   1  13
ATOM     13  O   LIG    1       25.577 -22.565   5.562  0.00  0.00    -0.386 OA
ATOM     14  H   LIG    1       24.830 -22.885   5.026  0.00  0.00    +0.210 HD
ENDBRANCH   1  13
TORSDOF 4
ENDMDL
