MODEL 1
REMARK VINA RESULT:      21.1      0.000      0.000
REMARK  Name = *****
REMARK                            x       y       z     vdW  Elec       q    Type
REMARK                         _______ _______ _______ _____ _____    ______ ____
ROOT
ATOM      1  CA  LIG    1       27.262 -18.124   3.727  0.00  0.00    +0.191 C 
ENDROOT
BRANCH   1   2
ATOM      2  N   LIG    1       25.877 -18.649   3.669  0.00  0.00    -0.284 N 
ATOM      3  H   LIG    1       25.191 -18.106   3.154  0.00  0.00    +0.151 HD
ATOM      4  C   LIG    1       25.447 -19.755   4.352  0.00  0.00    +0.311 C 
ATOM      5  N   LIG    1       24.085 -20.001   4.303  0.00  0.00    -0.207 N 
ATOM      6  C   LIG    1       23.095 -19.317   3.611  0.00  0.00    +0.331 C 
ATOM      7  O   LIG    1       23.262 -18.375   2.846  0.00  0.00    -0.250 OA
ATOM      8  N   LIG    1       21.864 -19.918   3.910  0.00  0.00    -0.158 N 
ATOM      9  C   LIG    1       21.993 -20.870   5.027  0.00  0.00    +0.155 C 
ATOM     10  C   LIG    1       23.494 -21.144   4.994  0.00  0.00    +0.140 C 
ATOM     11  O   LIG    1       26.216 -20.489   4.959  0.00  0.00    -0.252 OA
BRANCH   8  12
ATOM     12  S   LIG    1       20.372 -19.215   3.652  0.00  0.00    +0.046 S 
ATOM     13  O   LIG    1       19.350 -20.174   4.022  0.00  0.00    -0.155 OA
ATOM     14  O   LIG    1       20.386 -18.624   2.334  0.00  0.00    -0.155 OA
ATOM     15  C   LIG    1       20.374 -17.879   4.829  0.00  0.00    +0.218 C 
ENDBRANCH   8  12
ENDBRANCH   1   2
BRANCH   1  16
ATOM     16  C   LIG    1       28.066 -18.747   4.869  0.00  0.00    -0.018 A 
ATOM     17  C   LIG    1       28.704 -17.959   5.841  0.00  0.00    +0.006 A 
ATOM     18  C   LIG    1       29.392 -18.542   6.909  0.00  0.00    +0.000 A 
ATOM     19  C   LIG    1       29.465 -19.926   7.024  0.00  0.00    +0.000 A 
ATOM     20  C   LIG    1       28.876 -20.731   6.052  0.00  0.00    +0.000 A 
ATOM     21  C   LIG    1       28.195 -20.147   4.974  0.00  0.00    +0.006 A 
ENDBRANCH   1  16
BRANCH   1  24
ATOM     22  N   LIG    1       26.006 -15.993   3.629  0.00  0.00    -0.300 N 
ATOM     23  H   LIG    1       25.215 -16.626   3.553  0.00  0.00    +0.150 HD
ATOM     24  C   LIG    1       27.257 -16.568   3.777  0.00  0.00    +0.239 C 
ATOM     25  O   LIG    1       28.271 -15.873   3.805  0.00  0.00    -0.273 OA
BRANCH  22  31
ATOM     26  C   LIG    1       23.421 -15.573   6.743  0.00  0.00    +0.025 C 
ATOM     27  C   LIG    1       22.789 -14.549   5.784  0.00  0.00    +0.042 C 
ATOM     28  CA  LIG    1       23.535 -13.189   5.839  0.00  0.00    +0.201 C 
ATOM     29  N   LIG    1       24.591 -13.223   4.814  0.00  0.00    -0.271 N 
ATOM     30  C   LIG    1       24.335 -14.026   3.605  0.00  0.00    +0.165 C 
ATOM     31  CA  LIG    1       25.803 -14.525   3.682  0.00  0.00    +0.190 C 
ATOM     32  C   LIG    1       25.781 -13.862   5.091  0.00  0.00    +0.240 C 
ATOM     33  O   LIG    1       26.369 -13.955   6.141  0.00  0.00    -0.273 OA
ATOM     34  S   LIG    1       23.014 -15.215   4.061  0.00  0.00    -0.127 S 
ATOM     35  C   LIG    1       21.287 -14.487   6.089  0.00  0.00    +0.025 C 
BRANCH  28  36
ATOM     36  C   LIG    1       22.659 -11.944   5.610  0.00  0.00    +0.327 C 
ATOM     37  O   LIG    1       22.432 -11.447   4.517  0.00  0.00    -0.249 OA
BRANCH  36  38
ATOM     38  OXT LIG    1       22.104 -11.447   6.743  0.00  0.00    -0.479 OA
ATOM     39  HXT LIG    1       21.961 -10.482   6.656  0.00  0.00    +0.295 HD
ENDBRANCH  36  38
ENDBRANCH  28  36
ENDBRANCH  22  31
ENDBRANCH   1  24
TORSDOF 7
ENDMDL
MODEL 2
REMARK VINA RESULT:      23.9      2.853      6.141
REMARK  Name = *****
REMARK                            x       y       z     vdW  Elec       q    Type
REMARK                         _______ _______ _______ _____ _____    ______ ____
ROOT
ATOM      1  CA  LIG    1       22.291 -17.006   4.785  0.00  0.00    +0.191 C 
ENDROOT
BRANCH   1   2
ATOM      2  N   LIG    1       23.446 -17.846   5.181  0.00  0.00    -0.284 N 
ATOM      3  H   LIG    1       24.324 -17.374   5.373  0.00  0.00    +0.151 HD
ATOM      4  C   LIG    1       23.429 -19.215   5.196  0.00  0.00    +0.311 C 
ATOM      5  N   LIG    1       24.647 -19.829   5.437  0.00  0.00    -0.207 N 
ATOM      6  C   LIG    1       25.877 -19.254   5.723  0.00  0.00    +0.331 C 
ATOM      7  O   LIG    1       26.103 -18.060   5.877  0.00  0.00    -0.250 OA
ATOM      8  N   LIG    1       26.820 -20.286   5.846  0.00  0.00    -0.158 N 
ATOM      9  C   LIG    1       26.267 -21.570   5.381  0.00  0.00    +0.155 C 
ATOM     10  C   LIG    1       24.770 -21.284   5.473  0.00  0.00    +0.140 C 
ATOM     11  O   LIG    1       22.403 -19.859   5.020  0.00  0.00    -0.252 OA
BRANCH   8  12
ATOM     12  S   LIG    1       28.474 -20.078   5.778  0.00  0.00    +0.046 S 
ATOM     13  O   LIG    1       28.805 -19.501   4.490  0.00  0.00    -0.155 OA
ATOM     14  O   LIG    1       29.091 -21.309   6.214  0.00  0.00    -0.155 OA
ATOM     15  C   LIG    1       28.756 -18.866   7.051  0.00  0.00    +0.218 C 
ENDBRANCH   8  12
ENDBRANCH   1   2
BRANCH   1  16
ATOM     16  C   LIG    1       21.232 -17.805   4.024  0.00  0.00    -0.018 A 
ATOM     17  C   LIG    1       20.471 -17.232   2.993  0.00  0.00    +0.006 A 
ATOM     18  C   LIG    1       19.543 -17.988   2.270  0.00  0.00    +0.000 A 
ATOM     19  C   LIG    1       19.350 -19.333   2.568  0.00  0.00    +0.000 A 
ATOM     20  C   LIG    1       20.063 -19.916   3.613  0.00  0.00    +0.000 A 
ATOM     21  C   LIG    1       20.985 -19.155   4.346  0.00  0.00    +0.006 A 
ENDBRANCH   1  16
BRANCH   1  24
ATOM     22  N   LIG    1       23.552 -14.876   4.742  0.00  0.00    -0.300 N 
ATOM     23  H   LIG    1       23.779 -15.155   5.692  0.00  0.00    +0.150 HD
ATOM     24  C   LIG    1       22.769 -15.748   4.003  0.00  0.00    +0.239 C 
ATOM     25  O   LIG    1       22.391 -15.451   2.871  0.00  0.00    -0.273 OA
BRANCH  22  31
ATOM     26  C   LIG    1       27.323 -16.037   3.750  0.00  0.00    +0.025 C 
ATOM     27  C   LIG    1       27.654 -14.643   4.313  0.00  0.00    +0.042 C 
ATOM     28  CA  LIG    1       27.404 -13.534   3.256  0.00  0.00    +0.201 C 
ATOM     29  N   LIG    1       26.017 -13.069   3.424  0.00  0.00    -0.271 N 
ATOM     30  C   LIG    1       25.445 -13.123   4.781  0.00  0.00    +0.165 C 
ATOM     31  CA  LIG    1       24.123 -13.641   4.153  0.00  0.00    +0.190 C 
ATOM     32  C   LIG    1       24.988 -13.801   2.869  0.00  0.00    +0.240 C 
ATOM     33  O   LIG    1       24.975 -14.443   1.847  0.00  0.00    -0.273 OA
ATOM     34  S   LIG    1       26.467 -14.330   5.710  0.00  0.00    -0.127 S 
ATOM     35  C   LIG    1       29.077 -14.695   4.884  0.00  0.00    +0.025 C 
BRANCH  28  36
ATOM     36  C   LIG    1       28.347 -12.320   3.333  0.00  0.00    +0.327 C 
ATOM     37  O   LIG    1       28.732 -11.678   2.368  0.00  0.00    -0.249 OA
BRANCH  36  38
ATOM     38  OXT LIG    1       28.699 -11.977   4.597  0.00  0.00    -0.479 OA
ATOM     39  HXT LIG    1       28.029 -12.297   5.235  0.00  0.00    +0.295 HD
ENDBRANCH  36  38
ENDBRANCH  28  36
ENDBRANCH  22  31
ENDBRANCH   1  24
TORSDOF 7
ENDMDL
