MODEL 1
REMARK VINA RESULT:      -4.6      0.000      0.000
REMARK  Name = *****
REMARK                            x       y       z     vdW  Elec       q    Type
REMARK                         _______ _______ _______ _____ _____    ______ ____
ROOT
ATOM      1  S   LIG    1       23.180 -20.724   5.368  0.00  0.00    +0.103 S 
ATOM      2  O   LIG    1       23.092 -21.179   3.994  0.00  0.00    -0.146 OA
ATOM      3  O   LIG    1       22.751 -21.571   6.472  0.00  0.00    -0.146 OA
ENDROOT
BRANCH   1   4
ATOM      4  C   LIG    1       24.926 -20.432   5.653  0.00  0.00    +0.113 A 
ATOM      5  C   LIG    1       25.708 -19.887   4.627  0.00  0.00    +0.030 A 
ATOM      6  C   LIG    1       27.082 -19.719   4.828  0.00  0.00    +0.022 A 
ATOM      7  C   LIG    1       27.662 -20.101   6.039  0.00  0.00    +0.041 A 
ATOM      8 CL   LIG    1       29.356 -19.918   6.273  0.00  0.00    -0.084 Cl
ATOM      9  C   LIG    1       26.879 -20.638   7.062  0.00  0.00    +0.022 A 
ATOM     10  C   LIG    1       25.506 -20.803   6.871  0.00  0.00    +0.030 A 
ENDBRANCH   1   4
BRANCH   1  12
ATOM     11  C   LIG    1       22.567 -18.457   4.510  0.00  0.00    +0.298 C 
ATOM     12  N   LIG    1       22.523 -19.249   5.517  0.00  0.00    -0.076 NA
BRANCH  11  13
ATOM     13  N   LIG    1       22.098 -17.180   4.444  0.00  0.00    -0.298 N 
ATOM     14  H   LIG    1       21.089 -17.081   4.416  0.00  0.00    +0.150 HD
BRANCH  13  15
ATOM     15  C   LIG    1       22.773 -16.050   5.063  0.00  0.00    +0.105 C 
BRANCH  15  17
ATOM     16  C   LIG    1       24.287 -14.120   4.429  0.00  0.00    +0.005 C 
ATOM     17  C   LIG    1       23.108 -14.990   4.019  0.00  0.00    +0.015 C 
ENDBRANCH  15  17
ENDBRANCH  13  15
ENDBRANCH  11  13
BRANCH  11  18
ATOM     18  O   LIG    1       23.126 -18.806   3.342  0.00  0.00    -0.481 OA
ATOM     19  H   LIG    1       23.988 -19.220   3.471  0.00  0.00    +0.295 HD
ENDBRANCH  11  18
ENDBRANCH   1  12
TORSDOF 6
ENDMDL
MODEL 2
REMARK VINA RESULT:      -4.3      2.883      5.470
REMARK  Name = *****
REMARK                            x       y       z     vdW  Elec       q    Type
REMARK                         _______ _______ _______ _____ _____    ______ ____
ROOT
ATOM      1  S   LIG    1       24.215 -18.982   3.866  0.00  0.00    +0.103 S 
ATOM      2  O   LIG    1       22.973 -18.950   4.615  0.00  0.00    -0.146 OA
ATOM      3  O   LIG    1       24.264 -19.512   2.510  0.00  0.00    -0.146 OA
ENDROOT
BRANCH   1   4
ATOM      4  C   LIG    1       24.716 -17.267   3.718  0.00  0.00    +0.113 A 
ATOM      5  C   LIG    1       26.028 -16.965   3.333  0.00  0.00    +0.030 A 
ATOM      6  C   LIG    1       26.436 -15.628   3.280  0.00  0.00    +0.022 A 
ATOM      7  C   LIG    1       25.540 -14.612   3.617  0.00  0.00    +0.041 A 
ATOM      8 CL   LIG    1       26.053 -12.970   3.576  0.00  0.00    -0.084 Cl
ATOM      9  C   LIG    1       24.232 -14.915   3.994  0.00  0.00    +0.022 A 
ATOM     10  C   LIG    1       23.816 -16.247   4.045  0.00  0.00    +0.030 A 
ENDBRANCH   1   4
BRANCH   1  12
ATOM     11  C   LIG    1       25.240 -20.845   5.182  0.00  0.00    +0.298 C 
ATOM     12  N   LIG    1       25.396 -19.644   4.760  0.00  0.00    -0.076 NA
BRANCH  11  13
ATOM     13  N   LIG    1       26.097 -21.562   5.960  0.00  0.00    -0.298 N 
ATOM     14  H   LIG    1       26.583 -22.322   5.498  0.00  0.00    +0.150 HD
BRANCH  13  15
ATOM     15  C   LIG    1       26.848 -20.981   7.062  0.00  0.00    +0.105 C 
BRANCH  15  17
ATOM     16  C   LIG    1       28.910 -19.672   6.386  0.00  0.00    +0.005 C 
ATOM     17  C   LIG    1       28.346 -21.031   6.772  0.00  0.00    +0.015 C 
ENDBRANCH  15  17
ENDBRANCH  13  15
ENDBRANCH  11  13
BRANCH  11  18
ATOM     18  O   LIG    1       24.148 -21.572   4.904  0.00  0.00    -0.481 OA
ATOM     19  H   LIG    1       24.292 -22.510   5.082  0.00  0.00    +0.295 HD
ENDBRANCH  11  18
ENDBRANCH   1  12
TORSDOF 6
ENDMDL
MODEL 3
REMARK VINA RESULT:      -3.7      2.536      5.074
REMARK  Name = *****
REMARK                            x       y       z     vdW  Elec       q    Type
REMARK                         _______ _______ _______ _____ _____    ______ ____
ROOT
ATOM      1  S   LIG    1       23.422 -18.915   3.838  0.00  0.00    +0.103 S 
ATOM      2  O   LIG    1       22.031 -18.576   4.073  0.00  0.00    -0.146 OA
ATOM      3  O   LIG    1       23.830 -19.636   2.641  0.00  0.00    -0.146 OA
ENDROOT
BRANCH   1   4
ATOM      4  C   LIG    1       24.277 -17.341   3.753  0.00  0.00    +0.113 A 
ATOM      5  C   LIG    1       25.622 -17.310   3.366  0.00  0.00    +0.030 A 
ATOM      6  C   LIG    1       26.306 -16.090   3.361  0.00  0.00    +0.022 A 
ATOM      7  C   LIG    1       25.648 -14.920   3.747  0.00  0.00    +0.041 A 
ATOM      8 CL   LIG    1       26.499 -13.425   3.766  0.00  0.00    -0.084 Cl
ATOM      9  C   LIG    1       24.306 -14.953   4.125  0.00  0.00    +0.022 A 
ATOM     10  C   LIG    1       23.615 -16.166   4.128  0.00  0.00    +0.030 A 
ENDBRANCH   1   4
BRANCH   1  12
ATOM     11  C   LIG    1       23.689 -20.811   5.445  0.00  0.00    +0.298 C 
ATOM     12  N   LIG    1       24.061 -19.620   5.151  0.00  0.00    -0.076 NA
BRANCH  11  13
ATOM     13  N   LIG    1       24.087 -21.559   6.511  0.00  0.00    -0.298 N 
ATOM     14  H   LIG    1       23.642 -22.465   6.606  0.00  0.00    +0.150 HD
BRANCH  13  15
ATOM     15  C   LIG    1       25.436 -21.519   7.053  0.00  0.00    +0.105 C 
BRANCH  15  17
ATOM     16  C   LIG    1       27.718 -20.467   6.729  0.00  0.00    +0.005 C 
ATOM     17  C   LIG    1       26.376 -20.797   6.092  0.00  0.00    +0.015 C 
ENDBRANCH  15  17
ENDBRANCH  13  15
ENDBRANCH  11  13
BRANCH  11  18
ATOM     18  O   LIG    1       22.804 -21.494   4.704  0.00  0.00    -0.481 OA
ATOM     19  H   LIG    1       23.012 -22.436   4.682  0.00  0.00    +0.295 HD
ENDBRANCH  11  18
ENDBRANCH   1  12
TORSDOF 6
ENDMDL
MODEL 4
REMARK VINA RESULT:      -3.5      3.569      5.917
REMARK  Name = *****
REMARK                            x       y       z     vdW  Elec       q    Type
REMARK                         _______ _______ _______ _____ _____    ______ ____
ROOT
ATOM      1  S   LIG    1       23.617 -15.032   4.210  0.00  0.00    +0.103 S 
ATOM      2  O   LIG    1       23.202 -14.739   5.568  0.00  0.00    -0.146 OA
ATOM      3  O   LIG    1       22.869 -14.527   3.068  0.00  0.00    -0.146 OA
ENDROOT
BRANCH   1   4
ATOM      4  C   LIG    1       25.252 -14.313   4.056  0.00  0.00    +0.113 A 
ATOM      5  C   LIG    1       25.912 -14.364   2.822  0.00  0.00    +0.030 A 
ATOM      6  C   LIG    1       27.213 -13.860   2.720  0.00  0.00    +0.022 A 
ATOM      7  C   LIG    1       27.842 -13.320   3.843  0.00  0.00    +0.041 A 
ATOM      8 CL   LIG    1       29.452 -12.724   3.720  0.00  0.00    -0.084 Cl
ATOM      9  C   LIG    1       27.180 -13.264   5.070  0.00  0.00    +0.022 A 
ATOM     10  C   LIG    1       25.880 -13.761   5.179  0.00  0.00    +0.030 A 
ENDBRANCH   1   4
BRANCH   1  12
ATOM     11  C   LIG    1       22.906 -17.429   4.206  0.00  0.00    +0.298 C 
ATOM     12  N   LIG    1       23.887 -16.622   4.033  0.00  0.00    -0.076 NA
BRANCH  11  13
ATOM     13  N   LIG    1       22.933 -18.788   4.128  0.00  0.00    -0.298 N 
ATOM     14  H   LIG    1       23.725 -19.187   3.635  0.00  0.00    +0.150 HD
BRANCH  13  15
ATOM     15  C   LIG    1       22.403 -19.657   5.167  0.00  0.00    +0.105 C 
BRANCH  15  17
ATOM     16  C   LIG    1       23.609 -20.831   7.062  0.00  0.00    +0.005 C 
ATOM     17  C   LIG    1       23.432 -20.715   5.555  0.00  0.00    +0.015 C 
ENDBRANCH  15  17
ENDBRANCH  13  15
ENDBRANCH  11  13
BRANCH  11  18
ATOM     18  O   LIG    1       21.670 -17.008   4.515  0.00  0.00    -0.481 OA
ATOM     19  H   LIG    1       21.381 -16.297   3.930  0.00  0.00    +0.295 HD
ENDBRANCH  11  18
ENDBRANCH   1  12
TORSDOF 6
ENDMDL
MODEL 5
REMARK VINA RESULT:      -3.4      3.482      5.666
REMARK  Name = *****
REMARK                            x       y       z     vdW  Elec       q    Type
REMARK                         _______ _______ _______ _____ _____    ______ ____
ROOT
ATOM      1  S   LIG    1       26.093 -17.913   3.532  0.00  0.00    +0.103 S 
ATOM      2  O   LIG    1       25.982 -18.347   2.152  0.00  0.00    -0.146 OA
ATOM      3  O   LIG    1       27.388 -17.832   4.193  0.00  0.00    -0.146 OA
ENDROOT
BRANCH   1   4
ATOM      4  C   LIG    1       25.451 -16.240   3.549  0.00  0.00    +0.113 A 
ATOM      5  C   LIG    1       26.272 -15.184   3.134  0.00  0.00    +0.030 A 
ATOM      6  C   LIG    1       25.791 -13.872   3.208  0.00  0.00    +0.022 A 
ATOM      7  C   LIG    1       24.507 -13.627   3.700  0.00  0.00    +0.041 A 
ATOM      8 CL   LIG    1       23.929 -12.010   3.815  0.00  0.00    -0.084 Cl
ATOM      9  C   LIG    1       23.689 -14.681   4.107  0.00  0.00    +0.022 A 
ATOM     10  C   LIG    1       24.160 -15.993   4.030  0.00  0.00    +0.030 A 
ENDBRANCH   1   4
BRANCH   1  12
ATOM     11  C   LIG    1       25.343 -19.928   4.808  0.00  0.00    +0.298 C 
ATOM     12  N   LIG    1       25.047 -18.728   4.465  0.00  0.00    -0.076 NA
BRANCH  11  13
ATOM     13  N   LIG    1       24.591 -20.779   5.561  0.00  0.00    -0.298 N 
ATOM     14  H   LIG    1       25.109 -21.416   6.156  0.00  0.00    +0.150 HD
BRANCH  13  15
ATOM     15  C   LIG    1       23.281 -20.431   6.087  0.00  0.00    +0.105 C 
BRANCH  15  17
ATOM     16  C   LIG    1       21.842 -19.133   4.455  0.00  0.00    +0.005 C 
ATOM     17  C   LIG    1       22.226 -20.506   4.987  0.00  0.00    +0.015 C 
ENDBRANCH  15  17
ENDBRANCH  13  15
ENDBRANCH  11  13
BRANCH  11  18
ATOM     18  O   LIG    1       26.483 -20.525   4.433  0.00  0.00    -0.481 OA
ATOM     19  H   LIG    1       26.853 -21.061   5.145  0.00  0.00    +0.295 HD
ENDBRANCH  11  18
ENDBRANCH   1  12
TORSDOF 6
ENDMDL
MODEL 6
REMARK VINA RESULT:      -3.3      3.826      4.798
REMARK  Name = *****
REMARK                            x       y       z     vdW  Elec       q    Type
REMARK                         _______ _______ _______ _____ _____    ______ ____
ROOT
ATOM      1  S   LIG    1       26.099 -18.049   3.400  0.00  0.00    +0.103 S 
ATOM      2  O   LIG    1       27.097 -18.154   4.447  0.00  0.00    -0.146 OA
ATOM      3  O   LIG    1       26.370 -18.524   2.050  0.00  0.00    -0.146 OA
ENDROOT
BRANCH   1   4
ATOM      4  C   LIG    1       24.715 -19.033   3.974  0.00  0.00    +0.113 A 
ATOM      5  C   LIG    1       24.914 -20.384   4.284  0.00  0.00    +0.030 A 
ATOM      6  C   LIG    1       23.820 -21.166   4.671  0.00  0.00    +0.022 A 
ATOM      7  C   LIG    1       22.546 -20.600   4.737  0.00  0.00    +0.041 A 
ATOM      8 CL   LIG    1       21.199 -21.572   5.187  0.00  0.00    -0.084 Cl
ATOM      9  C   LIG    1       22.352 -19.253   4.433  0.00  0.00    +0.022 A 
ATOM     10  C   LIG    1       23.439 -18.464   4.052  0.00  0.00    +0.030 A 
ENDBRANCH   1   4
BRANCH   1  12
ATOM     11  C   LIG    1       26.299 -15.559   3.501  0.00  0.00    +0.298 C 
ATOM     12  N   LIG    1       25.495 -16.545   3.344  0.00  0.00    -0.076 NA
BRANCH  11  13
ATOM     13  N   LIG    1       25.986 -14.234   3.513  0.00  0.00    -0.298 N 
ATOM     14  H   LIG    1       26.152 -13.748   4.387  0.00  0.00    +0.150 HD
BRANCH  13  15
ATOM     15  C   LIG    1       26.106 -13.377   2.344  0.00  0.00    +0.105 C 
BRANCH  15  17
ATOM     16  C   LIG    1       23.928 -12.588   3.369  0.00  0.00    +0.005 C 
ATOM     17  C   LIG    1       24.832 -12.560   2.146  0.00  0.00    +0.015 C 
ENDBRANCH  15  17
ENDBRANCH  13  15
ENDBRANCH  11  13
BRANCH  11  18
ATOM     18  O   LIG    1       27.615 -15.726   3.698  0.00  0.00    -0.481 OA
ATOM     19  H   LIG    1       27.795 -16.479   4.274  0.00  0.00    +0.295 HD
ENDBRANCH  11  18
ENDBRANCH   1  12
TORSDOF 6
ENDMDL
MODEL 7
REMARK VINA RESULT:      -3.3      3.504      5.743
REMARK  Name = *****
REMARK                            x       y       z     vdW  Elec       q    Type
REMARK                         _______ _______ _______ _____ _____    ______ ____
ROOT
ATOM      1  S   LIG    1       26.110 -17.874   3.534  0.00  0.00    +0.103 S 
ATOM      2  O   LIG    1       25.990 -18.283   2.147  0.00  0.00    -0.146 OA
ATOM      3  O   LIG    1       27.404 -17.840   4.200  0.00  0.00    -0.146 OA
ENDROOT
BRANCH   1   4
ATOM      4  C   LIG    1       25.515 -16.184   3.575  0.00  0.00    +0.113 A 
ATOM      5  C   LIG    1       24.223 -15.921   4.049  0.00  0.00    +0.030 A 
ATOM      6  C   LIG    1       23.737 -14.610   4.021  0.00  0.00    +0.022 A 
ATOM      7  C   LIG    1       24.535 -13.580   3.517  0.00  0.00    +0.041 A 
ATOM      8 CL   LIG    1       23.924 -11.973   3.461  0.00  0.00    -0.084 Cl
ATOM      9  C   LIG    1       25.823 -13.844   3.053  0.00  0.00    +0.022 A 
ATOM     10  C   LIG    1       26.318 -15.149   3.082  0.00  0.00    +0.030 A 
ENDBRANCH   1   4
BRANCH   1  12
ATOM     11  C   LIG    1       25.301 -19.885   4.780  0.00  0.00    +0.298 C 
ATOM     12  N   LIG    1       25.038 -18.674   4.452  0.00  0.00    -0.076 NA
BRANCH  11  13
ATOM     13  N   LIG    1       24.524 -20.726   5.518  0.00  0.00    -0.298 N 
ATOM     14  H   LIG    1       25.021 -21.382   6.110  0.00  0.00    +0.150 HD
BRANCH  13  15
ATOM     15  C   LIG    1       23.218 -20.352   6.039  0.00  0.00    +0.105 C 
BRANCH  15  17
ATOM     16  C   LIG    1       21.837 -18.947   4.446  0.00  0.00    +0.005 C 
ATOM     17  C   LIG    1       22.178 -20.351   4.923  0.00  0.00    +0.015 C 
ENDBRANCH  15  17
ENDBRANCH  13  15
ENDBRANCH  11  13
BRANCH  11  18
ATOM     18  O   LIG    1       26.427 -20.507   4.402  0.00  0.00    -0.481 OA
ATOM     19  H   LIG    1       26.343 -20.887   3.519  0.00  0.00    +0.295 HD
ENDBRANCH  11  18
ENDBRANCH   1  12
TORSDOF 6
ENDMDL
MODEL 8
REMARK VINA RESULT:      -3.2      3.332      5.521
REMARK  Name = *****
REMARK                            x       y       z     vdW  Elec       q    Type
REMARK                         _______ _______ _______ _____ _____    ______ ____
ROOT
ATOM      1  S   LIG    1       25.546 -18.347   3.520  0.00  0.00    +0.103 S 
ATOM      2  O   LIG    1       25.875 -18.580   2.126  0.00  0.00    -0.146 OA
ATOM      3  O   LIG    1       26.525 -18.577   4.573  0.00  0.00    -0.146 OA
ENDROOT
BRANCH   1   4
ATOM      4  C   LIG    1       25.149 -16.602   3.620  0.00  0.00    +0.113 A 
ATOM      5  C   LIG    1       26.132 -15.654   3.311  0.00  0.00    +0.030 A 
ATOM      6  C   LIG    1       25.840 -14.293   3.452  0.00  0.00    +0.022 A 
ATOM      7  C   LIG    1       24.581 -13.893   3.904  0.00  0.00    +0.041 A 
ATOM      8 CL   LIG    1       24.234 -12.219   4.101  0.00  0.00    -0.084 Cl
ATOM      9  C   LIG    1       23.601 -14.839   4.205  0.00  0.00    +0.022 A 
ATOM     10  C   LIG    1       23.884 -16.199   4.062  0.00  0.00    +0.030 A 
ENDBRANCH   1   4
BRANCH   1  12
ATOM     11  C   LIG    1       24.130 -20.354   3.985  0.00  0.00    +0.298 C 
ATOM     12  N   LIG    1       24.147 -19.075   3.898  0.00  0.00    -0.076 NA
BRANCH  11  13
ATOM     13  N   LIG    1       23.058 -21.146   4.264  0.00  0.00    -0.298 N 
ATOM     14  H   LIG    1       22.959 -21.975   3.689  0.00  0.00    +0.150 HD
BRANCH  13  15
ATOM     15  C   LIG    1       22.512 -21.303   5.603  0.00  0.00    +0.105 C 
BRANCH  15  17
ATOM     16  C   LIG    1       24.581 -21.190   7.062  0.00  0.00    +0.005 C 
ATOM     17  C   LIG    1       23.314 -20.480   6.607  0.00  0.00    +0.015 C 
ENDBRANCH  15  17
ENDBRANCH  13  15
ENDBRANCH  11  13
BRANCH  11  18
ATOM     18  O   LIG    1       25.222 -21.106   3.784  0.00  0.00    -0.481 OA
ATOM     19  H   LIG    1       25.269 -21.426   2.875  0.00  0.00    +0.295 HD
ENDBRANCH  11  18
ENDBRANCH   1  12
TORSDOF 6
ENDMDL
MODEL 9
REMARK VINA RESULT:      -3.2      4.102      5.319
REMARK  Name = *****
REMARK                            x       y       z     vdW  Elec       q    Type
REMARK                         _______ _______ _______ _____ _____    ______ ____
ROOT
ATOM      1  S   LIG    1       23.254 -15.135   4.442  0.00  0.00    +0.103 S 
ATOM      2  O   LIG    1       22.817 -14.608   3.164  0.00  0.00    -0.146 OA
ATOM      3  O   LIG    1       22.425 -15.006   5.633  0.00  0.00    -0.146 OA
ENDROOT
BRANCH   1   4
ATOM      4  C   LIG    1       23.434 -16.899   4.183  0.00  0.00    +0.113 A 
ATOM      5  C   LIG    1       22.396 -17.759   4.564  0.00  0.00    +0.030 A 
ATOM      6  C   LIG    1       22.564 -19.141   4.420  0.00  0.00    +0.022 A 
ATOM      7  C   LIG    1       23.760 -19.649   3.910  0.00  0.00    +0.041 A 
ATOM      8 CL   LIG    1       23.972 -21.350   3.759  0.00  0.00    -0.084 Cl
ATOM      9  C   LIG    1       24.789 -18.790   3.526  0.00  0.00    +0.022 A 
ATOM     10  C   LIG    1       24.628 -17.410   3.661  0.00  0.00    +0.030 A 
ENDBRANCH   1   4
BRANCH   1  12
ATOM     11  C   LIG    1       24.998 -13.386   4.831  0.00  0.00    +0.298 C 
ATOM     12  N   LIG    1       24.766 -14.645   4.767  0.00  0.00    -0.076 NA
BRANCH  11  13
ATOM     13  N   LIG    1       26.195 -12.780   5.066  0.00  0.00    -0.298 N 
ATOM     14  H   LIG    1       26.174 -11.992   5.704  0.00  0.00    +0.150 HD
BRANCH  13  15
ATOM     15  C   LIG    1       27.462 -13.494   5.071  0.00  0.00    +0.105 C 
BRANCH  15  17
ATOM     16  C   LIG    1       27.373 -14.029   2.596  0.00  0.00    +0.005 C 
ATOM     17  C   LIG    1       28.155 -13.363   3.718  0.00  0.00    +0.015 C 
ENDBRANCH  15  17
ENDBRANCH  13  15
ENDBRANCH  11  13
BRANCH  11  18
ATOM     18  O   LIG    1       24.040 -12.465   4.651  0.00  0.00    -0.481 OA
ATOM     19  H   LIG    1       24.414 -11.582   4.537  0.00  0.00    +0.295 HD
ENDBRANCH  11  18
ENDBRANCH   1  12
TORSDOF 6
ENDMDL
