MODEL 1
REMARK VINA RESULT:      -6.1      0.000      0.000
REMARK  Name = *****
REMARK                            x       y       z     vdW  Elec       q    Type
REMARK                         _______ _______ _______ _____ _____    ______ ____
ROOT
ATOM      1  CA  HIS A  1       31.682 -18.510   8.543  0.00  0.00    +0.167 C 
ENDROOT
BRANCH   1   2
ATOM      2  N   HIS A  1       31.987 -19.861   9.124  0.00  0.00    -0.318 NA
ATOM      3  H1  HIS A  1       31.131 -20.133   9.647  0.00  0.00    +0.119 HD
ATOM      4  H2  HIS A  1       31.955 -20.525   8.343  0.00  0.00    +0.119 HD
ENDBRANCH   1   2
BRANCH   1   5
ATOM      5  C   HIS A  1       32.286 -17.414   9.433  0.00  0.00    +0.322 C 
ATOM      6  O   HIS A  1       32.481 -17.529  10.641  0.00  0.00    -0.249 OA
BRANCH   5   7
ATOM      7  OXT HIS A  1       32.543 -16.265   8.759  0.00  0.00    -0.479 OA
ATOM      8  HXT HIS A  1       32.420 -16.469   7.800  0.00  0.00    +0.295 HD
ENDBRANCH   5   7
ENDBRANCH   1   5
BRANCH   1   9
ATOM      9  CB  HIS A  1       30.178 -18.272   8.324  0.00  0.00    +0.086 C 
BRANCH   9  10
ATOM     10  CG  HIS A  1       29.486 -19.359   7.569  0.00  0.00    +0.061 A 
ATOM     11  ND1 HIS A  1       29.171 -20.557   8.174  0.00  0.00    -0.241 NA
ATOM     12  CE1 HIS A  1       28.552 -21.263   7.257  0.00  0.00    +0.196 A 
ATOM     13  NE2 HIS A  1       28.480 -20.588   6.072  0.00  0.00    -0.351 N 
ATOM     14  HE2 HIS A  1       28.053 -20.927   5.221  0.00  0.00    +0.166 HD
ATOM     15  CD2 HIS A  1       29.079 -19.373   6.252  0.00  0.00    +0.107 A 
ENDBRANCH   9  10
ENDBRANCH   1   9
TORSDOF 5
ENDMDL
MODEL 2
REMARK VINA RESULT:      -5.8      1.706      2.277
REMARK  Name = *****
REMARK                            x       y       z     vdW  Elec       q    Type
REMARK                         _______ _______ _______ _____ _____    ______ ____
ROOT
ATOM      1  CA  HIS A  1       32.007 -17.848  10.102  0.00  0.00    +0.167 C 
ENDROOT
BRANCH   1   2
ATOM      2  N   HIS A  1       30.872 -18.046  11.065  0.00  0.00    -0.318 NA
ATOM      3  H1  HIS A  1       31.293 -17.944  12.008  0.00  0.00    +0.119 HD
ATOM      4  H2  HIS A  1       30.300 -17.197  11.016  0.00  0.00    +0.119 HD
ENDBRANCH   1   2
BRANCH   1   5
ATOM      5  C   HIS A  1       32.423 -16.369  10.086  0.00  0.00    +0.322 C 
ATOM      6  O   HIS A  1       32.513 -15.663  11.088  0.00  0.00    -0.249 OA
BRANCH   5   7
ATOM      7  OXT HIS A  1       32.638 -15.892   8.835  0.00  0.00    -0.479 OA
ATOM      8  HXT HIS A  1       31.774 -15.952   8.360  0.00  0.00    +0.295 HD
ENDBRANCH   5   7
ENDBRANCH   1   5
BRANCH   1   9
ATOM      9  CB  HIS A  1       31.688 -18.343   8.680  0.00  0.00    +0.086 C 
BRANCH   9  10
ATOM     10  CG  HIS A  1       31.257 -19.771   8.608  0.00  0.00    +0.061 A 
ATOM     11  ND1 HIS A  1       31.925 -20.753   9.307  0.00  0.00    -0.241 NA
ATOM     12  CE1 HIS A  1       31.281 -21.867   9.053  0.00  0.00    +0.196 A 
ATOM     13  NE2 HIS A  1       30.243 -21.658   8.191  0.00  0.00    -0.351 N 
ATOM     14  HE2 HIS A  1       29.606 -22.364   7.847  0.00  0.00    +0.166 HD
ATOM     15  CD2 HIS A  1       30.219 -20.325   7.890  0.00  0.00    +0.107 A 
ENDBRANCH   9  10
ENDBRANCH   1   9
TORSDOF 5
ENDMDL
MODEL 3
REMARK VINA RESULT:      -5.8      1.790      2.104
REMARK  Name = *****
REMARK                            x       y       z     vdW  Elec       q    Type
REMARK                         _______ _______ _______ _____ _____    ______ ____
ROOT
ATOM      1  CA  HIS A  1       31.278 -17.348   9.078  0.00  0.00    +0.167 C 
ENDROOT
BRANCH   1   2
ATOM      2  N   HIS A  1       32.340 -16.292   8.955  0.00  0.00    -0.318 NA
ATOM      3  H1  HIS A  1       32.295 -15.975   7.967  0.00  0.00    +0.119 HD
ATOM      4  H2  HIS A  1       31.980 -15.464   9.440  0.00  0.00    +0.119 HD
ENDBRANCH   1   2
BRANCH   1   5
ATOM      5  C   HIS A  1       30.690 -17.330  10.497  0.00  0.00    +0.322 C 
ATOM      6  O   HIS A  1       30.283 -16.320  11.066  0.00  0.00    -0.249 OA
BRANCH   5   7
ATOM      7  OXT HIS A  1       30.708 -18.548  11.094  0.00  0.00    -0.479 OA
ATOM      8  HXT HIS A  1       31.603 -18.931  10.922  0.00  0.00    +0.295 HD
ENDBRANCH   5   7
ENDBRANCH   1   5
BRANCH   1   9
ATOM      9  CB  HIS A  1       31.780 -18.756   8.710  0.00  0.00    +0.086 C 
BRANCH   9  10
ATOM     10  CG  HIS A  1       30.774 -19.602   8.003  0.00  0.00    +0.061 A 
ATOM     11  ND1 HIS A  1       30.099 -20.608   8.661  0.00  0.00    -0.241 NA
ATOM     12  CE1 HIS A  1       29.281 -21.124   7.774  0.00  0.00    +0.196 A 
ATOM     13  NE2 HIS A  1       29.419 -20.520   6.557  0.00  0.00    -0.351 N 
ATOM     14  HE2 HIS A  1       28.901 -20.747   5.720  0.00  0.00    +0.166 HD
ATOM     15  CD2 HIS A  1       30.375 -19.550   6.684  0.00  0.00    +0.107 A 
ENDBRANCH   9  10
ENDBRANCH   1   9
TORSDOF 5
ENDMDL
MODEL 4
REMARK VINA RESULT:      -5.7      2.761      4.875
REMARK  Name = *****
REMARK                            x       y       z     vdW  Elec       q    Type
REMARK                         _______ _______ _______ _____ _____    ______ ____
ROOT
ATOM      1  CA  HIS A  1       30.665 -18.995   8.501  0.00  0.00    +0.167 C 
ENDROOT
BRANCH   1   2
ATOM      2  N   HIS A  1       29.713 -18.431   9.516  0.00  0.00    -0.318 NA
ATOM      3  H1  HIS A  1       30.236 -18.438  10.414  0.00  0.00    +0.119 HD
ATOM      4  H2  HIS A  1       29.658 -17.424   9.333  0.00  0.00    +0.119 HD
ENDBRANCH   1   2
BRANCH   1   5
ATOM      5  C   HIS A  1       30.984 -20.457   8.842  0.00  0.00    +0.322 C 
ATOM      6  O   HIS A  1       30.186 -21.386   8.730  0.00  0.00    -0.249 OA
BRANCH   5   7
ATOM      7  OXT HIS A  1       32.236 -20.626   9.336  0.00  0.00    -0.479 OA
ATOM      8  HXT HIS A  1       32.167 -20.518  10.316  0.00  0.00    +0.295 HD
ENDBRANCH   5   7
ENDBRANCH   1   5
BRANCH   1   9
ATOM      9  CB  HIS A  1       31.957 -18.170   8.360  0.00  0.00    +0.086 C 
BRANCH   9  10
ATOM     10  CG  HIS A  1       32.231 -17.256   9.509  0.00  0.00    +0.061 A 
ATOM     11  ND1 HIS A  1       32.273 -17.729  10.802  0.00  0.00    -0.241 NA
ATOM     12  CE1 HIS A  1       32.564 -16.690  11.549  0.00  0.00    +0.196 A 
ATOM     13  NE2 HIS A  1       32.680 -15.554  10.801  0.00  0.00    -0.351 N 
ATOM     14  HE2 HIS A  1       32.895 -14.632  11.152  0.00  0.00    +0.166 HD
ATOM     15  CD2 HIS A  1       32.462 -15.897   9.495  0.00  0.00    +0.107 A 
ENDBRANCH   9  10
ENDBRANCH   1   9
TORSDOF 5
ENDMDL
MODEL 5
REMARK VINA RESULT:      -5.7      2.111      2.713
REMARK  Name = *****
REMARK                            x       y       z     vdW  Elec       q    Type
REMARK                         _______ _______ _______ _____ _____    ______ ____
ROOT
ATOM      1  CA  HIS A  1       31.457 -16.285   9.851  0.00  0.00    +0.167 C 
ENDROOT
BRANCH   1   2
ATOM      2  N   HIS A  1       32.567 -16.379   8.843  0.00  0.00    -0.318 NA
ATOM      3  H1  HIS A  1       32.106 -16.269   7.919  0.00  0.00    +0.119 HD
ATOM      4  H2  HIS A  1       33.088 -15.498   8.905  0.00  0.00    +0.119 HD
ENDBRANCH   1   2
BRANCH   1   5
ATOM      5  C   HIS A  1       32.019 -16.492  11.265  0.00  0.00    +0.322 C 
ATOM      6  O   HIS A  1       31.768 -17.462  11.976  0.00  0.00    -0.249 OA
BRANCH   5   7
ATOM      7  OXT HIS A  1       32.793 -15.460  11.684  0.00  0.00    -0.479 OA
ATOM      8  HXT HIS A  1       33.669 -15.847  11.927  0.00  0.00    +0.295 HD
ENDBRANCH   5   7
ENDBRANCH   1   5
BRANCH   1   9
ATOM      9  CB  HIS A  1       30.303 -17.265   9.571  0.00  0.00    +0.086 C 
BRANCH   9  10
ATOM     10  CG  HIS A  1       30.656 -18.384   8.647  0.00  0.00    +0.061 A 
ATOM     11  ND1 HIS A  1       30.483 -18.264   7.285  0.00  0.00    -0.241 NA
ATOM     12  CE1 HIS A  1       30.914 -19.394   6.775  0.00  0.00    +0.196 A 
ATOM     13  NE2 HIS A  1       31.327 -20.257   7.749  0.00  0.00    -0.351 N 
ATOM     14  HE2 HIS A  1       31.695 -21.186   7.602  0.00  0.00    +0.166 HD
ATOM     15  CD2 HIS A  1       31.161 -19.629   8.953  0.00  0.00    +0.107 A 
ENDBRANCH   9  10
ENDBRANCH   1   9
TORSDOF 5
ENDMDL
MODEL 6
REMARK VINA RESULT:      -5.6      2.777      4.205
REMARK  Name = *****
REMARK                            x       y       z     vdW  Elec       q    Type
REMARK                         _______ _______ _______ _____ _____    ______ ____
ROOT
ATOM      1  CA  HIS A  1       30.212 -21.224   7.977  0.00  0.00    +0.167 C 
ENDROOT
BRANCH   1   2
ATOM      2  N   HIS A  1       28.787 -21.135   8.442  0.00  0.00    -0.318 NA
ATOM      3  H1  HIS A  1       28.760 -21.653   9.342  0.00  0.00    +0.119 HD
ATOM      4  H2  HIS A  1       28.648 -20.173   8.768  0.00  0.00    +0.119 HD
ENDBRANCH   1   2
BRANCH   1   5
ATOM      5  C   HIS A  1       31.077 -21.865   9.073  0.00  0.00    +0.322 C 
ATOM      6  O   HIS A  1       30.752 -21.944  10.256  0.00  0.00    -0.249 OA
BRANCH   5   7
ATOM      7  OXT HIS A  1       32.277 -22.300   8.615  0.00  0.00    -0.479 OA
ATOM      8  HXT HIS A  1       32.111 -23.169   8.176  0.00  0.00    +0.295 HD
ENDBRANCH   5   7
ENDBRANCH   1   5
BRANCH   1   9
ATOM      9  CB  HIS A  1       30.793 -19.865   7.546  0.00  0.00    +0.086 C 
BRANCH   9  10
ATOM     10  CG  HIS A  1       30.884 -18.858   8.644  0.00  0.00    +0.061 A 
ATOM     11  ND1 HIS A  1       29.773 -18.500   9.377  0.00  0.00    -0.241 NA
ATOM     12  CE1 HIS A  1       30.201 -17.635  10.266  0.00  0.00    +0.196 A 
ATOM     13  NE2 HIS A  1       31.536 -17.389  10.122  0.00  0.00    -0.351 N 
ATOM     14  HE2 HIS A  1       32.087 -16.758  10.686  0.00  0.00    +0.166 HD
ATOM     15  CD2 HIS A  1       31.986 -18.157   9.084  0.00  0.00    +0.107 A 
ENDBRANCH   9  10
ENDBRANCH   1   9
TORSDOF 5
ENDMDL
MODEL 7
REMARK VINA RESULT:      -5.5      7.964      8.749
REMARK  Name = *****
REMARK                            x       y       z     vdW  Elec       q    Type
REMARK                         _______ _______ _______ _____ _____    ______ ____
ROOT
ATOM      1  CA  HIS A  1       24.249 -23.507   6.834  0.00  0.00    +0.167 C 
ENDROOT
BRANCH   1   2
ATOM      2  N   HIS A  1       23.190 -24.499   6.448  0.00  0.00    -0.318 NA
ATOM      3  H1  HIS A  1       23.706 -25.364   6.194  0.00  0.00    +0.119 HD
ATOM      4  H2  HIS A  1       22.738 -24.793   7.321  0.00  0.00    +0.119 HD
ENDBRANCH   1   2
BRANCH   1   5
ATOM      5  C   HIS A  1       24.266 -22.346   5.829  0.00  0.00    +0.322 C 
ATOM      6  O   HIS A  1       23.900 -21.201   6.086  0.00  0.00    -0.249 OA
BRANCH   5   7
ATOM      7  OXT HIS A  1       24.681 -22.720   4.594  0.00  0.00    -0.479 OA
ATOM      8  HXT HIS A  1       25.386 -22.080   4.330  0.00  0.00    +0.295 HD
ENDBRANCH   5   7
ENDBRANCH   1   5
BRANCH   1   9
ATOM      9  CB  HIS A  1       25.647 -24.137   6.967  0.00  0.00    +0.086 C 
BRANCH   9  10
ATOM     10  CG  HIS A  1       25.778 -25.485   6.338  0.00  0.00    +0.061 A 
ATOM     11  ND1 HIS A  1       25.657 -25.650   4.975  0.00  0.00    -0.241 NA
ATOM     12  CE1 HIS A  1       25.854 -26.928   4.756  0.00  0.00    +0.196 A 
ATOM     13  NE2 HIS A  1       26.064 -27.608   5.921  0.00  0.00    -0.351 N 
ATOM     14  HE2 HIS A  1       26.235 -28.600   6.006  0.00  0.00    +0.166 HD
ATOM     15  CD2 HIS A  1       26.010 -26.702   6.942  0.00  0.00    +0.107 A 
ENDBRANCH   9  10
ENDBRANCH   1   9
TORSDOF 5
ENDMDL
MODEL 8
REMARK VINA RESULT:      -5.4      2.540      3.050
REMARK  Name = *****
REMARK                            x       y       z     vdW  Elec       q    Type
REMARK                         _______ _______ _______ _____ _____    ______ ____
ROOT
ATOM      1  CA  HIS A  1       30.053 -19.496   7.864  0.00  0.00    +0.167 C 
ENDROOT
BRANCH   1   2
ATOM      2  N   HIS A  1       30.875 -18.456   7.159  0.00  0.00    -0.318 NA
ATOM      3  H1  HIS A  1       31.161 -17.786   7.899  0.00  0.00    +0.119 HD
ATOM      4  H2  HIS A  1       31.774 -18.898   6.940  0.00  0.00    +0.119 HD
ENDBRANCH   1   2
BRANCH   1   5
ATOM      5  C   HIS A  1       30.955 -20.342   8.774  0.00  0.00    +0.322 C 
ATOM      6  O   HIS A  1       32.081 -20.010   9.138  0.00  0.00    -0.249 OA
BRANCH   5   7
ATOM      7  OXT HIS A  1       30.403 -21.536   9.106  0.00  0.00    -0.479 OA
ATOM      8  HXT HIS A  1       29.640 -21.672   8.494  0.00  0.00    +0.295 HD
ENDBRANCH   5   7
ENDBRANCH   1   5
BRANCH   1   9
ATOM      9  CB  HIS A  1       29.254 -20.391   6.900  0.00  0.00    +0.086 C 
BRANCH   9  10
ATOM     10  CG  HIS A  1       27.795 -20.479   7.208  0.00  0.00    +0.061 A 
ATOM     11  ND1 HIS A  1       27.346 -20.572   8.508  0.00  0.00    -0.241 NA
ATOM     12  CE1 HIS A  1       26.037 -20.599   8.428  0.00  0.00    +0.196 A 
ATOM     13  NE2 HIS A  1       25.615 -20.562   7.130  0.00  0.00    -0.351 N 
ATOM     14  HE2 HIS A  1       24.654 -20.575   6.818  0.00  0.00    +0.166 HD
ATOM     15  CD2 HIS A  1       26.727 -20.493   6.337  0.00  0.00    +0.107 A 
ENDBRANCH   9  10
ENDBRANCH   1   9
TORSDOF 5
ENDMDL
MODEL 9
REMARK VINA RESULT:      -5.4      1.968      2.580
REMARK  Name = *****
REMARK                            x       y       z     vdW  Elec       q    Type
REMARK                         _______ _______ _______ _____ _____    ______ ____
ROOT
ATOM      1  CA  HIS A  1       30.233 -20.233   7.787  0.00  0.00    +0.167 C 
ENDROOT
BRANCH   1   2
ATOM      2  N   HIS A  1       30.279 -21.514   8.571  0.00  0.00    -0.318 NA
ATOM      3  H1  HIS A  1       30.279 -21.223   9.568  0.00  0.00    +0.119 HD
ATOM      4  H2  HIS A  1       29.347 -21.934   8.492  0.00  0.00    +0.119 HD
ENDBRANCH   1   2
BRANCH   1   5
ATOM      5  C   HIS A  1       31.351 -19.293   8.260  0.00  0.00    +0.322 C 
ATOM      6  O   HIS A  1       31.586 -18.192   7.767  0.00  0.00    -0.249 OA
BRANCH   5   7
ATOM      7  OXT HIS A  1       32.101 -19.821   9.259  0.00  0.00    -0.479 OA
ATOM      8  HXT HIS A  1       31.494 -19.951  10.027  0.00  0.00    +0.295 HD
ENDBRANCH   5   7
ENDBRANCH   1   5
BRANCH   1   9
ATOM      9  CB  HIS A  1       28.863 -19.533   7.852  0.00  0.00    +0.086 C 
BRANCH   9  10
ATOM     10  CG  HIS A  1       27.697 -20.443   7.650  0.00  0.00    +0.061 A 
ATOM     11  ND1 HIS A  1       27.211 -21.219   8.680  0.00  0.00    -0.241 NA
ATOM     12  CE1 HIS A  1       26.182 -21.863   8.181  0.00  0.00    +0.196 A 
ATOM     13  NE2 HIS A  1       25.998 -21.565   6.862  0.00  0.00    -0.351 N 
ATOM     14  HE2 HIS A  1       25.274 -21.939   6.264  0.00  0.00    +0.166 HD
ATOM     15  CD2 HIS A  1       26.963 -20.665   6.504  0.00  0.00    +0.107 A 
ENDBRANCH   9  10
ENDBRANCH   1   9
TORSDOF 5
ENDMDL
