MODEL 1
REMARK VINA RESULT:      -8.2      0.000      0.000
REMARK  Name = *****
REMARK                            x       y       z     vdW  Elec       q    Type
REMARK                         _______ _______ _______ _____ _____    ______ ____
ROOT
ATOM      1  C   LIG    1       25.634 -21.424   7.278  0.00  0.00    +0.076 C 
ENDROOT
BRANCH   1   2
ATOM      2  C   LIG    1       27.140 -21.405   6.757  0.00  0.00    +0.104 C 
BRANCH   2   3
ATOM      3  N   LIG    1       27.919 -20.201   6.877  0.00  0.00    -0.290 NA
BRANCH   3   4
ATOM      4  C   LIG    1       28.272 -19.804   8.334  0.00  0.00    +0.100 C 
BRANCH   4   5
ATOM      5  C   LIG    1       29.507 -18.828   8.920  0.00  0.00    +0.101 C 
BRANCH   5   6
ATOM      6  N   LIG    1       30.982 -19.141   8.878  0.00  0.00    -0.281 NA
BRANCH   6   7
ATOM      7  C   LIG    1       31.507 -20.454   8.339  0.00  0.00    +0.206 C 
BRANCH   7   8
ATOM      8  C   LIG    1       31.391 -21.903   9.218  0.00  0.00    +0.319 C 
ATOM      9  O   LIG    1       30.737 -22.324  10.177  0.00  0.00    -0.250 OA
BRANCH   8  10
ATOM     10  O   LIG    1       32.057 -22.917   8.643  0.00  0.00    -0.480 OA
ATOM     11  H   LIG    1       31.730 -23.565   9.333  0.00  0.00    +0.295 HD
ENDBRANCH   8  10
ENDBRANCH   7   8
ENDBRANCH   6   7
BRANCH   6  12
ATOM     12  C   LIG    1       31.866 -18.074   8.324  0.00  0.00    +0.206 C 
BRANCH  12  13
ATOM     13  C   LIG    1       32.424 -17.172   9.430  0.00  0.00    +0.319 C 
ATOM     14  O   LIG    1       32.553 -17.427  10.615  0.00  0.00    -0.250 OA
BRANCH  13  15
ATOM     15  O   LIG    1       32.667 -15.910   9.031  0.00  0.00    -0.480 OA
ATOM     16  H   LIG    1       32.013 -15.391   9.551  0.00  0.00    +0.295 HD
ENDBRANCH  13  15
ENDBRANCH  12  13
ENDBRANCH   6  12
ENDBRANCH   5   6
ENDBRANCH   4   5
ENDBRANCH   3   4
BRANCH   3  17
ATOM     17  C   LIG    1       28.951 -20.152   5.819  0.00  0.00    +0.205 C 
BRANCH  17  18
ATOM     18  C   LIG    1       28.922 -18.854   5.285  0.00  0.00    +0.319 C 
ATOM     19  O   LIG    1       29.902 -18.064   5.702  0.00  0.00    -0.250 OA
BRANCH  18  20
ATOM     20  O   LIG    1       27.878 -18.388   4.663  0.00  0.00    -0.480 OA
ATOM     21  H   LIG    1       27.551 -19.173   4.093  0.00  0.00    +0.295 HD
ENDBRANCH  18  20
ENDBRANCH  17  18
ENDBRANCH   3  17
ENDBRANCH   2   3
ENDBRANCH   1   2
BRANCH   1  22
ATOM     22  N   LIG    1       24.750 -20.639   6.321  0.00  0.00    -0.278 NA
BRANCH  22  23
ATOM     23  C   LIG    1       23.282 -20.904   6.485  0.00  0.00    +0.206 C 
BRANCH  23  24
ATOM     24  C   LIG    1       22.367 -20.272   5.440  0.00  0.00    +0.319 C 
ATOM     25  O   LIG    1       22.264 -19.068   5.256  0.00  0.00    -0.250 OA
BRANCH  24  26
ATOM     26  O   LIG    1       21.646 -21.168   4.711  0.00  0.00    -0.480 OA
ATOM     27  H   LIG    1       21.888 -22.107   4.851  0.00  0.00    +0.295 HD
ENDBRANCH  24  26
ENDBRANCH  23  24
ENDBRANCH  22  23
BRANCH  22  28
ATOM     28  C   LIG    1       25.075 -21.160   4.984  0.00  0.00    +0.206 C 
BRANCH  28  29
ATOM     29  C   LIG    1       25.003 -20.284   3.775  0.00  0.00    +0.319 C 
ATOM     30  O   LIG    1       25.431 -19.139   3.748  0.00  0.00    -0.250 OA
BRANCH  29  31
ATOM     31  O   LIG    1       24.258 -20.839   2.795  0.00  0.00    -0.480 OA
ATOM     32  H   LIG    1       23.481 -21.307   3.172  0.00  0.00    +0.295 HD
ENDBRANCH  29  31
ENDBRANCH  28  29
ENDBRANCH  22  28
ENDBRANCH   1  22
BRANCH   1  33
ATOM     33  C   LIG    1       25.231 -22.922   7.668  0.00  0.00    +0.055 C 
BRANCH  33  37
ATOM     34  C   LIG    1       25.044 -26.908   5.677  0.00  0.00    +0.120 A 
ATOM     35  C   LIG    1       26.271 -26.380   6.006  0.00  0.00    +0.046 A 
ATOM     36  C   LIG    1       26.378 -25.029   6.439  0.00  0.00    +0.007 A 
ATOM     37  C   LIG    1       25.288 -24.190   6.756  0.00  0.00    -0.046 A 
ATOM     38  C   LIG    1       24.063 -24.703   6.345  0.00  0.00    +0.007 A 
ATOM     39  C   LIG    1       23.943 -26.047   5.880  0.00  0.00    +0.046 A 
BRANCH  34  40
ATOM     40  O   LIG    1       24.825 -28.204   5.250  0.00  0.00    -0.492 OA
BRANCH  40  42
ATOM     41  C   LIG    1       24.628 -29.373   7.448  0.00  0.00    +0.048 C 
ATOM     42  C   LIG    1       24.017 -29.118   6.048  0.00  0.00    +0.226 C 
ENDBRANCH  40  42
ENDBRANCH  34  40
ENDBRANCH  33  37
ENDBRANCH   1  33
TORSDOF 25
ENDMDL
MODEL 2
REMARK VINA RESULT:      -7.6      2.684      8.988
REMARK  Name = *****
REMARK                            x       y       z     vdW  Elec       q    Type
REMARK                         _______ _______ _______ _____ _____    ______ ____
ROOT
ATOM      1  C   LIG    1       26.708 -22.171   6.731  0.00  0.00    +0.076 C 
ENDROOT
BRANCH   1   2
ATOM      2  C   LIG    1       26.031 -23.469   7.362  0.00  0.00    +0.104 C 
BRANCH   2   3
ATOM      3  N   LIG    1       25.999 -24.693   6.606  0.00  0.00    -0.290 NA
BRANCH   3   4
ATOM      4  C   LIG    1       26.015 -25.983   7.468  0.00  0.00    +0.100 C 
BRANCH   4   5
ATOM      5  C   LIG    1       26.248 -27.583   7.014  0.00  0.00    +0.101 C 
BRANCH   5   6
ATOM      6  N   LIG    1       25.859 -28.800   7.817  0.00  0.00    -0.281 NA
BRANCH   6   7
ATOM      7  C   LIG    1       26.104 -28.888   9.307  0.00  0.00    +0.206 C 
BRANCH   7   8
ATOM      8  C   LIG    1       27.264 -29.938   9.970  0.00  0.00    +0.319 C 
ATOM      9  O   LIG    1       28.199 -29.855  10.772  0.00  0.00    -0.250 OA
BRANCH   8  10
ATOM     10  O   LIG    1       27.023 -31.228   9.688  0.00  0.00    -0.480 OA
ATOM     11  H   LIG    1       26.799 -31.428  10.643  0.00  0.00    +0.295 HD
ENDBRANCH   8  10
ENDBRANCH   7   8
ENDBRANCH   6   7
BRANCH   6  12
ATOM     12  C   LIG    1       24.483 -29.330   7.583  0.00  0.00    +0.206 C 
BRANCH  12  13
ATOM     13  C   LIG    1       24.325 -29.888   6.166  0.00  0.00    +0.319 C 
ATOM     14  O   LIG    1       25.112 -30.573   5.535  0.00  0.00    -0.250 OA
BRANCH  13  15
ATOM     15  O   LIG    1       23.232 -29.438   5.523  0.00  0.00    -0.480 OA
ATOM     16  H   LIG    1       23.130 -28.530   5.885  0.00  0.00    +0.295 HD
ENDBRANCH  13  15
ENDBRANCH  12  13
ENDBRANCH   6  12
ENDBRANCH   5   6
ENDBRANCH   4   5
ENDBRANCH   3   4
BRANCH   3  17
ATOM     17  C   LIG    1       25.066 -24.567   5.467  0.00  0.00    +0.205 C 
BRANCH  17  18
ATOM     18  C   LIG    1       23.846 -25.126   5.879  0.00  0.00    +0.319 C 
ATOM     19  O   LIG    1       23.602 -26.336   5.396  0.00  0.00    -0.250 OA
BRANCH  18  20
ATOM     20  O   LIG    1       22.920 -24.413   6.452  0.00  0.00    -0.480 OA
ATOM     21  H   LIG    1       23.091 -23.460   6.121  0.00  0.00    +0.295 HD
ENDBRANCH  18  20
ENDBRANCH  17  18
ENDBRANCH   3  17
ENDBRANCH   2   3
ENDBRANCH   1   2
BRANCH   1  22
ATOM     22  N   LIG    1       25.665 -21.364   5.975  0.00  0.00    -0.278 NA
BRANCH  22  23
ATOM     23  C   LIG    1       26.231 -20.234   5.165  0.00  0.00    +0.206 C 
BRANCH  23  24
ATOM     24  C   LIG    1       25.370 -19.744   4.006  0.00  0.00    +0.319 C 
ATOM     25  O   LIG    1       24.317 -20.263   3.664  0.00  0.00    -0.250 OA
BRANCH  24  26
ATOM     26  O   LIG    1       25.873 -18.659   3.353  0.00  0.00    -0.480 OA
ATOM     27  H   LIG    1       26.724 -18.323   3.703  0.00  0.00    +0.295 HD
ENDBRANCH  24  26
ENDBRANCH  23  24
ENDBRANCH  22  23
BRANCH  22  28
ATOM     28  C   LIG    1       24.859 -20.706   7.017  0.00  0.00    +0.206 C 
BRANCH  28  29
ATOM     29  C   LIG    1       23.384 -20.928   7.107  0.00  0.00    +0.319 C 
ATOM     30  O   LIG    1       22.874 -21.774   7.829  0.00  0.00    -0.250 OA
BRANCH  29  31
ATOM     31  O   LIG    1       22.711 -20.219   6.177  0.00  0.00    -0.480 OA
ATOM     32  H   LIG    1       23.230 -19.434   5.895  0.00  0.00    +0.295 HD
ENDBRANCH  29  31
ENDBRANCH  28  29
ENDBRANCH  22  28
ENDBRANCH   1  22
BRANCH   1  33
ATOM     33  C   LIG    1       27.602 -21.451   7.845  0.00  0.00    +0.055 C 
BRANCH  33  37
ATOM     34  C   LIG    1       31.257 -18.900   7.995  0.00  0.00    +0.120 A 
ATOM     35  C   LIG    1       30.151 -18.447   7.315  0.00  0.00    +0.046 A 
ATOM     36  C   LIG    1       29.055 -19.319   7.064  0.00  0.00    +0.007 A 
ATOM     37  C   LIG    1       28.897 -20.605   7.625  0.00  0.00    -0.046 A 
ATOM     38  C   LIG    1       30.050 -21.081   8.240  0.00  0.00    +0.007 A 
ATOM     39  C   LIG    1       31.170 -20.228   8.472  0.00  0.00    +0.046 A 
BRANCH  34  40
ATOM     40  O   LIG    1       32.372 -18.142   8.297  0.00  0.00    -0.492 OA
BRANCH  40  42
ATOM     41  C   LIG    1       31.838 -17.320  10.594  0.00  0.00    +0.048 C 
ATOM     42  C   LIG    1       32.257 -16.963   9.146  0.00  0.00    +0.226 C 
ENDBRANCH  40  42
ENDBRANCH  34  40
ENDBRANCH  33  37
ENDBRANCH   1  33
TORSDOF 25
ENDMDL
MODEL 3
REMARK VINA RESULT:      -7.5      2.811      6.709
REMARK  Name = *****
REMARK                            x       y       z     vdW  Elec       q    Type
REMARK                         _______ _______ _______ _____ _____    ______ ____
ROOT
ATOM      1  C   LIG    1       25.470 -21.433   4.865  0.00  0.00    +0.076 C 
ENDROOT
BRANCH   1   2
ATOM      2  C   LIG    1       25.974 -20.298   5.864  0.00  0.00    +0.104 C 
BRANCH   2   3
ATOM      3  N   LIG    1       27.243 -20.446   6.527  0.00  0.00    -0.290 NA
BRANCH   3   4
ATOM      4  C   LIG    1       28.443 -19.822   5.768  0.00  0.00    +0.100 C 
BRANCH   4   5
ATOM      5  C   LIG    1       29.407 -18.506   6.167  0.00  0.00    +0.101 C 
BRANCH   5   6
ATOM      6  N   LIG    1       30.409 -18.448   7.293  0.00  0.00    -0.281 NA
BRANCH   6   7
ATOM      7  C   LIG    1       29.983 -18.313   8.739  0.00  0.00    +0.206 C 
BRANCH   7   8
ATOM      8  C   LIG    1       30.499 -17.023   9.717  0.00  0.00    +0.319 C 
ATOM      9  O   LIG    1       30.159 -16.515  10.789  0.00  0.00    -0.250 OA
BRANCH   8  10
ATOM     10  O   LIG    1       31.675 -16.508   9.323  0.00  0.00    -0.480 OA
ATOM     11  H   LIG    1       31.434 -15.604   9.681  0.00  0.00    +0.295 HD
ENDBRANCH   8  10
ENDBRANCH   7   8
ENDBRANCH   6   7
BRANCH   6  12
ATOM     12  C   LIG    1       31.490 -19.476   7.266  0.00  0.00    +0.206 C 
BRANCH  12  13
ATOM     13  C   LIG    1       31.320 -20.504   8.389  0.00  0.00    +0.319 C 
ATOM     14  O   LIG    1       32.013 -20.657   9.380  0.00  0.00    -0.250 OA
BRANCH  13  15
ATOM     15  O   LIG    1       30.359 -21.416   8.150  0.00  0.00    -0.480 OA
ATOM     16  H   LIG    1       30.810 -22.263   8.362  0.00  0.00    +0.295 HD
ENDBRANCH  13  15
ENDBRANCH  12  13
ENDBRANCH   6  12
ENDBRANCH   5   6
ENDBRANCH   4   5
ENDBRANCH   3   4
BRANCH   3  17
ATOM     17  C   LIG    1       27.087 -20.236   7.982  0.00  0.00    +0.205 C 
BRANCH  17  18
ATOM     18  C   LIG    1       26.367 -21.335   8.475  0.00  0.00    +0.319 C 
ATOM     19  O   LIG    1       25.655 -21.084   9.565  0.00  0.00    -0.250 OA
BRANCH  18  20
ATOM     20  O   LIG    1       26.596 -22.549   8.066  0.00  0.00    -0.480 OA
ATOM     21  H   LIG    1       27.483 -22.483   7.559  0.00  0.00    +0.295 HD
ENDBRANCH  18  20
ENDBRANCH  17  18
ENDBRANCH   3  17
ENDBRANCH   2   3
ENDBRANCH   1   2
BRANCH   1  22
ATOM     22  N   LIG    1       24.908 -22.603   5.657  0.00  0.00    -0.278 NA
BRANCH  22  23
ATOM     23  C   LIG    1       24.958 -23.915   4.932  0.00  0.00    +0.206 C 
BRANCH  23  24
ATOM     24  C   LIG    1       25.636 -25.064   5.673  0.00  0.00    +0.319 C 
ATOM     25  O   LIG    1       26.068 -26.071   5.130  0.00  0.00    -0.250 OA
BRANCH  24  26
ATOM     26  O   LIG    1       25.723 -24.889   7.021  0.00  0.00    -0.480 OA
ATOM     27  H   LIG    1       26.283 -24.137   7.305  0.00  0.00    +0.295 HD
ENDBRANCH  24  26
ENDBRANCH  23  24
ENDBRANCH  22  23
BRANCH  22  28
ATOM     28  C   LIG    1       23.472 -22.314   5.803  0.00  0.00    +0.206 C 
BRANCH  28  29
ATOM     29  C   LIG    1       22.742 -22.642   7.065  0.00  0.00    +0.319 C 
ATOM     30  O   LIG    1       22.827 -21.972   8.085  0.00  0.00    -0.250 OA
BRANCH  29  31
ATOM     31  O   LIG    1       22.137 -23.847   6.997  0.00  0.00    -0.480 OA
ATOM     32  H   LIG    1       21.915 -24.072   6.067  0.00  0.00    +0.295 HD
ENDBRANCH  29  31
ENDBRANCH  28  29
ENDBRANCH  22  28
ENDBRANCH   1  22
BRANCH   1  33
ATOM     33  C   LIG    1       24.579 -20.764   3.716  0.00  0.00    +0.055 C 
BRANCH  33  37
ATOM     34  C   LIG    1       23.346 -16.514   4.271  0.00  0.00    +0.120 A 
ATOM     35  C   LIG    1       22.442 -17.515   4.540  0.00  0.00    +0.046 A 
ATOM     36  C   LIG    1       22.727 -18.859   4.168  0.00  0.00    +0.007 A 
ATOM     37  C   LIG    1       23.975 -19.323   3.699  0.00  0.00    -0.046 A 
ATOM     38  C   LIG    1       24.849 -18.298   3.357  0.00  0.00    +0.007 A 
ATOM     39  C   LIG    1       24.564 -16.940   3.695  0.00  0.00    +0.046 A 
BRANCH  34  40
ATOM     40  O   LIG    1       23.175 -15.180   4.590  0.00  0.00    -0.492 OA
BRANCH  40  42
ATOM     41  C   LIG    1       25.107 -13.599   4.577  0.00  0.00    +0.048 C 
ATOM     42  C   LIG    1       23.864 -14.145   3.831  0.00  0.00    +0.226 C 
ENDBRANCH  40  42
ENDBRANCH  34  40
ENDBRANCH  33  37
ENDBRANCH   1  33
TORSDOF 25
ENDMDL
MODEL 4
REMARK VINA RESULT:      -7.4      0.426      2.538
REMARK  Name = *****
REMARK                            x       y       z     vdW  Elec       q    Type
REMARK                         _______ _______ _______ _____ _____    ______ ____
ROOT
ATOM      1  C   LIG    1       25.693 -21.419   7.349  0.00  0.00    +0.076 C 
ENDROOT
BRANCH   1   2
ATOM      2  C   LIG    1       27.198 -21.358   6.828  0.00  0.00    +0.104 C 
BRANCH   2   3
ATOM      3  N   LIG    1       27.884 -20.094   6.783  0.00  0.00    -0.290 NA
BRANCH   3   4
ATOM      4  C   LIG    1       28.276 -19.523   8.171  0.00  0.00    +0.100 C 
BRANCH   4   5
ATOM      5  C   LIG    1       29.627 -18.641   8.635  0.00  0.00    +0.101 C 
BRANCH   5   6
ATOM      6  N   LIG    1       31.065 -19.070   8.479  0.00  0.00    -0.281 NA
BRANCH   6   7
ATOM      7  C   LIG    1       32.185 -18.068   8.301  0.00  0.00    +0.206 C 
BRANCH   7   8
ATOM      8  C   LIG    1       32.565 -16.917   9.493  0.00  0.00    +0.319 C 
ATOM      9  O   LIG    1       32.933 -16.930  10.671  0.00  0.00    -0.250 OA
BRANCH   8  10
ATOM     10  O   LIG    1       32.646 -15.669   9.005  0.00  0.00    -0.480 OA
ATOM     11  H   LIG    1       31.973 -15.869   8.292  0.00  0.00    +0.295 HD
ENDBRANCH   8  10
ENDBRANCH   7   8
ENDBRANCH   6   7
BRANCH   6  12
ATOM     12  C   LIG    1       31.559 -20.087   9.454  0.00  0.00    +0.206 C 
BRANCH  12  13
ATOM     13  C   LIG    1       31.161 -21.507   9.039  0.00  0.00    +0.319 C 
ATOM     14  O   LIG    1       30.073 -22.045   9.146  0.00  0.00    -0.250 OA
BRANCH  13  15
ATOM     15  O   LIG    1       32.197 -22.265   8.634  0.00  0.00    -0.480 OA
ATOM     16  H   LIG    1       32.816 -22.205   9.396  0.00  0.00    +0.295 HD
ENDBRANCH  13  15
ENDBRANCH  12  13
ENDBRANCH   6  12
ENDBRANCH   5   6
ENDBRANCH   4   5
ENDBRANCH   3   4
BRANCH   3  17
ATOM     17  C   LIG    1       28.854 -20.078   5.668  0.00  0.00    +0.205 C 
BRANCH  17  18
ATOM     18  C   LIG    1       29.180 -18.733   5.434  0.00  0.00    +0.319 C 
ATOM     19  O   LIG    1       28.203 -18.015   4.895  0.00  0.00    -0.250 OA
BRANCH  18  20
ATOM     20  O   LIG    1       30.407 -18.303   5.479  0.00  0.00    -0.480 OA
ATOM     21  H   LIG    1       30.885 -18.819   4.736  0.00  0.00    +0.295 HD
ENDBRANCH  18  20
ENDBRANCH  17  18
ENDBRANCH   3  17
ENDBRANCH   2   3
ENDBRANCH   1   2
BRANCH   1  22
ATOM     22  N   LIG    1       24.791 -20.637   6.408  0.00  0.00    -0.278 NA
BRANCH  22  23
ATOM     23  C   LIG    1       23.325 -20.879   6.619  0.00  0.00    +0.206 C 
BRANCH  23  24
ATOM     24  C   LIG    1       22.397 -20.376   5.518  0.00  0.00    +0.319 C 
ATOM     25  O   LIG    1       22.249 -19.197   5.230  0.00  0.00    -0.250 OA
BRANCH  24  26
ATOM     26  O   LIG    1       21.720 -21.359   4.863  0.00  0.00    -0.480 OA
ATOM     27  H   LIG    1       21.902 -21.419   3.902  0.00  0.00    +0.295 HD
ENDBRANCH  24  26
ENDBRANCH  23  24
ENDBRANCH  22  23
BRANCH  22  28
ATOM     28  C   LIG    1       25.068 -21.183   5.069  0.00  0.00    +0.206 C 
BRANCH  28  29
ATOM     29  C   LIG    1       25.104 -20.297   3.866  0.00  0.00    +0.319 C 
ATOM     30  O   LIG    1       24.482 -20.532   2.839  0.00  0.00    -0.250 OA
BRANCH  29  31
ATOM     31  O   LIG    1       26.032 -19.324   3.985  0.00  0.00    -0.480 OA
ATOM     32  H   LIG    1       26.630 -19.317   3.206  0.00  0.00    +0.295 HD
ENDBRANCH  29  31
ENDBRANCH  28  29
ENDBRANCH  22  28
ENDBRANCH   1  22
BRANCH   1  33
ATOM     33  C   LIG    1       25.324 -22.933   7.712  0.00  0.00    +0.055 C 
BRANCH  33  37
ATOM     34  C   LIG    1       24.917 -26.821   5.566  0.00  0.00    +0.120 A 
ATOM     35  C   LIG    1       26.172 -26.370   5.904  0.00  0.00    +0.046 A 
ATOM     36  C   LIG    1       26.351 -25.045   6.389  0.00  0.00    +0.007 A 
ATOM     37  C   LIG    1       25.308 -24.165   6.751  0.00  0.00    -0.046 A 
ATOM     38  C   LIG    1       24.055 -24.598   6.332  0.00  0.00    +0.007 A 
ATOM     39  C   LIG    1       23.862 -25.914   5.815  0.00  0.00    +0.046 A 
BRANCH  34  40
ATOM     40  O   LIG    1       24.627 -28.086   5.091  0.00  0.00    -0.492 OA
BRANCH  40  42
ATOM     41  C   LIG    1       24.835 -28.977   7.415  0.00  0.00    +0.048 C 
ATOM     42  C   LIG    1       24.214 -29.143   6.006  0.00  0.00    +0.226 C 
ENDBRANCH  40  42
ENDBRANCH  34  40
ENDBRANCH  33  37
ENDBRANCH   1  33
TORSDOF 25
ENDMDL
MODEL 5
REMARK VINA RESULT:      -7.4      2.422      8.821
REMARK  Name = *****
REMARK                            x       y       z     vdW  Elec       q    Type
REMARK                         _______ _______ _______ _____ _____    ______ ____
ROOT
ATOM      1  C   LIG    1       26.308 -21.950   6.695  0.00  0.00    +0.076 C 
ENDROOT
BRANCH   1   2
ATOM      2  C   LIG    1       25.509 -23.240   7.183  0.00  0.00    +0.104 C 
BRANCH   2   3
ATOM      3  N   LIG    1       25.734 -24.504   6.533  0.00  0.00    -0.290 NA
BRANCH   3   4
ATOM      4  C   LIG    1       25.592 -25.740   7.460  0.00  0.00    +0.100 C 
BRANCH   4   5
ATOM      5  C   LIG    1       26.412 -27.205   7.441  0.00  0.00    +0.101 C 
BRANCH   5   6
ATOM      6  N   LIG    1       25.810 -28.564   7.700  0.00  0.00    -0.281 NA
BRANCH   6   7
ATOM      7  C   LIG    1       25.971 -29.271   9.028  0.00  0.00    +0.206 C 
BRANCH   7   8
ATOM      8  C   LIG    1       26.828 -30.730   9.176  0.00  0.00    +0.319 C 
ATOM      9  O   LIG    1       27.305 -31.405  10.094  0.00  0.00    -0.250 OA
BRANCH   8  10
ATOM     10  O   LIG    1       26.872 -31.428   8.030  0.00  0.00    -0.480 OA
ATOM     11  H   LIG    1       27.262 -30.650   7.534  0.00  0.00    +0.295 HD
ENDBRANCH   8  10
ENDBRANCH   7   8
ENDBRANCH   6   7
BRANCH   6  12
ATOM     12  C   LIG    1       24.383 -28.739   7.299  0.00  0.00    +0.206 C 
BRANCH  12  13
ATOM     13  C   LIG    1       24.246 -29.662   6.084  0.00  0.00    +0.319 C 
ATOM     14  O   LIG    1       25.006 -30.542   5.719  0.00  0.00    -0.250 OA
BRANCH  13  15
ATOM     15  O   LIG    1       23.219 -29.344   5.274  0.00  0.00    -0.480 OA
ATOM     16  H   LIG    1       22.584 -28.917   5.891  0.00  0.00    +0.295 HD
ENDBRANCH  13  15
ENDBRANCH  12  13
ENDBRANCH   6  12
ENDBRANCH   5   6
ENDBRANCH   4   5
ENDBRANCH   3   4
BRANCH   3  17
ATOM     17  C   LIG    1       25.121 -24.505   5.188  0.00  0.00    +0.205 C 
BRANCH  17  18
ATOM     18  C   LIG    1       24.817 -25.840   4.882  0.00  0.00    +0.319 C 
ATOM     19  O   LIG    1       25.746 -26.469   4.173  0.00  0.00    -0.250 OA
BRANCH  18  20
ATOM     20  O   LIG    1       23.621 -26.328   5.036  0.00  0.00    -0.480 OA
ATOM     21  H   LIG    1       23.771 -27.331   5.171  0.00  0.00    +0.295 HD
ENDBRANCH  18  20
ENDBRANCH  17  18
ENDBRANCH   3  17
ENDBRANCH   2   3
ENDBRANCH   1   2
BRANCH   1  22
ATOM     22  N   LIG    1       25.332 -20.821   6.404  0.00  0.00    -0.278 NA
BRANCH  22  23
ATOM     23  C   LIG    1       23.932 -21.081   6.878  0.00  0.00    +0.206 C 
BRANCH  23  24
ATOM     24  C   LIG    1       22.815 -20.682   5.920  0.00  0.00    +0.319 C 
ATOM     25  O   LIG    1       22.462 -19.529   5.718  0.00  0.00    -0.250 OA
BRANCH  24  26
ATOM     26  O   LIG    1       22.214 -21.730   5.291  0.00  0.00    -0.480 OA
ATOM     27  H   LIG    1       22.810 -22.284   4.746  0.00  0.00    +0.295 HD
ENDBRANCH  24  26
ENDBRANCH  23  24
ENDBRANCH  22  23
BRANCH  22  28
ATOM     28  C   LIG    1       25.224 -20.774   4.937  0.00  0.00    +0.206 C 
BRANCH  28  29
ATOM     29  C   LIG    1       25.499 -19.514   4.182  0.00  0.00    +0.319 C 
ATOM     30  O   LIG    1       24.709 -19.019   3.390  0.00  0.00    -0.250 OA
BRANCH  29  31
ATOM     31  O   LIG    1       26.774 -19.099   4.341  0.00  0.00    -0.480 OA
ATOM     32  H   LIG    1       27.026 -18.470   3.630  0.00  0.00    +0.295 HD
ENDBRANCH  29  31
ENDBRANCH  28  29
ENDBRANCH  22  28
ENDBRANCH   1  22
BRANCH   1  33
ATOM     33  C   LIG    1       27.537 -21.689   7.684  0.00  0.00    +0.055 C 
BRANCH  33  37
ATOM     34  C   LIG    1       30.938 -18.804   7.713  0.00  0.00    +0.120 A 
ATOM     35  C   LIG    1       29.883 -18.588   6.858  0.00  0.00    +0.046 A 
ATOM     36  C   LIG    1       28.896 -19.594   6.667  0.00  0.00    +0.007 A 
ATOM     37  C   LIG    1       28.778 -20.771   7.438  0.00  0.00    -0.046 A 
ATOM     38  C   LIG    1       29.888 -21.017   8.239  0.00  0.00    +0.007 A 
ATOM     39  C   LIG    1       30.903 -20.029   8.416  0.00  0.00    +0.046 A 
BRANCH  34  40
ATOM     40  O   LIG    1       31.948 -17.898   7.976  0.00  0.00    -0.492 OA
BRANCH  40  42
ATOM     41  C   LIG    1       30.941 -16.652   9.891  0.00  0.00    +0.048 C 
ATOM     42  C   LIG    1       32.170 -17.410   9.331  0.00  0.00    +0.226 C 
ENDBRANCH  40  42
ENDBRANCH  34  40
ENDBRANCH  33  37
ENDBRANCH   1  33
TORSDOF 25
ENDMDL
MODEL 6
REMARK VINA RESULT:      -7.4      2.736      6.427
REMARK  Name = *****
REMARK                            x       y       z     vdW  Elec       q    Type
REMARK                         _______ _______ _______ _____ _____    ______ ____
ROOT
ATOM      1  C   LIG    1       25.428 -21.376   4.742  0.00  0.00    +0.076 C 
ENDROOT
BRANCH   1   2
ATOM      2  C   LIG    1       25.922 -20.271   5.780  0.00  0.00    +0.104 C 
BRANCH   2   3
ATOM      3  N   LIG    1       27.094 -20.518   6.577  0.00  0.00    -0.290 NA
BRANCH   3   4
ATOM      4  C   LIG    1       28.399 -19.896   6.014  0.00  0.00    +0.100 C 
BRANCH   4   5
ATOM      5  C   LIG    1       29.668 -19.140   6.813  0.00  0.00    +0.101 C 
BRANCH   5   6
ATOM      6  N   LIG    1       30.141 -19.439   8.213  0.00  0.00    -0.281 NA
BRANCH   6   7
ATOM      7  C   LIG    1       31.403 -20.231   8.480  0.00  0.00    +0.206 C 
BRANCH   7   8
ATOM      8  C   LIG    1       31.368 -21.768   9.202  0.00  0.00    +0.319 C 
ATOM      9  O   LIG    1       30.719 -22.332  10.088  0.00  0.00    -0.250 OA
BRANCH   8  10
ATOM     10  O   LIG    1       32.122 -22.668   8.550  0.00  0.00    -0.480 OA
ATOM     11  H   LIG    1       31.745 -22.390   7.665  0.00  0.00    +0.295 HD
ENDBRANCH   8  10
ENDBRANCH   7   8
ENDBRANCH   6   7
BRANCH   6  12
ATOM     12  C   LIG    1       30.156 -18.288   9.163  0.00  0.00    +0.206 C 
BRANCH  12  13
ATOM     13  C   LIG    1       31.547 -17.652   9.259  0.00  0.00    +0.319 C 
ATOM     14  O   LIG    1       32.159 -17.048   8.395  0.00  0.00    -0.250 OA
BRANCH  13  15
ATOM     15  O   LIG    1       32.193 -17.929  10.407  0.00  0.00    -0.480 OA
ATOM     16  H   LIG    1       33.128 -18.006  10.112  0.00  0.00    +0.295 HD
ENDBRANCH  13  15
ENDBRANCH  12  13
ENDBRANCH   6  12
ENDBRANCH   5   6
ENDBRANCH   4   5
ENDBRANCH   3   4
BRANCH   3  17
ATOM     17  C   LIG    1       26.770 -20.399   8.015  0.00  0.00    +0.205 C 
BRANCH  17  18
ATOM     18  C   LIG    1       26.188 -21.617   8.400  0.00  0.00    +0.319 C 
ATOM     19  O   LIG    1       25.467 -21.556   9.512  0.00  0.00    -0.250 OA
BRANCH  18  20
ATOM     20  O   LIG    1       26.550 -22.751   7.875  0.00  0.00    -0.480 OA
ATOM     21  H   LIG    1       25.668 -23.222   7.656  0.00  0.00    +0.295 HD
ENDBRANCH  18  20
ENDBRANCH  17  18
ENDBRANCH   3  17
ENDBRANCH   2   3
ENDBRANCH   1   2
BRANCH   1  22
ATOM     22  N   LIG    1       24.899 -22.587   5.493  0.00  0.00    -0.278 NA
BRANCH  22  23
ATOM     23  C   LIG    1       24.817 -23.835   4.665  0.00  0.00    +0.206 C 
BRANCH  23  24
ATOM     24  C   LIG    1       25.108 -25.143   5.394  0.00  0.00    +0.319 C 
ATOM     25  O   LIG    1       24.332 -26.086   5.448  0.00  0.00    -0.250 OA
BRANCH  24  26
ATOM     26  O   LIG    1       26.325 -25.187   6.003  0.00  0.00    -0.480 OA
ATOM     27  H   LIG    1       27.008 -25.705   5.528  0.00  0.00    +0.295 HD
ENDBRANCH  24  26
ENDBRANCH  23  24
ENDBRANCH  22  23
BRANCH  22  28
ATOM     28  C   LIG    1       23.499 -22.259   5.811  0.00  0.00    +0.206 C 
BRANCH  28  29
ATOM     29  C   LIG    1       22.828 -22.828   7.020  0.00  0.00    +0.319 C 
ATOM     30  O   LIG    1       22.222 -23.891   7.014  0.00  0.00    -0.250 OA
BRANCH  29  31
ATOM     31  O   LIG    1       22.818 -21.954   8.048  0.00  0.00    -0.480 OA
ATOM     32  H   LIG    1       23.678 -21.481   8.111  0.00  0.00    +0.295 HD
ENDBRANCH  29  31
ENDBRANCH  28  29
ENDBRANCH  22  28
ENDBRANCH   1  22
BRANCH   1  33
ATOM     33  C   LIG    1       24.513 -20.680   3.631  0.00  0.00    +0.055 C 
BRANCH  33  37
ATOM     34  C   LIG    1       23.348 -16.424   4.286  0.00  0.00    +0.120 A 
ATOM     35  C   LIG    1       22.434 -17.418   4.550  0.00  0.00    +0.046 A 
ATOM     36  C   LIG    1       22.694 -18.758   4.148  0.00  0.00    +0.007 A 
ATOM     37  C   LIG    1       23.928 -19.230   3.651  0.00  0.00    -0.046 A 
ATOM     38  C   LIG    1       24.812 -18.211   3.314  0.00  0.00    +0.007 A 
ATOM     39  C   LIG    1       24.551 -16.856   3.683  0.00  0.00    +0.046 A 
BRANCH  34  40
ATOM     40  O   LIG    1       23.201 -15.095   4.633  0.00  0.00    -0.492 OA
BRANCH  40  42
ATOM     41  C   LIG    1       25.182 -13.576   4.588  0.00  0.00    +0.048 C 
ATOM     42  C   LIG    1       23.890 -14.054   3.881  0.00  0.00    +0.226 C 
ENDBRANCH  40  42
ENDBRANCH  34  40
ENDBRANCH  33  37
ENDBRANCH   1  33
TORSDOF 25
ENDMDL
MODEL 7
REMARK VINA RESULT:      -7.4      2.830      8.943
REMARK  Name = *****
REMARK                            x       y       z     vdW  Elec       q    Type
REMARK                         _______ _______ _______ _____ _____    ______ ____
ROOT
ATOM      1  C   LIG    1       26.251 -22.939   6.658  0.00  0.00    +0.076 C 
ENDROOT
BRANCH   1   2
ATOM      2  C   LIG    1       25.755 -24.247   7.422  0.00  0.00    +0.104 C 
BRANCH   2   3
ATOM      3  N   LIG    1       25.775 -25.517   6.744  0.00  0.00    -0.290 NA
BRANCH   3   4
ATOM      4  C   LIG    1       26.271 -26.703   7.611  0.00  0.00    +0.100 C 
BRANCH   4   5
ATOM      5  C   LIG    1       26.181 -28.357   7.334  0.00  0.00    +0.101 C 
BRANCH   5   6
ATOM      6  N   LIG    1       25.254 -29.325   8.028  0.00  0.00    -0.281 NA
BRANCH   6   7
ATOM      7  C   LIG    1       24.957 -30.695   7.460  0.00  0.00    +0.206 C 
BRANCH   7   8
ATOM      8  C   LIG    1       23.805 -30.935   6.234  0.00  0.00    +0.319 C 
ATOM      9  O   LIG    1       23.188 -31.890   5.753  0.00  0.00    -0.250 OA
BRANCH   8  10
ATOM     10  O   LIG    1       23.303 -29.784   5.757  0.00  0.00    -0.480 OA
ATOM     11  H   LIG    1       24.204 -29.346   5.778  0.00  0.00    +0.295 HD
ENDBRANCH   8  10
ENDBRANCH   7   8
ENDBRANCH   6   7
BRANCH   6  12
ATOM     12  C   LIG    1       25.475 -29.513   9.492  0.00  0.00    +0.206 C 
BRANCH  12  13
ATOM     13  C   LIG    1       26.882 -30.040   9.788  0.00  0.00    +0.319 C 
ATOM     14  O   LIG    1       27.268 -31.197   9.790  0.00  0.00    -0.250 OA
BRANCH  13  15
ATOM     15  O   LIG    1       27.736 -29.095  10.222  0.00  0.00    -0.480 OA
ATOM     16  H   LIG    1       27.538 -28.338   9.626  0.00  0.00    +0.295 HD
ENDBRANCH  13  15
ENDBRANCH  12  13
ENDBRANCH   6  12
ENDBRANCH   5   6
ENDBRANCH   4   5
ENDBRANCH   3   4
BRANCH   3  17
ATOM     17  C   LIG    1       24.573 -25.663   5.896  0.00  0.00    +0.205 C 
BRANCH  17  18
ATOM     18  C   LIG    1       24.989 -25.480   4.568  0.00  0.00    +0.319 C 
ATOM     19  O   LIG    1       25.841 -26.394   4.126  0.00  0.00    -0.250 OA
BRANCH  18  20
ATOM     20  O   LIG    1       24.777 -24.368   3.927  0.00  0.00    -0.480 OA
ATOM     21  H   LIG    1       25.051 -24.574   2.963  0.00  0.00    +0.295 HD
ENDBRANCH  18  20
ENDBRANCH  17  18
ENDBRANCH   3  17
ENDBRANCH   2   3
ENDBRANCH   1   2
BRANCH   1  22
ATOM     22  N   LIG    1       25.087 -22.310   5.909  0.00  0.00    -0.278 NA
BRANCH  22  23
ATOM     23  C   LIG    1       25.312 -20.879   5.516  0.00  0.00    +0.206 C 
BRANCH  23  24
ATOM     24  C   LIG    1       24.836 -20.484   4.121  0.00  0.00    +0.319 C 
ATOM     25  O   LIG    1       25.147 -19.444   3.559  0.00  0.00    -0.250 OA
BRANCH  24  26
ATOM     26  O   LIG    1       24.012 -21.394   3.531  0.00  0.00    -0.480 OA
ATOM     27  H   LIG    1       23.078 -21.361   3.828  0.00  0.00    +0.295 HD
ENDBRANCH  24  26
ENDBRANCH  23  24
ENDBRANCH  22  23
BRANCH  22  28
ATOM     28  C   LIG    1       23.986 -22.259   6.883  0.00  0.00    +0.206 C 
BRANCH  28  29
ATOM     29  C   LIG    1       22.619 -22.751   6.530  0.00  0.00    +0.319 C 
ATOM     30  O   LIG    1       22.157 -23.806   6.942  0.00  0.00    -0.250 OA
BRANCH  29  31
ATOM     31  O   LIG    1       22.042 -21.991   5.575  0.00  0.00    -0.480 OA
ATOM     32  H   LIG    1       21.213 -22.409   5.251  0.00  0.00    +0.295 HD
ENDBRANCH  29  31
ENDBRANCH  28  29
ENDBRANCH  22  28
ENDBRANCH   1  22
BRANCH   1  33
ATOM     33  C   LIG    1       27.115 -22.042   7.661  0.00  0.00    +0.055 C 
BRANCH  33  37
ATOM     34  C   LIG    1       30.591 -19.260   7.401  0.00  0.00    +0.120 A 
ATOM     35  C   LIG    1       29.546 -19.111   6.520  0.00  0.00    +0.046 A 
ATOM     36  C   LIG    1       28.533 -20.107   6.432  0.00  0.00    +0.007 A 
ATOM     37  C   LIG    1       28.381 -21.189   7.326  0.00  0.00    -0.046 A 
ATOM     38  C   LIG    1       29.480 -21.374   8.157  0.00  0.00    +0.007 A 
ATOM     39  C   LIG    1       30.521 -20.400   8.233  0.00  0.00    +0.046 A 
BRANCH  34  40
ATOM     40  O   LIG    1       31.624 -18.358   7.571  0.00  0.00    -0.492 OA
BRANCH  40  42
ATOM     41  C   LIG    1       30.785 -16.975   9.474  0.00  0.00    +0.048 C 
ATOM     42  C   LIG    1       31.937 -17.833   8.894  0.00  0.00    +0.226 C 
ENDBRANCH  40  42
ENDBRANCH  34  40
ENDBRANCH  33  37
ENDBRANCH   1  33
TORSDOF 25
ENDMDL
MODEL 8
REMARK VINA RESULT:      -7.3      0.613      1.870
REMARK  Name = *****
REMARK                            x       y       z     vdW  Elec       q    Type
REMARK                         _______ _______ _______ _____ _____    ______ ____
ROOT
ATOM      1  C   LIG    1       25.816 -21.835   6.870  0.00  0.00    +0.076 C 
ENDROOT
BRANCH   1   2
ATOM      2  C   LIG    1       27.384 -21.674   6.638  0.00  0.00    +0.104 C 
BRANCH   2   3
ATOM      3  N   LIG    1       27.995 -20.378   6.779  0.00  0.00    -0.290 NA
BRANCH   3   4
ATOM      4  C   LIG    1       28.259 -19.947   8.246  0.00  0.00    +0.100 C 
BRANCH   4   5
ATOM      5  C   LIG    1       29.400 -18.885   8.871  0.00  0.00    +0.101 C 
BRANCH   5   6
ATOM      6  N   LIG    1       30.892 -19.104   8.906  0.00  0.00    -0.281 NA
BRANCH   6   7
ATOM      7  C   LIG    1       31.530 -20.363   8.363  0.00  0.00    +0.206 C 
BRANCH   7   8
ATOM      8  C   LIG    1       31.395 -21.859   9.157  0.00  0.00    +0.319 C 
ATOM      9  O   LIG    1       31.812 -23.009   8.987  0.00  0.00    -0.250 OA
BRANCH   8  10
ATOM     10  O   LIG    1       30.826 -21.758  10.369  0.00  0.00    -0.480 OA
ATOM     11  H   LIG    1       31.652 -21.346  10.757  0.00  0.00    +0.295 HD
ENDBRANCH   8  10
ENDBRANCH   7   8
ENDBRANCH   6   7
BRANCH   6  12
ATOM     12  C   LIG    1       31.736 -17.966   8.435  0.00  0.00    +0.206 C 
BRANCH  12  13
ATOM     13  C   LIG    1       32.407 -17.238   9.604  0.00  0.00    +0.319 C 
ATOM     14  O   LIG    1       32.385 -17.533  10.786  0.00  0.00    -0.250 OA
BRANCH  13  15
ATOM     15  O   LIG    1       32.969 -16.064   9.261  0.00  0.00    -0.480 OA
ATOM     16  H   LIG    1       32.684 -15.955   8.327  0.00  0.00    +0.295 HD
ENDBRANCH  13  15
ENDBRANCH  12  13
ENDBRANCH   6  12
ENDBRANCH   5   6
ENDBRANCH   4   5
ENDBRANCH   3   4
BRANCH   3  17
ATOM     17  C   LIG    1       29.033 -20.186   5.745  0.00  0.00    +0.205 C 
BRANCH  17  18
ATOM     18  C   LIG    1       29.134 -18.803   5.524  0.00  0.00    +0.319 C 
ATOM     19  O   LIG    1       28.139 -18.283   4.819  0.00  0.00    -0.250 OA
BRANCH  18  20
ATOM     20  O   LIG    1       30.235 -18.148   5.749  0.00  0.00    -0.480 OA
ATOM     21  H   LIG    1       30.976 -18.843   5.618  0.00  0.00    +0.295 HD
ENDBRANCH  18  20
ENDBRANCH  17  18
ENDBRANCH   3  17
ENDBRANCH   2   3
ENDBRANCH   1   2
BRANCH   1  22
ATOM     22  N   LIG    1       25.060 -21.302   5.663  0.00  0.00    -0.278 NA
BRANCH  22  23
ATOM     23  C   LIG    1       25.634 -20.041   5.087  0.00  0.00    +0.206 C 
BRANCH  23  24
ATOM     24  C   LIG    1       25.184 -19.684   3.674  0.00  0.00    +0.319 C 
ATOM     25  O   LIG    1       24.479 -20.398   2.977  0.00  0.00    -0.250 OA
BRANCH  24  26
ATOM     26  O   LIG    1       25.641 -18.481   3.227  0.00  0.00    -0.480 OA
ATOM     27  H   LIG    1       26.355 -18.532   2.557  0.00  0.00    +0.295 HD
ENDBRANCH  24  26
ENDBRANCH  23  24
ENDBRANCH  22  23
BRANCH  22  28
ATOM     28  C   LIG    1       23.740 -20.908   6.180  0.00  0.00    +0.206 C 
BRANCH  28  29
ATOM     29  C   LIG    1       22.481 -21.388   5.533  0.00  0.00    +0.319 C 
ATOM     30  O   LIG    1       21.749 -20.668   4.869  0.00  0.00    -0.250 OA
BRANCH  29  31
ATOM     31  O   LIG    1       22.165 -22.643   5.919  0.00  0.00    -0.480 OA
ATOM     32  H   LIG    1       21.771 -23.147   5.173  0.00  0.00    +0.295 HD
ENDBRANCH  29  31
ENDBRANCH  28  29
ENDBRANCH  22  28
ENDBRANCH   1  22
BRANCH   1  33
ATOM     33  C   LIG    1       25.513 -23.316   7.394  0.00  0.00    +0.055 C 
BRANCH  33  37
ATOM     34  C   LIG    1       25.033 -27.381   5.623  0.00  0.00    +0.120 A 
ATOM     35  C   LIG    1       26.294 -26.932   5.940  0.00  0.00    +0.046 A 
ATOM     36  C   LIG    1       26.503 -25.571   6.299  0.00  0.00    +0.007 A 
ATOM     37  C   LIG    1       25.479 -24.634   6.555  0.00  0.00    -0.046 A 
ATOM     38  C   LIG    1       24.221 -25.072   6.156  0.00  0.00    +0.007 A 
ATOM     39  C   LIG    1       24.000 -26.427   5.764  0.00  0.00    +0.046 A 
BRANCH  34  40
ATOM     40  O   LIG    1       24.716 -28.678   5.266  0.00  0.00    -0.492 OA
BRANCH  40  42
ATOM     41  C   LIG    1       24.666 -29.435   7.645  0.00  0.00    +0.048 C 
ATOM     42  C   LIG    1       24.073 -29.572   6.220  0.00  0.00    +0.226 C 
ENDBRANCH  40  42
ENDBRANCH  34  40
ENDBRANCH  33  37
ENDBRANCH   1  33
TORSDOF 25
ENDMDL
MODEL 9
REMARK VINA RESULT:      -7.0      1.769      3.420
REMARK  Name = *****
REMARK                            x       y       z     vdW  Elec       q    Type
REMARK                         _______ _______ _______ _____ _____    ______ ____
ROOT
ATOM      1  C   LIG    1       24.908 -22.137   5.841  0.00  0.00    +0.076 C 
ENDROOT
BRANCH   1   2
ATOM      2  C   LIG    1       25.100 -21.014   4.727  0.00  0.00    +0.104 C 
BRANCH   2   3
ATOM      3  N   LIG    1       26.113 -20.007   4.899  0.00  0.00    -0.290 NA
BRANCH   3   4
ATOM      4  C   LIG    1       27.245 -20.393   5.886  0.00  0.00    +0.100 C 
BRANCH   4   5
ATOM      5  C   LIG    1       28.699 -19.621   6.220  0.00  0.00    +0.101 C 
BRANCH   5   6
ATOM      6  N   LIG    1       29.610 -19.908   7.387  0.00  0.00    -0.281 NA
BRANCH   6   7
ATOM      7  C   LIG    1       29.844 -18.896   8.488  0.00  0.00    +0.206 C 
BRANCH   7   8
ATOM      8  C   LIG    1       31.402 -18.376   8.921  0.00  0.00    +0.319 C 
ATOM      9  O   LIG    1       32.025 -18.172   9.967  0.00  0.00    -0.250 OA
BRANCH   8  10
ATOM     10  O   LIG    1       32.242 -18.317   7.874  0.00  0.00    -0.480 OA
ATOM     11  H   LIG    1       32.482 -17.367   8.080  0.00  0.00    +0.295 HD
ENDBRANCH   8  10
ENDBRANCH   7   8
ENDBRANCH   6   7
BRANCH   6  12
ATOM     12  C   LIG    1       29.424 -21.228   8.058  0.00  0.00    +0.206 C 
BRANCH  12  13
ATOM     13  C   LIG    1       30.678 -21.651   8.830  0.00  0.00    +0.319 C 
ATOM     14  O   LIG    1       30.765 -21.980  10.000  0.00  0.00    -0.250 OA
BRANCH  13  15
ATOM     15  O   LIG    1       31.820 -21.502   8.134  0.00  0.00    -0.480 OA
ATOM     16  H   LIG    1       32.507 -21.558   8.836  0.00  0.00    +0.295 HD
ENDBRANCH  13  15
ENDBRANCH  12  13
ENDBRANCH   6  12
ENDBRANCH   5   6
ENDBRANCH   4   5
ENDBRANCH   3   4
BRANCH   3  17
ATOM     17  C   LIG    1       26.436 -19.379   3.601  0.00  0.00    +0.205 C 
BRANCH  17  18
ATOM     18  C   LIG    1       25.719 -18.173   3.544  0.00  0.00    +0.319 C 
ATOM     19  O   LIG    1       24.401 -18.316   3.510  0.00  0.00    -0.250 OA
BRANCH  18  20
ATOM     20  O   LIG    1       26.297 -17.040   3.269  0.00  0.00    -0.480 OA
ATOM     21  H   LIG    1       25.744 -16.343   3.776  0.00  0.00    +0.295 HD
ENDBRANCH  18  20
ENDBRANCH  17  18
ENDBRANCH   3  17
ENDBRANCH   2   3
ENDBRANCH   1   2
BRANCH   1  22
ATOM     22  N   LIG    1       23.614 -21.892   6.602  0.00  0.00    -0.278 NA
BRANCH  22  23
ATOM     23  C   LIG    1       23.056 -20.510   6.432  0.00  0.00    +0.206 C 
BRANCH  23  24
ATOM     24  C   LIG    1       22.135 -20.301   5.234  0.00  0.00    +0.319 C 
ATOM     25  O   LIG    1       21.468 -21.186   4.718  0.00  0.00    -0.250 OA
BRANCH  24  26
ATOM     26  O   LIG    1       22.112 -19.024   4.760  0.00  0.00    -0.480 OA
ATOM     27  H   LIG    1       22.038 -18.945   3.786  0.00  0.00    +0.295 HD
ENDBRANCH  24  26
ENDBRANCH  23  24
ENDBRANCH  22  23
BRANCH  22  28
ATOM     28  C   LIG    1       23.984 -21.971   8.024  0.00  0.00    +0.206 C 
BRANCH  28  29
ATOM     29  C   LIG    1       25.372 -21.655   8.480  0.00  0.00    +0.319 C 
ATOM     30  O   LIG    1       26.224 -22.509   8.683  0.00  0.00    -0.250 OA
BRANCH  29  31
ATOM     31  O   LIG    1       25.510 -20.353   8.809  0.00  0.00    -0.480 OA
ATOM     32  H   LIG    1       25.236 -20.199   9.740  0.00  0.00    +0.295 HD
ENDBRANCH  29  31
ENDBRANCH  28  29
ENDBRANCH  22  28
ENDBRANCH   1  22
BRANCH   1  33
ATOM     33  C   LIG    1       25.174 -23.574   5.190  0.00  0.00    +0.055 C 
BRANCH  33  37
ATOM     34  C   LIG    1       25.225 -27.770   6.701  0.00  0.00    +0.120 A 
ATOM     35  C   LIG    1       24.225 -27.379   5.841  0.00  0.00    +0.046 A 
ATOM     36  C   LIG    1       24.054 -26.004   5.516  0.00  0.00    +0.007 A 
ATOM     37  C   LIG    1       24.959 -24.973   5.852  0.00  0.00    -0.046 A 
ATOM     38  C   LIG    1       25.915 -25.364   6.782  0.00  0.00    +0.007 A 
ATOM     39  C   LIG    1       26.079 -26.735   7.143  0.00  0.00    +0.046 A 
BRANCH  34  40
ATOM     40  O   LIG    1       25.482 -29.073   7.081  0.00  0.00    -0.492 OA
BRANCH  40  42
ATOM     41  C   LIG    1       24.029 -30.074   8.848  0.00  0.00    +0.048 C 
ATOM     42  C   LIG    1       25.405 -29.463   8.483  0.00  0.00    +0.226 C 
ENDBRANCH  40  42
ENDBRANCH  34  40
ENDBRANCH  33  37
ENDBRANCH   1  33
TORSDOF 25
ENDMDL
