MODEL 1
REMARK VINA RESULT:      -5.1      0.000      0.000
REMARK  Name = *****
REMARK                            x       y       z     vdW  Elec       q    Type
REMARK                         _______ _______ _______ _____ _____    ______ ____
ROOT
ATOM      1  C   LIG    1       26.177 -20.038   4.881  0.00  0.00    +0.022 C 
ENDROOT
BRANCH   1   2
ATOM      2  C   LIG    1       26.118 -21.110   5.998  0.00  0.00    +0.051 C 
ATOM      3  C   LIG    1       25.070 -20.772   7.062  0.00  0.00    +0.024 C 
BRANCH   2   5
ATOM      4  C   LIG    1       28.326 -20.087   6.292  0.00  0.00    +0.101 C 
ATOM      5  N   LIG    1       27.463 -21.224   6.600  0.00  0.00    -0.317 NA
ATOM      6  H   LIG    1       27.369 -21.287   7.615  0.00  0.00    +0.122 HD
ENDBRANCH   2   5
ENDBRANCH   1   2
BRANCH   1   7
ATOM      7  C   LIG    1       25.142 -20.188   3.753  0.00  0.00    +0.029 C 
BRANCH   7   8
ATOM      8  C   LIG    1       24.048 -19.154   3.814  0.00  0.00    -0.028 C 
ATOM      9  C   LIG    1       22.829 -19.261   4.368  0.00  0.00    -0.080 C 
ATOM     10  C   LIG    1       21.843 -18.124   4.263  0.00  0.00    +0.038 C 
ATOM     11  C   LIG    1       22.303 -20.460   5.113  0.00  0.00    +0.038 C 
ENDBRANCH   7   8
ENDBRANCH   1   7
TORSDOF 4
ENDMDL
MODEL 2
REMARK VINA RESULT:      -4.7      4.530      5.587
REMARK  Name = *****
REMARK                            x       y       z     vdW  Elec       q    Type
REMARK                         _______ _______ _______ _____ _____    ______ ____
ROOT
ATOM      1  C   LIG    1       25.874 -15.911   3.384  0.00  0.00    +0.022 C 
ENDROOT
BRANCH   1   2
ATOM      2  C   LIG    1       26.980 -14.834   3.249  0.00  0.00    +0.051 C 
ATOM      3  C   LIG    1       27.078 -13.953   4.497  0.00  0.00    +0.024 C 
BRANCH   2   5
ATOM      4  C   LIG    1       25.527 -13.150   2.219  0.00  0.00    +0.101 C 
ATOM      5  N   LIG    1       26.688 -14.020   2.051  0.00  0.00    -0.317 NA
ATOM      6  H   LIG    1       27.497 -13.434   1.841  0.00  0.00    +0.122 HD
ENDBRANCH   2   5
ENDBRANCH   1   2
BRANCH   1   7
ATOM      7  C   LIG    1       26.356 -17.372   3.379  0.00  0.00    +0.029 C 
BRANCH   7   8
ATOM      8  C   LIG    1       25.225 -18.367   3.378  0.00  0.00    -0.028 C 
ATOM      9  C   LIG    1       25.140 -19.534   4.037  0.00  0.00    -0.080 C 
ATOM     10  C   LIG    1       23.940 -20.429   3.850  0.00  0.00    +0.038 C 
ATOM     11  C   LIG    1       26.172 -20.086   4.987  0.00  0.00    +0.038 C 
ENDBRANCH   7   8
ENDBRANCH   1   7
TORSDOF 4
ENDMDL
MODEL 3
REMARK VINA RESULT:      -4.6      4.535      5.525
REMARK  Name = *****
REMARK                            x       y       z     vdW  Elec       q    Type
REMARK                         _______ _______ _______ _____ _____    ______ ____
ROOT
ATOM      1  C   LIG    1       27.024 -16.146   3.592  0.00  0.00    +0.022 C 
ENDROOT
BRANCH   1   2
ATOM      2  C   LIG    1       27.136 -14.614   3.384  0.00  0.00    +0.051 C 
ATOM      3  C   LIG    1       26.513 -13.831   4.543  0.00  0.00    +0.024 C 
BRANCH   2   5
ATOM      4  C   LIG    1       25.493 -13.205   2.234  0.00  0.00    +0.101 C 
ATOM      5  N   LIG    1       26.480 -14.273   2.104  0.00  0.00    -0.317 NA
ATOM      6  H   LIG    1       27.191 -13.971   1.437  0.00  0.00    +0.122 HD
ENDBRANCH   2   5
ENDBRANCH   1   2
BRANCH   1   7
ATOM      7  C   LIG    1       25.658 -16.769   3.261  0.00  0.00    +0.029 C 
BRANCH   7   8
ATOM      8  C   LIG    1       25.641 -18.268   3.409  0.00  0.00    -0.028 C 
ATOM      9  C   LIG    1       24.606 -19.064   3.727  0.00  0.00    -0.080 C 
ATOM     10  C   LIG    1       24.811 -20.549   3.893  0.00  0.00    +0.038 C 
ATOM     11  C   LIG    1       23.188 -18.612   3.960  0.00  0.00    +0.038 C 
ENDBRANCH   7   8
ENDBRANCH   1   7
TORSDOF 4
ENDMDL
MODEL 4
REMARK VINA RESULT:      -4.5      1.043      1.557
REMARK  Name = *****
REMARK                            x       y       z     vdW  Elec       q    Type
REMARK                         _______ _______ _______ _____ _____    ______ ____
ROOT
ATOM      1  C   LIG    1       26.092 -19.339   4.600  0.00  0.00    +0.022 C 
ENDROOT
BRANCH   1   2
ATOM      2  C   LIG    1       26.750 -20.447   5.461  0.00  0.00    +0.051 C 
ATOM      3  C   LIG    1       26.242 -20.427   6.906  0.00  0.00    +0.024 C 
BRANCH   2   5
ATOM      4  C   LIG    1       28.868 -20.534   6.691  0.00  0.00    +0.101 C 
ATOM      5  N   LIG    1       28.215 -20.259   5.414  0.00  0.00    -0.317 NA
ATOM      6  H   LIG    1       28.608 -20.889   4.713  0.00  0.00    +0.122 HD
ENDBRANCH   2   5
ENDBRANCH   1   2
BRANCH   1   7
ATOM      7  C   LIG    1       25.126 -19.824   3.507  0.00  0.00    +0.029 C 
BRANCH   7   8
ATOM      8  C   LIG    1       24.015 -20.691   4.042  0.00  0.00    -0.028 C 
ATOM      9  C   LIG    1       22.854 -20.310   4.600  0.00  0.00    -0.080 C 
ATOM     10  C   LIG    1       21.895 -21.340   5.140  0.00  0.00    +0.038 C 
ATOM     11  C   LIG    1       22.383 -18.888   4.766  0.00  0.00    +0.038 C 
ENDBRANCH   7   8
ENDBRANCH   1   7
TORSDOF 4
ENDMDL
MODEL 5
REMARK VINA RESULT:      -4.4      1.015      1.662
REMARK  Name = *****
REMARK                            x       y       z     vdW  Elec       q    Type
REMARK                         _______ _______ _______ _____ _____    ______ ____
ROOT
ATOM      1  C   LIG    1       24.973 -21.073   4.777  0.00  0.00    +0.022 C 
ENDROOT
BRANCH   1   2
ATOM      2  C   LIG    1       26.254 -21.000   5.646  0.00  0.00    +0.051 C 
ATOM      3  C   LIG    1       25.962 -20.478   7.055  0.00  0.00    +0.024 C 
BRANCH   2   5
ATOM      4  C   LIG    1       28.360 -19.755   5.800  0.00  0.00    +0.101 C 
ATOM      5  N   LIG    1       27.231 -20.133   4.954  0.00  0.00    -0.317 NA
ATOM      6  H   LIG    1       27.595 -20.628   4.139  0.00  0.00    +0.122 HD
ENDBRANCH   2   5
ENDBRANCH   1   2
BRANCH   1   7
ATOM      7  C   LIG    1       23.650 -21.231   5.547  0.00  0.00    +0.029 C 
BRANCH   7   8
ATOM      8  C   LIG    1       22.627 -20.187   5.183  0.00  0.00    -0.028 C 
ATOM      9  C   LIG    1       22.788 -19.088   4.427  0.00  0.00    -0.080 C 
ATOM     10  C   LIG    1       21.646 -18.122   4.235  0.00  0.00    +0.038 C 
ATOM     11  C   LIG    1       24.056 -18.686   3.719  0.00  0.00    +0.038 C 
ENDBRANCH   7   8
ENDBRANCH   1   7
TORSDOF 4
ENDMDL
MODEL 6
REMARK VINA RESULT:      -4.4      1.958      4.973
REMARK  Name = *****
REMARK                            x       y       z     vdW  Elec       q    Type
REMARK                         _______ _______ _______ _____ _____    ______ ____
ROOT
ATOM      1  C   LIG    1       24.643 -21.410   5.086  0.00  0.00    +0.022 C 
ENDROOT
BRANCH   1   2
ATOM      2  C   LIG    1       23.893 -20.402   4.179  0.00  0.00    +0.051 C 
ATOM      3  C   LIG    1       24.821 -19.301   3.658  0.00  0.00    +0.024 C 
BRANCH   2   5
ATOM      4  C   LIG    1       22.336 -18.529   4.449  0.00  0.00    +0.101 C 
ATOM      5  N   LIG    1       22.774 -19.826   4.955  0.00  0.00    -0.317 NA
ATOM      6  H   LIG    1       21.981 -20.467   4.919  0.00  0.00    +0.122 HD
ENDBRANCH   2   5
ENDBRANCH   1   2
BRANCH   1   7
ATOM      7  C   LIG    1       24.954 -20.925   6.513  0.00  0.00    +0.029 C 
BRANCH   7   8
ATOM      8  C   LIG    1       26.359 -21.248   6.953  0.00  0.00    -0.028 C 
ATOM      9  C   LIG    1       27.510 -20.688   6.546  0.00  0.00    -0.080 C 
ATOM     10  C   LIG    1       28.831 -21.203   7.062  0.00  0.00    +0.038 C 
ATOM     11  C   LIG    1       27.637 -19.548   5.569  0.00  0.00    +0.038 C 
ENDBRANCH   7   8
ENDBRANCH   1   7
TORSDOF 4
ENDMDL
MODEL 7
REMARK VINA RESULT:      -4.4      3.370      4.228
REMARK  Name = *****
REMARK                            x       y       z     vdW  Elec       q    Type
REMARK                         _______ _______ _______ _____ _____    ______ ____
ROOT
ATOM      1  C   LIG    1       24.837 -18.489   3.647  0.00  0.00    +0.022 C 
ENDROOT
BRANCH   1   2
ATOM      2  C   LIG    1       25.286 -19.971   3.715  0.00  0.00    +0.051 C 
ATOM      3  C   LIG    1       24.167 -20.887   4.216  0.00  0.00    +0.024 C 
BRANCH   2   5
ATOM      4  C   LIG    1       26.146 -20.498   5.949  0.00  0.00    +0.101 C 
ATOM      5  N   LIG    1       26.470 -20.054   4.596  0.00  0.00    -0.317 NA
ATOM      6  H   LIG    1       27.137 -20.714   4.195  0.00  0.00    +0.122 HD
ENDBRANCH   2   5
ENDBRANCH   1   2
BRANCH   1   7
ATOM      7  C   LIG    1       25.945 -17.466   3.347  0.00  0.00    +0.029 C 
BRANCH   7   8
ATOM      8  C   LIG    1       25.443 -16.046   3.305  0.00  0.00    -0.028 C 
ATOM      9  C   LIG    1       26.119 -14.913   3.561  0.00  0.00    -0.080 C 
ATOM     10  C   LIG    1       25.412 -13.582   3.531  0.00  0.00    +0.038 C 
ATOM     11  C   LIG    1       27.583 -14.821   3.905  0.00  0.00    +0.038 C 
ENDBRANCH   7   8
ENDBRANCH   1   7
TORSDOF 4
ENDMDL
MODEL 8
REMARK VINA RESULT:      -4.3      3.474      4.473
REMARK  Name = *****
REMARK                            x       y       z     vdW  Elec       q    Type
REMARK                         _______ _______ _______ _____ _____    ______ ____
ROOT
ATOM      1  C   LIG    1       26.034 -18.733   3.611  0.00  0.00    +0.022 C 
ENDROOT
BRANCH   1   2
ATOM      2  C   LIG    1       24.988 -19.876   3.649  0.00  0.00    +0.051 C 
ATOM      3  C   LIG    1       23.589 -19.361   3.998  0.00  0.00    +0.024 C 
BRANCH   2   5
ATOM      4  C   LIG    1       24.751 -20.779   5.915  0.00  0.00    +0.101 C 
ATOM      5  N   LIG    1       25.440 -20.883   4.632  0.00  0.00    -0.317 NA
ATOM      6  H   LIG    1       25.270 -21.816   4.254  0.00  0.00    +0.122 HD
ENDBRANCH   2   5
ENDBRANCH   1   2
BRANCH   1   7
ATOM      7  C   LIG    1       25.484 -17.330   3.305  0.00  0.00    +0.029 C 
BRANCH   7   8
ATOM      8  C   LIG    1       26.540 -16.257   3.357  0.00  0.00    -0.028 C 
ATOM      9  C   LIG    1       26.381 -14.939   3.565  0.00  0.00    -0.080 C 
ATOM     10  C   LIG    1       27.569 -14.012   3.512  0.00  0.00    +0.038 C 
ATOM     11  C   LIG    1       25.075 -14.244   3.850  0.00  0.00    +0.038 C 
ENDBRANCH   7   8
ENDBRANCH   1   7
TORSDOF 4
ENDMDL
MODEL 9
REMARK VINA RESULT:      -4.2      1.795      4.876
REMARK  Name = *****
REMARK                            x       y       z     vdW  Elec       q    Type
REMARK                         _______ _______ _______ _____ _____    ______ ____
ROOT
ATOM      1  C   LIG    1       25.024 -19.262   4.182  0.00  0.00    +0.022 C 
ENDROOT
BRANCH   1   2
ATOM      2  C   LIG    1       23.669 -19.842   3.702  0.00  0.00    +0.051 C 
ATOM      3  C   LIG    1       22.498 -18.913   4.034  0.00  0.00    +0.024 C 
BRANCH   2   5
ATOM      4  C   LIG    1       22.721 -21.109   5.575  0.00  0.00    +0.101 C 
ATOM      5  N   LIG    1       23.485 -21.167   4.331  0.00  0.00    -0.317 NA
ATOM      6  H   LIG    1       22.989 -21.778   3.681  0.00  0.00    +0.122 HD
ENDBRANCH   2   5
ENDBRANCH   1   2
BRANCH   1   7
ATOM      7  C   LIG    1       25.916 -20.222   4.987  0.00  0.00    +0.029 C 
BRANCH   7   8
ATOM      8  C   LIG    1       27.277 -19.651   5.288  0.00  0.00    -0.028 C 
ATOM      9  C   LIG    1       28.185 -20.082   6.180  0.00  0.00    -0.080 C 
ATOM     10  C   LIG    1       29.474 -19.325   6.380  0.00  0.00    +0.038 C 
ATOM     11  C   LIG    1       28.046 -21.298   7.059  0.00  0.00    +0.038 C 
ENDBRANCH   7   8
ENDBRANCH   1   7
TORSDOF 4
ENDMDL
