MODEL 1
REMARK VINA RESULT:      -7.0      0.000      0.000
REMARK  Name = *****
REMARK                            x       y       z     vdW  Elec       q    Type
REMARK                         _______ _______ _______ _____ _____    ______ ____
ROOT
ATOM      1  C   LIG    1       30.250 -20.029   8.787  0.00  0.00    +0.253 C 
ATOM      2  N   LIG    1       29.914 -20.290   7.392  0.00  0.00    -0.245 N 
ATOM      3  C   LIG    1       30.504 -19.227   6.555  0.00  0.00    +0.274 C 
ATOM      4  C   LIG    1       29.133 -19.060   5.883  0.00  0.00    +0.161 C 
ATOM      5  O   LIG    1       30.997 -18.157   7.392  0.00  0.00    -0.472 OA
ATOM      6  C   LIG    1       28.637 -20.001   6.986  0.00  0.00    +0.224 C 
ATOM      7  O   LIG    1       27.576 -20.308   7.471  0.00  0.00    -0.275 OA
ATOM      8  C   LIG    1       30.846 -18.637   8.700  0.00  0.00    +0.130 C 
ATOM      9  C   LIG    1       31.131 -17.857   9.754  0.00  0.00    +0.044 C 
ENDROOT
BRANCH   1  11
ATOM     10  O   LIG    1       32.465 -21.009   9.150  0.00  0.00    -0.248 OA
ATOM     11  C   LIG    1       31.254 -21.074   9.297  0.00  0.00    +0.333 C 
BRANCH  11  12
ATOM     12  O   LIG    1       30.670 -22.080  10.003  0.00  0.00    -0.479 OA
ATOM     13  H   LIG    1       29.710 -22.122   9.800  0.00  0.00    +0.295 HD
ENDBRANCH  11  12
ENDBRANCH   1  11
BRANCH   9  14
ATOM     14  C   LIG    1       31.689 -16.476   9.686  0.00  0.00    +0.186 C 
BRANCH  14  15
ATOM     15  O   LIG    1       32.658 -16.441   8.651  0.00  0.00    -0.391 OA
ATOM     16  H   LIG    1       33.135 -17.288   8.688  0.00  0.00    +0.210 HD
ENDBRANCH  14  15
ENDBRANCH   9  14
TORSDOF 4
ENDMDL
MODEL 2
REMARK VINA RESULT:      -6.7      1.571      3.992
REMARK  Name = *****
REMARK                            x       y       z     vdW  Elec       q    Type
REMARK                         _______ _______ _______ _____ _____    ______ ____
ROOT
ATOM      1  C   LIG    1       30.977 -20.430   8.364  0.00  0.00    +0.253 C 
ATOM      2  N   LIG    1       31.138 -19.284   9.253  0.00  0.00    -0.245 N 
ATOM      3  C   LIG    1       29.810 -18.694   9.510  0.00  0.00    +0.274 C 
ATOM      4  C   LIG    1       30.403 -17.322   9.158  0.00  0.00    +0.161 C 
ATOM      5  O   LIG    1       28.832 -19.272   8.618  0.00  0.00    -0.472 OA
ATOM      6  C   LIG    1       31.627 -18.126   8.705  0.00  0.00    +0.224 C 
ATOM      7  O   LIG    1       32.600 -17.939   8.017  0.00  0.00    -0.275 OA
ATOM      8  C   LIG    1       29.524 -20.292   7.951  0.00  0.00    +0.130 C 
ATOM      9  C   LIG    1       28.935 -20.994   6.971  0.00  0.00    +0.044 C 
ENDROOT
BRANCH   1  11
ATOM     10  O   LIG    1       30.692 -22.079  10.152  0.00  0.00    -0.248 OA
ATOM     11  C   LIG    1       31.256 -21.736   9.125  0.00  0.00    +0.333 C 
BRANCH  11  12
ATOM     12  O   LIG    1       32.167 -22.533   8.506  0.00  0.00    -0.479 OA
ATOM     13  H   LIG    1       31.713 -23.277   8.054  0.00  0.00    +0.295 HD
ENDBRANCH  11  12
ENDBRANCH   1  11
BRANCH   9  14
ATOM     14  C   LIG    1       27.517 -20.850   6.531  0.00  0.00    +0.186 C 
BRANCH  14  15
ATOM     15  O   LIG    1       27.514 -20.296   5.226  0.00  0.00    -0.391 OA
ATOM     16  H   LIG    1       27.462 -19.331   5.333  0.00  0.00    +0.210 HD
ENDBRANCH  14  15
ENDBRANCH   9  14
TORSDOF 4
ENDMDL
MODEL 3
REMARK VINA RESULT:      -6.6      1.699      4.225
REMARK  Name = *****
REMARK                            x       y       z     vdW  Elec       q    Type
REMARK                         _______ _______ _______ _____ _____    ______ ____
ROOT
ATOM      1  C   LIG    1       29.982 -18.815   8.313  0.00  0.00    +0.253 C 
ATOM      2  N   LIG    1       30.873 -17.682   8.541  0.00  0.00    -0.245 N 
ATOM      3  C   LIG    1       32.229 -18.193   8.818  0.00  0.00    +0.274 C 
ATOM      4  C   LIG    1       32.271 -17.279  10.052  0.00  0.00    +0.161 C 
ATOM      5  O   LIG    1       32.186 -19.623   9.021  0.00  0.00    -0.472 OA
ATOM      6  C   LIG    1       30.786 -17.046   9.752  0.00  0.00    +0.224 C 
ATOM      7  O   LIG    1       29.824 -16.621  10.343  0.00  0.00    -0.275 OA
ATOM      8  C   LIG    1       30.864 -19.980   8.720  0.00  0.00    +0.130 C 
ATOM      9  C   LIG    1       30.440 -21.242   8.886  0.00  0.00    +0.044 C 
ENDROOT
BRANCH   1  11
ATOM     10  O   LIG    1       30.195 -18.381   5.911  0.00  0.00    -0.248 OA
ATOM     11  C   LIG    1       29.566 -18.874   6.835  0.00  0.00    +0.333 C 
BRANCH  11  12
ATOM     12  O   LIG    1       28.434 -19.600   6.625  0.00  0.00    -0.479 OA
ATOM     13  H   LIG    1       28.614 -20.554   6.766  0.00  0.00    +0.295 HD
ENDBRANCH  11  12
ENDBRANCH   1  11
BRANCH   9  14
ATOM     14  C   LIG    1       31.285 -22.393   9.315  0.00  0.00    +0.186 C 
BRANCH  14  15
ATOM     15  O   LIG    1       32.381 -22.494   8.419  0.00  0.00    -0.391 OA
ATOM     16  H   LIG    1       32.873 -21.659   8.487  0.00  0.00    +0.210 HD
ENDBRANCH  14  15
ENDBRANCH   9  14
TORSDOF 4
ENDMDL
MODEL 4
REMARK VINA RESULT:      -6.3      5.199      7.641
REMARK  Name = *****
REMARK                            x       y       z     vdW  Elec       q    Type
REMARK                         _______ _______ _______ _____ _____    ______ ____
ROOT
ATOM      1  C   LIG    1       25.608 -21.831   6.908  0.00  0.00    +0.253 C 
ATOM      2  N   LIG    1       24.497 -20.901   6.734  0.00  0.00    -0.245 N 
ATOM      3  C   LIG    1       23.235 -21.666   6.733  0.00  0.00    +0.274 C 
ATOM      4  C   LIG    1       22.839 -20.921   5.449  0.00  0.00    +0.161 C 
ATOM      5  O   LIG    1       23.515 -23.081   6.650  0.00  0.00    -0.472 OA
ATOM      6  C   LIG    1       24.282 -20.404   5.475  0.00  0.00    +0.224 C 
ATOM      7  O   LIG    1       25.049 -19.892   4.697  0.00  0.00    -0.275 OA
ATOM      8  C   LIG    1       24.909 -23.169   6.756  0.00  0.00    +0.130 C 
ATOM      9  C   LIG    1       25.533 -24.351   6.632  0.00  0.00    +0.044 C 
ENDROOT
BRANCH   1  11
ATOM     10  O   LIG    1       25.625 -21.622   9.348  0.00  0.00    -0.248 OA
ATOM     11  C   LIG    1       26.243 -21.648   8.294  0.00  0.00    +0.333 C 
BRANCH  11  12
ATOM     12  O   LIG    1       27.601 -21.576   8.258  0.00  0.00    -0.479 OA
ATOM     13  H   LIG    1       27.933 -21.914   7.398  0.00  0.00    +0.295 HD
ENDBRANCH  11  12
ENDBRANCH   1  11
BRANCH   9  14
ATOM     14  C   LIG    1       24.864 -25.671   6.451  0.00  0.00    +0.186 C 
BRANCH  14  15
ATOM     15  O   LIG    1       23.974 -25.568   5.352  0.00  0.00    -0.391 OA
ATOM     16  H   LIG    1       24.430 -25.045   4.672  0.00  0.00    +0.210 HD
ENDBRANCH  14  15
ENDBRANCH   9  14
TORSDOF 4
ENDMDL
MODEL 5
REMARK VINA RESULT:      -6.2      5.040      7.867
REMARK  Name = *****
REMARK                            x       y       z     vdW  Elec       q    Type
REMARK                         _______ _______ _______ _____ _____    ______ ____
ROOT
ATOM      1  C   LIG    1       24.404 -21.255   7.039  0.00  0.00    +0.253 C 
ATOM      2  N   LIG    1       25.773 -20.775   7.195  0.00  0.00    -0.245 N 
ATOM      3  C   LIG    1       26.700 -21.828   6.737  0.00  0.00    +0.274 C 
ATOM      4  C   LIG    1       27.477 -21.650   8.050  0.00  0.00    +0.161 C 
ATOM      5  O   LIG    1       25.979 -23.062   6.525  0.00  0.00    -0.472 OA
ATOM      6  C   LIG    1       26.296 -20.764   8.462  0.00  0.00    +0.224 C 
ATOM      7  O   LIG    1       25.846 -20.316   9.488  0.00  0.00    -0.275 OA
ATOM      8  C   LIG    1       24.632 -22.717   6.702  0.00  0.00    +0.130 C 
ATOM      9  C   LIG    1       23.672 -23.653   6.660  0.00  0.00    +0.044 C 
ENDROOT
BRANCH   1  11
ATOM     10  O   LIG    1       22.635 -19.897   6.026  0.00  0.00    -0.248 OA
ATOM     11  C   LIG    1       23.697 -20.489   5.910  0.00  0.00    +0.333 C 
BRANCH  11  12
ATOM     12  O   LIG    1       24.406 -20.470   4.749  0.00  0.00    -0.479 OA
ATOM     13  H   LIG    1       23.806 -20.615   3.985  0.00  0.00    +0.295 HD
ENDBRANCH  11  12
ENDBRANCH   1  11
BRANCH   9  14
ATOM     14  C   LIG    1       23.882 -25.099   6.361  0.00  0.00    +0.186 C 
BRANCH  14  15
ATOM     15  O   LIG    1       24.347 -25.210   5.025  0.00  0.00    -0.391 OA
ATOM     16  H   LIG    1       24.319 -26.155   4.798  0.00  0.00    +0.210 HD
ENDBRANCH  14  15
ENDBRANCH   9  14
TORSDOF 4
ENDMDL
MODEL 6
REMARK VINA RESULT:      -6.1      4.336      6.355
REMARK  Name = *****
REMARK                            x       y       z     vdW  Elec       q    Type
REMARK                         _______ _______ _______ _____ _____    ______ ____
ROOT
ATOM      1  C   LIG    1       24.699 -21.416   6.002  0.00  0.00    +0.253 C 
ATOM      2  N   LIG    1       24.173 -20.929   4.731  0.00  0.00    -0.245 N 
ATOM      3  C   LIG    1       25.259 -20.245   4.001  0.00  0.00    +0.274 C 
ATOM      4  C   LIG    1       24.304 -19.062   3.783  0.00  0.00    +0.161 C 
ATOM      5  O   LIG    1       26.398 -20.061   4.869  0.00  0.00    -0.472 OA
ATOM      6  C   LIG    1       23.389 -19.804   4.763  0.00  0.00    +0.224 C 
ATOM      7  O   LIG    1       22.432 -19.540   5.449  0.00  0.00    -0.275 OA
ATOM      8  C   LIG    1       26.062 -20.753   6.041  0.00  0.00    +0.130 C 
ATOM      9  C   LIG    1       26.871 -20.722   7.111  0.00  0.00    +0.044 C 
ENDROOT
BRANCH   1  11
ATOM     10  O   LIG    1       24.812 -23.657   6.985  0.00  0.00    -0.248 OA
ATOM     11  C   LIG    1       24.784 -22.950   5.989  0.00  0.00    +0.333 C 
BRANCH  11  12
ATOM     12  O   LIG    1       24.763 -23.478   4.735  0.00  0.00    -0.479 OA
ATOM     13  H   LIG    1       25.412 -24.210   4.667  0.00  0.00    +0.295 HD
ENDBRANCH  11  12
ENDBRANCH   1  11
BRANCH   9  14
ATOM     14  C   LIG    1       28.200 -20.050   7.177  0.00  0.00    +0.186 C 
BRANCH  14  15
ATOM     15  O   LIG    1       29.113 -20.800   6.391  0.00  0.00    -0.391 OA
ATOM     16  H   LIG    1       28.592 -21.483   5.936  0.00  0.00    +0.210 HD
ENDBRANCH  14  15
ENDBRANCH   9  14
TORSDOF 4
ENDMDL
MODEL 7
REMARK VINA RESULT:      -6.0      4.251      6.659
REMARK  Name = *****
REMARK                            x       y       z     vdW  Elec       q    Type
REMARK                         _______ _______ _______ _____ _____    ______ ____
ROOT
ATOM      1  C   LIG    1       24.928 -21.756   5.934  0.00  0.00    +0.253 C 
ATOM      2  N   LIG    1       24.683 -23.098   6.451  0.00  0.00    -0.245 N 
ATOM      3  C   LIG    1       25.686 -23.395   7.493  0.00  0.00    +0.274 C 
ATOM      4  C   LIG    1       25.960 -24.729   6.782  0.00  0.00    +0.161 C 
ATOM      5  O   LIG    1       26.718 -22.385   7.486  0.00  0.00    -0.472 OA
ATOM      6  C   LIG    1       25.074 -24.156   5.671  0.00  0.00    +0.224 C 
ATOM      7  O   LIG    1       24.860 -24.387   4.507  0.00  0.00    -0.275 OA
ATOM      8  C   LIG    1       26.265 -21.426   6.570  0.00  0.00    +0.130 C 
ATOM      9  C   LIG    1       27.028 -20.371   6.247  0.00  0.00    +0.044 C 
ENDROOT
BRANCH   1  11
ATOM     10  O   LIG    1       23.194 -20.053   5.633  0.00  0.00    -0.248 OA
ATOM     11  C   LIG    1       23.808 -20.803   6.377  0.00  0.00    +0.333 C 
BRANCH  11  12
ATOM     12  O   LIG    1       23.502 -20.910   7.698  0.00  0.00    -0.479 OA
ATOM     13  H   LIG    1       24.243 -21.336   8.182  0.00  0.00    +0.295 HD
ENDBRANCH  11  12
ENDBRANCH   1  11
BRANCH   9  14
ATOM     14  C   LIG    1       28.358 -20.047   6.839  0.00  0.00    +0.186 C 
BRANCH  14  15
ATOM     15  O   LIG    1       29.224 -21.146   6.608  0.00  0.00    -0.391 OA
ATOM     16  H   LIG    1       28.660 -21.893   6.344  0.00  0.00    +0.210 HD
ENDBRANCH  14  15
ENDBRANCH   9  14
TORSDOF 4
ENDMDL
MODEL 8
REMARK VINA RESULT:      -5.9      3.919      6.344
REMARK  Name = *****
REMARK                            x       y       z     vdW  Elec       q    Type
REMARK                         _______ _______ _______ _____ _____    ______ ____
ROOT
ATOM      1  C   LIG    1       26.895 -20.267   6.593  0.00  0.00    +0.253 C 
ATOM      2  N   LIG    1       26.943 -21.390   7.523  0.00  0.00    -0.245 N 
ATOM      3  C   LIG    1       26.232 -22.535   6.921  0.00  0.00    +0.274 C 
ATOM      4  C   LIG    1       25.455 -22.684   8.238  0.00  0.00    +0.161 C 
ATOM      5  O   LIG    1       25.515 -22.106   5.743  0.00  0.00    -0.472 OA
ATOM      6  C   LIG    1       26.106 -21.347   8.608  0.00  0.00    +0.224 C 
ATOM      7  O   LIG    1       25.922 -20.471   9.417  0.00  0.00    -0.275 OA
ATOM      8  C   LIG    1       25.911 -20.775   5.556  0.00  0.00    +0.130 C 
ATOM      9  C   LIG    1       25.366 -20.027   4.584  0.00  0.00    +0.044 C 
ENDROOT
BRANCH   1  11
ATOM     10  O   LIG    1       28.587 -19.034   5.322  0.00  0.00    -0.248 OA
ATOM     11  C   LIG    1       28.290 -20.001   6.008  0.00  0.00    +0.333 C 
BRANCH  11  12
ATOM     12  O   LIG    1       29.214 -20.928   6.379  0.00  0.00    -0.479 OA
ATOM     13  H   LIG    1       29.464 -21.482   5.609  0.00  0.00    +0.295 HD
ENDBRANCH  11  12
ENDBRANCH   1  11
BRANCH   9  14
ATOM     14  C   LIG    1       24.376 -20.501   3.576  0.00  0.00    +0.186 C 
BRANCH  14  15
ATOM     15  O   LIG    1       23.390 -21.265   4.251  0.00  0.00    -0.391 OA
ATOM     16  H   LIG    1       23.226 -20.821   5.100  0.00  0.00    +0.210 HD
ENDBRANCH  14  15
ENDBRANCH   9  14
TORSDOF 4
ENDMDL
MODEL 9
REMARK VINA RESULT:      -5.8      1.420      3.679
REMARK  Name = *****
REMARK                            x       y       z     vdW  Elec       q    Type
REMARK                         _______ _______ _______ _____ _____    ______ ____
ROOT
ATOM      1  C   LIG    1       31.145 -18.867   7.862  0.00  0.00    +0.253 C 
ATOM      2  N   LIG    1       29.833 -18.454   7.376  0.00  0.00    -0.245 N 
ATOM      3  C   LIG    1       28.831 -19.445   7.815  0.00  0.00    +0.274 C 
ATOM      4  C   LIG    1       28.317 -19.498   6.368  0.00  0.00    +0.161 C 
ATOM      5  O   LIG    1       29.493 -20.610   8.354  0.00  0.00    -0.472 OA
ATOM      6  C   LIG    1       29.559 -18.659   6.048  0.00  0.00    +0.224 C 
ATOM      7  O   LIG    1       30.197 -18.367   5.066  0.00  0.00    -0.275 OA
ATOM      8  C   LIG    1       30.850 -20.262   8.381  0.00  0.00    +0.130 C 
ATOM      9  C   LIG    1       31.781 -21.155   8.752  0.00  0.00    +0.044 C 
ENDROOT
BRANCH   1  11
ATOM     10  O   LIG    1       31.452 -18.083  10.161  0.00  0.00    -0.248 OA
ATOM     11  C   LIG    1       31.628 -17.913   8.964  0.00  0.00    +0.333 C 
BRANCH  11  12
ATOM     12  O   LIG    1       32.346 -16.861   8.487  0.00  0.00    -0.479 OA
ATOM     13  H   LIG    1       31.744 -16.129   8.233  0.00  0.00    +0.295 HD
ENDBRANCH  11  12
ENDBRANCH   1  11
BRANCH   9  14
ATOM     14  C   LIG    1       31.512 -22.539   9.235  0.00  0.00    +0.186 C 
BRANCH  14  15
ATOM     15  O   LIG    1       30.630 -22.456  10.344  0.00  0.00    -0.391 OA
ATOM     16  H   LIG    1       30.068 -23.249  10.312  0.00  0.00    +0.210 HD
ENDBRANCH  14  15
ENDBRANCH   9  14
TORSDOF 4
ENDMDL
