MODEL 1
REMARK VINA RESULT:      -9.5      0.000      0.000
REMARK  Name = *****
REMARK                            x       y       z     vdW  Elec       q    Type
REMARK                         _______ _______ _______ _____ _____    ______ ____
ROOT
ATOM      1  C   LIG    1       30.000 -19.110   8.524  0.00  0.00    +0.111 C 
ENDROOT
BRANCH   1   3
ATOM      2  O   LIG    1       31.930 -19.509   7.109  0.00  0.00    -0.251 OA
ATOM      3  C   LIG    1       31.369 -19.683   8.174  0.00  0.00    +0.309 C 
BRANCH   3   4
ATOM      4  O   LIG    1       31.937 -20.410   9.165  0.00  0.00    -0.480 OA
ATOM      5  H   LIG    1       31.669 -21.359   9.135  0.00  0.00    +0.295 HD
ENDBRANCH   3   4
ENDBRANCH   1   3
BRANCH   1   6
ATOM      6  C   LIG    1       28.938 -19.546   7.504  0.00  0.00    +0.110 C 
BRANCH   6   7
ATOM      7  C   LIG    1       28.516 -20.992   7.655  0.00  0.00    +0.216 C 
ATOM      8  N   LIG    1       27.181 -21.270   7.474  0.00  0.00    -0.301 N 
ATOM      9  C   LIG    1       26.090 -20.323   7.283  0.00  0.00    +0.111 C 
ATOM     10  C   LIG    1       24.872 -21.076   7.822  0.00  0.00    +0.011 C 
ATOM     11  C   LIG    1       25.162 -22.535   7.430  0.00  0.00    +0.011 C 
ATOM     12  C   LIG    1       24.700 -22.902   6.014  0.00  0.00    +0.005 C 
ATOM     13  C   LIG    1       23.275 -22.432   5.744  0.00  0.00    +0.000 C 
ATOM     14  C   LIG    1       23.167 -20.924   5.928  0.00  0.00    +0.000 C 
ATOM     15  C   LIG    1       23.532 -20.521   7.352  0.00  0.00    +0.005 C 
ATOM     16  C   LIG    1       26.686 -22.634   7.578  0.00  0.00    +0.111 C 
ATOM     17  O   LIG    1       29.336 -21.864   7.951  0.00  0.00    -0.276 OA
ENDBRANCH   6   7
ENDBRANCH   1   6
BRANCH   1  18
ATOM     18  C   LIG    1       30.136 -17.569   8.567  0.00  0.00    +0.050 C 
BRANCH  18  19
ATOM     19  C   LIG    1       31.034 -17.042   9.664  0.00  0.00    -0.047 A 
ATOM     20  C   LIG    1       32.197 -16.328   9.354  0.00  0.00    +0.003 A 
ATOM     21  C   LIG    1       33.025 -15.849  10.374  0.00  0.00    +0.000 A 
ATOM     22  C   LIG    1       32.704 -16.087  11.709  0.00  0.00    +0.000 A 
ATOM     23  C   LIG    1       31.551 -16.798  12.030  0.00  0.00    +0.000 A 
ATOM     24  C   LIG    1       30.716 -17.265  11.014  0.00  0.00    +0.003 A 
ENDBRANCH  18  19
ENDBRANCH   1  18
TORSDOF 6
ENDMDL
MODEL 2
REMARK VINA RESULT:      -8.9      1.489      2.260
REMARK  Name = *****
REMARK                            x       y       z     vdW  Elec       q    Type
REMARK                         _______ _______ _______ _____ _____    ______ ____
ROOT
ATOM      1  C   LIG    1       30.087 -20.732   8.421  0.00  0.00    +0.111 C 
ENDROOT
BRANCH   1   3
ATOM      2  O   LIG    1       30.768 -22.132  10.281  0.00  0.00    -0.251 OA
ATOM      3  C   LIG    1       30.997 -21.702   9.167  0.00  0.00    +0.309 C 
BRANCH   3   4
ATOM      4  O   LIG    1       32.101 -22.070   8.476  0.00  0.00    -0.480 OA
ATOM      5  H   LIG    1       32.315 -21.440   7.747  0.00  0.00    +0.295 HD
ENDBRANCH   3   4
ENDBRANCH   1   3
BRANCH   1   6
ATOM      6  C   LIG    1       29.336 -21.438   7.282  0.00  0.00    +0.110 C 
BRANCH   6   7
ATOM      7  C   LIG    1       28.379 -20.531   6.539  0.00  0.00    +0.216 C 
ATOM      8  N   LIG    1       27.091 -20.988   6.380  0.00  0.00    -0.301 N 
ATOM      9  C   LIG    1       26.560 -22.301   6.722  0.00  0.00    +0.111 C 
ATOM     10  C   LIG    1       25.393 -22.474   5.749  0.00  0.00    +0.011 C 
ATOM     11  C   LIG    1       24.835 -21.047   5.615  0.00  0.00    +0.011 C 
ATOM     12  C   LIG    1       23.812 -20.677   6.697  0.00  0.00    +0.005 C 
ATOM     13  C   LIG    1       22.762 -21.766   6.881  0.00  0.00    +0.000 C 
ATOM     14  C   LIG    1       23.423 -23.087   7.252  0.00  0.00    +0.000 C 
ATOM     15  C   LIG    1       24.385 -23.541   6.161  0.00  0.00    +0.005 C 
ATOM     16  C   LIG    1       26.095 -20.176   5.697  0.00  0.00    +0.111 C 
ATOM     17  O   LIG    1       28.755 -19.449   6.082  0.00  0.00    -0.276 OA
ENDBRANCH   6   7
ENDBRANCH   1   6
BRANCH   1  18
ATOM     18  C   LIG    1       30.972 -19.584   7.880  0.00  0.00    +0.050 C 
BRANCH  18  19
ATOM     19  C   LIG    1       31.167 -18.429   8.837  0.00  0.00    -0.047 A 
ATOM     20  C   LIG    1       32.300 -17.613   8.751  0.00  0.00    +0.003 A 
ATOM     21  C   LIG    1       32.477 -16.551   9.642  0.00  0.00    +0.000 A 
ATOM     22  C   LIG    1       31.528 -16.301  10.633  0.00  0.00    +0.000 A 
ATOM     23  C   LIG    1       30.397 -17.107  10.730  0.00  0.00    +0.000 A 
ATOM     24  C   LIG    1       30.213 -18.159   9.832  0.00  0.00    +0.003 A 
ENDBRANCH  18  19
ENDBRANCH   1  18
TORSDOF 6
ENDMDL
MODEL 3
REMARK VINA RESULT:      -8.8      4.044      6.971
REMARK  Name = *****
REMARK                            x       y       z     vdW  Elec       q    Type
REMARK                         _______ _______ _______ _____ _____    ______ ____
ROOT
ATOM      1  C   LIG    1       26.396 -20.862   6.972  0.00  0.00    +0.111 C 
ENDROOT
BRANCH   1   3
ATOM      2  O   LIG    1       28.308 -19.861   8.081  0.00  0.00    -0.251 OA
ATOM      3  C   LIG    1       27.817 -20.317   7.066  0.00  0.00    +0.309 C 
BRANCH   3   4
ATOM      4  O   LIG    1       28.517 -20.390   5.909  0.00  0.00    -0.480 OA
ATOM      5  H   LIG    1       28.092 -20.990   5.251  0.00  0.00    +0.295 HD
ENDBRANCH   3   4
ENDBRANCH   1   3
BRANCH   1   6
ATOM      6  C   LIG    1       26.267 -22.205   7.706  0.00  0.00    +0.110 C 
BRANCH   6   7
ATOM      7  C   LIG    1       24.914 -22.860   7.528  0.00  0.00    +0.216 C 
ATOM      8  N   LIG    1       24.886 -24.040   6.820  0.00  0.00    -0.301 N 
ATOM      9  C   LIG    1       25.982 -24.676   6.102  0.00  0.00    +0.111 C 
ATOM     10  C   LIG    1       25.271 -25.478   5.011  0.00  0.00    +0.011 C 
ATOM     11  C   LIG    1       23.976 -25.938   5.704  0.00  0.00    +0.011 C 
ATOM     12  C   LIG    1       24.126 -27.244   6.495  0.00  0.00    +0.005 C 
ATOM     13  C   LIG    1       24.843 -28.318   5.685  0.00  0.00    +0.000 C 
ATOM     14  C   LIG    1       26.222 -27.834   5.258  0.00  0.00    +0.000 C 
ATOM     15  C   LIG    1       26.117 -26.585   4.392  0.00  0.00    +0.005 C 
ATOM     16  C   LIG    1       23.634 -24.753   6.616  0.00  0.00    +0.111 C 
ATOM     17  O   LIG    1       23.891 -22.339   7.978  0.00  0.00    -0.276 OA
ENDBRANCH   6   7
ENDBRANCH   1   6
BRANCH   1  18
ATOM     18  C   LIG    1       26.050 -21.010   5.471  0.00  0.00    +0.050 C 
BRANCH  18  19
ATOM     19  C   LIG    1       24.835 -20.230   5.021  0.00  0.00    -0.047 A 
ATOM     20  C   LIG    1       24.891 -19.412   3.887  0.00  0.00    +0.003 A 
ATOM     21  C   LIG    1       23.766 -18.689   3.480  0.00  0.00    +0.000 A 
ATOM     22  C   LIG    1       22.579 -18.770   4.207  0.00  0.00    +0.000 A 
ATOM     23  C   LIG    1       22.512 -19.579   5.338  0.00  0.00    +0.000 A 
ATOM     24  C   LIG    1       23.630 -20.312   5.738  0.00  0.00    +0.003 A 
ENDBRANCH  18  19
ENDBRANCH   1  18
TORSDOF 6
ENDMDL
MODEL 4
REMARK VINA RESULT:      -8.7      1.286      1.876
REMARK  Name = *****
REMARK                            x       y       z     vdW  Elec       q    Type
REMARK                         _______ _______ _______ _____ _____    ______ ____
ROOT
ATOM      1  C   LIG    1       29.908 -19.451   8.378  0.00  0.00    +0.111 C 
ENDROOT
BRANCH   1   3
ATOM      2  O   LIG    1       31.904 -20.559   9.199  0.00  0.00    -0.251 OA
ATOM      3  C   LIG    1       31.326 -20.003   8.285  0.00  0.00    +0.309 C 
BRANCH   3   4
ATOM      4  O   LIG    1       31.909 -19.837   7.074  0.00  0.00    -0.480 OA
ATOM      5  H   LIG    1       32.894 -19.846   7.127  0.00  0.00    +0.295 HD
ENDBRANCH   3   4
ENDBRANCH   1   3
BRANCH   1   6
ATOM      6  C   LIG    1       29.047 -19.930   7.200  0.00  0.00    +0.110 C 
BRANCH   6   7
ATOM      7  C   LIG    1       27.907 -20.835   7.618  0.00  0.00    +0.216 C 
ATOM      8  N   LIG    1       26.808 -20.868   6.790  0.00  0.00    -0.301 N 
ATOM      9  C   LIG    1       26.544 -20.038   5.623  0.00  0.00    +0.111 C 
ATOM     10  C   LIG    1       25.017 -20.007   5.551  0.00  0.00    +0.011 C 
ATOM     11  C   LIG    1       24.616 -21.413   6.032  0.00  0.00    +0.011 C 
ATOM     12  C   LIG    1       24.597 -22.468   4.919  0.00  0.00    +0.005 C 
ATOM     13  C   LIG    1       23.857 -21.974   3.681  0.00  0.00    +0.000 C 
ATOM     14  C   LIG    1       24.500 -20.701   3.149  0.00  0.00    +0.000 C 
ATOM     15  C   LIG    1       24.460 -19.591   4.193  0.00  0.00    +0.005 C 
ATOM     16  C   LIG    1       25.673 -21.725   7.099  0.00  0.00    +0.111 C 
ATOM     17  O   LIG    1       27.964 -21.486   8.663  0.00  0.00    -0.276 OA
ENDBRANCH   6   7
ENDBRANCH   1   6
BRANCH   1  18
ATOM     18  C   LIG    1       30.009 -17.907   8.405  0.00  0.00    +0.050 C 
BRANCH  18  19
ATOM     19  C   LIG    1       30.893 -17.349   9.497  0.00  0.00    -0.047 A 
ATOM     20  C   LIG    1       30.531 -17.470  10.843  0.00  0.00    +0.003 A 
ATOM     21  C   LIG    1       31.350 -16.946  11.847  0.00  0.00    +0.000 A 
ATOM     22  C   LIG    1       32.533 -16.288  11.515  0.00  0.00    +0.000 A 
ATOM     23  C   LIG    1       32.904 -16.158  10.179  0.00  0.00    +0.000 A 
ATOM     24  C   LIG    1       32.094 -16.693   9.176  0.00  0.00    +0.003 A 
ENDBRANCH  18  19
ENDBRANCH   1  18
TORSDOF 6
ENDMDL
MODEL 5
REMARK VINA RESULT:      -8.7      3.488      5.667
REMARK  Name = *****
REMARK                            x       y       z     vdW  Elec       q    Type
REMARK                         _______ _______ _______ _____ _____    ______ ____
ROOT
ATOM      1  C   LIG    1       25.700 -21.150   7.314  0.00  0.00    +0.111 C 
ENDROOT
BRANCH   1   3
ATOM      2  O   LIG    1       26.329 -20.062   9.389  0.00  0.00    -0.251 OA
ATOM      3  C   LIG    1       25.881 -21.041   8.824  0.00  0.00    +0.309 C 
BRANCH   3   4
ATOM      4  O   LIG    1       25.484 -22.139   9.511  0.00  0.00    -0.480 OA
ATOM      5  H   LIG    1       25.024 -21.907  10.353  0.00  0.00    +0.295 HD
ENDBRANCH   3   4
ENDBRANCH   1   3
BRANCH   1   6
ATOM      6  C   LIG    1       24.488 -22.025   6.961  0.00  0.00    +0.110 C 
BRANCH   6   7
ATOM      7  C   LIG    1       24.650 -22.780   5.659  0.00  0.00    +0.216 C 
ATOM      8  N   LIG    1       24.941 -24.121   5.753  0.00  0.00    -0.301 N 
ATOM      9  C   LIG    1       25.246 -24.887   6.954  0.00  0.00    +0.111 C 
ATOM     10  C   LIG    1       26.118 -26.029   6.432  0.00  0.00    +0.011 C 
ATOM     11  C   LIG    1       25.518 -26.323   5.046  0.00  0.00    +0.011 C 
ATOM     12  C   LIG    1       24.339 -27.304   5.076  0.00  0.00    +0.005 C 
ATOM     13  C   LIG    1       24.647 -28.535   5.919  0.00  0.00    +0.000 C 
ATOM     14  C   LIG    1       24.993 -28.131   7.346  0.00  0.00    +0.000 C 
ATOM     15  C   LIG    1       26.218 -27.224   7.374  0.00  0.00    +0.005 C 
ATOM     16  C   LIG    1       25.094 -24.933   4.555  0.00  0.00    +0.111 C 
ATOM     17  O   LIG    1       24.549 -22.203   4.574  0.00  0.00    -0.276 OA
ENDBRANCH   6   7
ENDBRANCH   1   6
BRANCH   1  18
ATOM     18  C   LIG    1       27.005 -21.739   6.728  0.00  0.00    +0.050 C 
BRANCH  18  19
ATOM     19  C   LIG    1       28.174 -20.779   6.694  0.00  0.00    -0.047 A 
ATOM     20  C   LIG    1       28.190 -19.705   5.797  0.00  0.00    +0.003 A 
ATOM     21  C   LIG    1       29.277 -18.826   5.767  0.00  0.00    +0.000 A 
ATOM     22  C   LIG    1       30.359 -19.017   6.624  0.00  0.00    +0.000 A 
ATOM     23  C   LIG    1       30.355 -20.084   7.519  0.00  0.00    +0.000 A 
ATOM     24  C   LIG    1       29.266 -20.954   7.560  0.00  0.00    +0.003 A 
ENDBRANCH  18  19
ENDBRANCH   1  18
TORSDOF 6
ENDMDL
MODEL 6
REMARK VINA RESULT:      -8.5      1.717      2.330
REMARK  Name = *****
REMARK                            x       y       z     vdW  Elec       q    Type
REMARK                         _______ _______ _______ _____ _____    ______ ____
ROOT
ATOM      1  C   LIG    1       29.444 -19.865   8.605  0.00  0.00    +0.111 C 
ENDROOT
BRANCH   1   3
ATOM      2  O   LIG    1       30.783 -21.875   8.827  0.00  0.00    -0.251 OA
ATOM      3  C   LIG    1       30.606 -20.799   8.289  0.00  0.00    +0.309 C 
BRANCH   3   4
ATOM      4  O   LIG    1       31.444 -20.339   7.330  0.00  0.00    -0.480 OA
ATOM      5  H   LIG    1       32.283 -20.857   7.285  0.00  0.00    +0.295 HD
ENDBRANCH   3   4
ENDBRANCH   1   3
BRANCH   1   6
ATOM      6  C   LIG    1       28.152 -20.334   7.922  0.00  0.00    +0.110 C 
BRANCH   6   7
ATOM      7  C   LIG    1       28.101 -20.010   6.444  0.00  0.00    +0.216 C 
ATOM      8  N   LIG    1       26.866 -20.069   5.839  0.00  0.00    -0.301 N 
ATOM      9  C   LIG    1       25.612 -20.537   6.414  0.00  0.00    +0.111 C 
ATOM     10  C   LIG    1       24.825 -21.022   5.195  0.00  0.00    +0.011 C 
ATOM     11  C   LIG    1       25.246 -20.036   4.092  0.00  0.00    +0.011 C 
ATOM     12  C   LIG    1       24.410 -18.750   4.057  0.00  0.00    +0.005 C 
ATOM     13  C   LIG    1       22.916 -19.043   4.125  0.00  0.00    +0.000 C 
ATOM     14  C   LIG    1       22.582 -19.820   5.392  0.00  0.00    +0.000 C 
ATOM     15  C   LIG    1       23.324 -21.151   5.428  0.00  0.00    +0.005 C 
ATOM     16  C   LIG    1       26.716 -19.753   4.426  0.00  0.00    +0.111 C 
ATOM     17  O   LIG    1       29.127 -19.731   5.819  0.00  0.00    -0.276 OA
ENDBRANCH   6   7
ENDBRANCH   1   6
BRANCH   1  18
ATOM     18  C   LIG    1       29.843 -18.446   8.133  0.00  0.00    +0.050 C 
BRANCH  18  19
ATOM     19  C   LIG    1       30.659 -17.653   9.129  0.00  0.00    -0.047 A 
ATOM     20  C   LIG    1       31.939 -17.192   8.800  0.00  0.00    +0.003 A 
ATOM     21  C   LIG    1       32.689 -16.464   9.728  0.00  0.00    +0.000 A 
ATOM     22  C   LIG    1       32.173 -16.199  10.995  0.00  0.00    +0.000 A 
ATOM     23  C   LIG    1       30.902 -16.654  11.336  0.00  0.00    +0.000 A 
ATOM     24  C   LIG    1       30.146 -17.369  10.406  0.00  0.00    +0.003 A 
ENDBRANCH  18  19
ENDBRANCH   1  18
TORSDOF 6
ENDMDL
MODEL 7
REMARK VINA RESULT:      -8.5      3.224      7.758
REMARK  Name = *****
REMARK                            x       y       z     vdW  Elec       q    Type
REMARK                         _______ _______ _______ _____ _____    ______ ____
ROOT
ATOM      1  C   LIG    1       24.164 -22.303   6.408  0.00  0.00    +0.111 C 
ENDROOT
BRANCH   1   3
ATOM      2  O   LIG    1       22.711 -24.195   6.852  0.00  0.00    -0.251 OA
ATOM      3  C   LIG    1       23.839 -23.760   6.721  0.00  0.00    +0.309 C 
BRANCH   3   4
ATOM      4  O   LIG    1       24.926 -24.560   6.832  0.00  0.00    -0.480 OA
ATOM      5  H   LIG    1       24.772 -25.318   7.444  0.00  0.00    +0.295 HD
ENDBRANCH   3   4
ENDBRANCH   1   3
BRANCH   1   6
ATOM      6  C   LIG    1       24.515 -21.526   7.684  0.00  0.00    +0.110 C 
BRANCH   6   7
ATOM      7  C   LIG    1       25.852 -21.917   8.278  0.00  0.00    +0.216 C 
ATOM      8  N   LIG    1       26.961 -21.266   7.789  0.00  0.00    -0.301 N 
ATOM      9  C   LIG    1       27.029 -20.335   6.671  0.00  0.00    +0.111 C 
ATOM     10  C   LIG    1       28.465 -20.490   6.170  0.00  0.00    +0.011 C 
ATOM     11  C   LIG    1       29.262 -20.739   7.462  0.00  0.00    +0.011 C 
ATOM     12  C   LIG    1       29.703 -19.455   8.177  0.00  0.00    +0.005 C 
ATOM     13  C   LIG    1       30.334 -18.458   7.212  0.00  0.00    +0.000 C 
ATOM     14  C   LIG    1       29.356 -18.098   6.102  0.00  0.00    +0.000 C 
ATOM     15  C   LIG    1       28.957 -19.335   5.304  0.00  0.00    +0.005 C 
ATOM     16  C   LIG    1       28.286 -21.561   8.314  0.00  0.00    +0.111 C 
ATOM     17  O   LIG    1       25.931 -22.796   9.139  0.00  0.00    -0.276 OA
ENDBRANCH   6   7
ENDBRANCH   1   6
BRANCH   1  18
ATOM     18  C   LIG    1       22.930 -21.691   5.702  0.00  0.00    +0.050 C 
BRANCH  18  19
ATOM     19  C   LIG    1       23.193 -20.387   4.984  0.00  0.00    -0.047 A 
ATOM     20  C   LIG    1       24.356 -20.208   4.227  0.00  0.00    +0.003 A 
ATOM     21  C   LIG    1       24.595 -18.998   3.571  0.00  0.00    +0.000 A 
ATOM     22  C   LIG    1       23.679 -17.952   3.673  0.00  0.00    +0.000 A 
ATOM     23  C   LIG    1       22.519 -18.116   4.424  0.00  0.00    +0.000 A 
ATOM     24  C   LIG    1       22.272 -19.329   5.069  0.00  0.00    +0.003 A 
ENDBRANCH  18  19
ENDBRANCH   1  18
TORSDOF 6
ENDMDL
MODEL 8
REMARK VINA RESULT:      -8.4      3.284      8.307
REMARK  Name = *****
REMARK                            x       y       z     vdW  Elec       q    Type
REMARK                         _______ _______ _______ _____ _____    ______ ____
ROOT
ATOM      1  C   LIG    1       23.706 -21.887   6.675  0.00  0.00    +0.111 C 
ENDROOT
BRANCH   1   3
ATOM      2  O   LIG    1       22.810 -19.979   5.474  0.00  0.00    -0.251 OA
ATOM      3  C   LIG    1       22.735 -21.161   5.751  0.00  0.00    +0.309 C 
BRANCH   3   4
ATOM      4  O   LIG    1       21.764 -21.951   5.234  0.00  0.00    -0.480 OA
ATOM      5  H   LIG    1       22.102 -22.842   4.979  0.00  0.00    +0.295 HD
ENDBRANCH   3   4
ENDBRANCH   1   3
BRANCH   1   6
ATOM      6  C   LIG    1       24.353 -20.917   7.674  0.00  0.00    +0.110 C 
BRANCH   6   7
ATOM      7  C   LIG    1       25.604 -21.469   8.324  0.00  0.00    +0.216 C 
ATOM      8  N   LIG    1       26.807 -21.005   7.845  0.00  0.00    -0.301 N 
ATOM      9  C   LIG    1       27.037 -20.142   6.693  0.00  0.00    +0.111 C 
ATOM     10  C   LIG    1       28.448 -20.523   6.244  0.00  0.00    +0.011 C 
ATOM     11  C   LIG    1       29.168 -20.826   7.570  0.00  0.00    +0.011 C 
ATOM     12  C   LIG    1       29.771 -19.588   8.246  0.00  0.00    +0.005 C 
ATOM     13  C   LIG    1       30.563 -18.734   7.263  0.00  0.00    +0.000 C 
ATOM     14  C   LIG    1       29.675 -18.288   6.109  0.00  0.00    +0.000 C 
ATOM     15  C   LIG    1       29.123 -19.488   5.349  0.00  0.00    +0.005 C 
ATOM     16  C   LIG    1       28.062 -21.462   8.422  0.00  0.00    +0.111 C 
ATOM     17  O   LIG    1       25.534 -22.312   9.222  0.00  0.00    -0.276 OA
ENDBRANCH   6   7
ENDBRANCH   1   6
BRANCH   1  18
ATOM     18  C   LIG    1       24.772 -22.572   5.788  0.00  0.00    +0.050 C 
BRANCH  18  19
ATOM     19  C   LIG    1       24.928 -24.058   6.016  0.00  0.00    -0.047 A 
ATOM     20  C   LIG    1       23.836 -24.922   5.876  0.00  0.00    +0.003 A 
ATOM     21  C   LIG    1       23.986 -26.294   6.094  0.00  0.00    +0.000 A 
ATOM     22  C   LIG    1       25.226 -26.815   6.463  0.00  0.00    +0.000 A 
ATOM     23  C   LIG    1       26.320 -25.966   6.607  0.00  0.00    +0.000 A 
ATOM     24  C   LIG    1       26.175 -24.597   6.376  0.00  0.00    +0.003 A 
ENDBRANCH  18  19
ENDBRANCH   1  18
TORSDOF 6
ENDMDL
MODEL 9
REMARK VINA RESULT:      -8.4      7.169     10.518
REMARK  Name = *****
REMARK                            x       y       z     vdW  Elec       q    Type
REMARK                         _______ _______ _______ _____ _____    ______ ____
ROOT
ATOM      1  C   LIG    1       25.061 -26.948   6.166  0.00  0.00    +0.111 C 
ENDROOT
BRANCH   1   3
ATOM      2  O   LIG    1       25.941 -26.674   3.922  0.00  0.00    -0.251 OA
ATOM      3  C   LIG    1       26.151 -26.877   5.102  0.00  0.00    +0.309 C 
BRANCH   3   4
ATOM      4  O   LIG    1       27.406 -27.047   5.582  0.00  0.00    -0.480 OA
ATOM      5  H   LIG    1       27.970 -26.249   5.446  0.00  0.00    +0.295 HD
ENDBRANCH   3   4
ENDBRANCH   1   3
BRANCH   1   6
ATOM      6  C   LIG    1       24.398 -28.333   6.189  0.00  0.00    +0.110 C 
BRANCH   6   7
ATOM      7  C   LIG    1       25.033 -29.288   7.177  0.00  0.00    +0.216 C 
ATOM      8  N   LIG    1       25.446 -30.505   6.684  0.00  0.00    -0.301 N 
ATOM      9  C   LIG    1       25.228 -31.048   5.351  0.00  0.00    +0.111 C 
ATOM     10  C   LIG    1       25.251 -32.560   5.578  0.00  0.00    +0.011 C 
ATOM     11  C   LIG    1       26.297 -32.731   6.693  0.00  0.00    +0.011 C 
ATOM     12  C   LIG    1       27.739 -32.836   6.180  0.00  0.00    +0.005 C 
ATOM     13  C   LIG    1       27.859 -33.825   5.026  0.00  0.00    +0.000 C 
ATOM     14  C   LIG    1       26.950 -33.414   3.875  0.00  0.00    +0.000 C 
ATOM     15  C   LIG    1       25.492 -33.382   4.316  0.00  0.00    +0.005 C 
ATOM     16  C   LIG    1       26.087 -31.479   7.555  0.00  0.00    +0.111 C 
ATOM     17  O   LIG    1       25.148 -28.987   8.368  0.00  0.00    -0.276 OA
ENDBRANCH   6   7
ENDBRANCH   1   6
BRANCH   1  18
ATOM     18  C   LIG    1       24.029 -25.839   5.852  0.00  0.00    +0.050 C 
BRANCH  18  19
ATOM     19  C   LIG    1       24.307 -24.508   6.514  0.00  0.00    -0.047 A 
ATOM     20  C   LIG    1       23.279 -23.579   6.712  0.00  0.00    +0.003 A 
ATOM     21  C   LIG    1       23.545 -22.349   7.319  0.00  0.00    +0.000 A 
ATOM     22  C   LIG    1       24.841 -22.031   7.725  0.00  0.00    +0.000 A 
ATOM     23  C   LIG    1       25.872 -22.946   7.531  0.00  0.00    +0.000 A 
ATOM     24  C   LIG    1       25.606 -24.181   6.938  0.00  0.00    +0.003 A 
ENDBRANCH  18  19
ENDBRANCH   1  18
TORSDOF 6
ENDMDL
