MODEL 1
REMARK VINA RESULT:      -2.4      0.000      0.000
REMARK  Name = *****
REMARK                            x       y       z     vdW  Elec       q    Type
REMARK                         _______ _______ _______ _____ _____    ______ ____
ROOT
ATOM      1  C   LIG    1       25.045 -18.007   3.930  0.00  0.00    +0.005 C 
ATOM      2  C   LIG    1       26.210 -18.678   4.055  0.00  0.00    -0.001 C 
ENDROOT
BRANCH   1   7
ATOM      3  C   LIG    1       20.161 -21.096   4.415  0.00  0.00    +0.044 C 
ATOM      4  C   LIG    1       21.428 -20.300   4.295  0.00  0.00    -0.050 A 
ATOM      5  C   LIG    1       22.676 -20.923   4.405  0.00  0.00    +0.004 A 
ATOM      6  C   LIG    1       23.852 -20.178   4.277  0.00  0.00    +0.009 A 
ATOM      7  C   LIG    1       23.798 -18.799   4.026  0.00  0.00    -0.016 A 
ATOM      8  C   LIG    1       22.552 -18.182   3.887  0.00  0.00    +0.009 A 
ATOM      9  C   LIG    1       21.376 -18.928   4.017  0.00  0.00    +0.004 A 
ENDBRANCH   1   7
BRANCH   1  10
ATOM     10  C   LIG    1       25.019 -16.536   3.825  0.00  0.00    +0.072 A 
ATOM     11  N   LIG    1       26.160 -15.932   3.385  0.00  0.00    -0.247 NA
ATOM     12  C   LIG    1       26.100 -14.596   3.186  0.00  0.00    +0.065 A 
ATOM     13  C   LIG    1       24.942 -13.848   3.412  0.00  0.00    +0.028 A 
ATOM     14  C   LIG    1       23.811 -14.481   3.920  0.00  0.00    +0.004 A 
ATOM     15  C   LIG    1       23.839 -15.854   4.104  0.00  0.00    +0.028 A 
BRANCH  12  16
ATOM     16  C   LIG    1       27.337 -13.927   2.762  0.00  0.00    +0.035 C 
ATOM     17  C   LIG    1       28.207 -13.142   3.423  0.00  0.00    +0.093 C 
BRANCH  17  18
ATOM     18  C   LIG    1       28.334 -12.656   4.815  0.00  0.00    +0.330 C 
ATOM     19  O   LIG    1       27.603 -13.079   5.688  0.00  0.00    -0.246 OA
BRANCH  18  20
ATOM     20  O   LIG    1       29.327 -11.781   5.050  0.00  0.00    -0.477 OA
ATOM     21  H   LIG    1       30.214 -12.204   5.110  0.00  0.00    +0.295 HD
ENDBRANCH  18  20
ENDBRANCH  17  18
ENDBRANCH  12  16
ENDBRANCH   1  10
BRANCH   2  22
ATOM     22  C   LIG    1       27.610 -18.125   4.061  0.00  0.00    +0.112 C 
BRANCH  22  23
ATOM     23  N   LIG    1       28.500 -18.869   4.964  0.00  0.00    -0.299 NA
ATOM     24  C   LIG    1       28.940 -18.080   6.120  0.00  0.00    +0.085 C 
ATOM     25  C   LIG    1       29.475 -19.146   7.062  0.00  0.00    +0.017 C 
ATOM     26  C   LIG    1       28.558 -20.339   6.842  0.00  0.00    +0.017 C 
ATOM     27  C   LIG    1       27.808 -20.024   5.553  0.00  0.00    +0.085 C 
ENDBRANCH  22  23
ENDBRANCH   2  22
TORSDOF 7
ENDMDL
MODEL 2
REMARK VINA RESULT:      -1.9      3.159      6.401
REMARK  Name = *****
REMARK                            x       y       z     vdW  Elec       q    Type
REMARK                         _______ _______ _______ _____ _____    ______ ____
ROOT
ATOM      1  C   LIG    1       25.702 -16.713   3.776  0.00  0.00    +0.005 C 
ATOM      2  C   LIG    1       26.376 -17.869   3.591  0.00  0.00    -0.001 C 
ENDROOT
BRANCH   1   7
ATOM      3  C   LIG    1       28.553 -11.736   2.921  0.00  0.00    +0.044 C 
ATOM      4  C   LIG    1       27.809 -13.020   3.142  0.00  0.00    -0.050 A 
ATOM      5  C   LIG    1       26.635 -13.297   2.433  0.00  0.00    +0.004 A 
ATOM      6  C   LIG    1       25.956 -14.502   2.633  0.00  0.00    +0.009 A 
ATOM      7  C   LIG    1       26.446 -15.455   3.538  0.00  0.00    -0.016 A 
ATOM      8  C   LIG    1       27.634 -15.191   4.225  0.00  0.00    +0.009 A 
ATOM      9  C   LIG    1       28.312 -13.984   4.025  0.00  0.00    +0.004 A 
ENDBRANCH   1   7
BRANCH   1  10
ATOM     10  C   LIG    1       24.260 -16.711   4.080  0.00  0.00    +0.072 A 
ATOM     11  N   LIG    1       23.598 -17.893   3.920  0.00  0.00    -0.247 NA
ATOM     12  C   LIG    1       22.300 -17.917   4.302  0.00  0.00    +0.065 A 
ATOM     13  C   LIG    1       21.648 -16.803   4.836  0.00  0.00    +0.028 A 
ATOM     14  C   LIG    1       22.331 -15.594   4.930  0.00  0.00    +0.004 A 
ATOM     15  C   LIG    1       23.669 -15.552   4.572  0.00  0.00    +0.028 A 
BRANCH  12  16
ATOM     16  C   LIG    1       21.563 -19.169   4.086  0.00  0.00    +0.035 C 
ATOM     17  C   LIG    1       21.815 -20.436   4.460  0.00  0.00    +0.093 C 
BRANCH  17  18
ATOM     18  C   LIG    1       22.868 -21.106   5.257  0.00  0.00    +0.330 C 
ATOM     19  O   LIG    1       22.735 -21.259   6.454  0.00  0.00    -0.246 OA
BRANCH  18  20
ATOM     20  O   LIG    1       23.926 -21.572   4.570  0.00  0.00    -0.477 OA
ATOM     21  H   LIG    1       23.837 -22.518   4.312  0.00  0.00    +0.295 HD
ENDBRANCH  18  20
ENDBRANCH  17  18
ENDBRANCH  12  16
ENDBRANCH   1  10
BRANCH   2  22
ATOM     22  C   LIG    1       25.859 -19.278   3.698  0.00  0.00    +0.112 C 
BRANCH  22  23
ATOM     23  N   LIG    1       26.592 -20.066   4.700  0.00  0.00    -0.299 NA
ATOM     24  C   LIG    1       27.887 -19.479   5.063  0.00  0.00    +0.085 C 
ATOM     25  C   LIG    1       28.234 -20.214   6.346  0.00  0.00    +0.017 C 
ATOM     26  C   LIG    1       26.896 -20.415   7.040  0.00  0.00    +0.017 C 
ATOM     27  C   LIG    1       25.851 -20.127   5.968  0.00  0.00    +0.085 C 
ENDBRANCH  22  23
ENDBRANCH   2  22
TORSDOF 7
ENDMDL
MODEL 3
REMARK VINA RESULT:      -1.3      1.637      2.398
REMARK  Name = *****
REMARK                            x       y       z     vdW  Elec       q    Type
REMARK                         _______ _______ _______ _____ _____    ______ ____
ROOT
ATOM      1  C   LIG    1       25.400 -17.692   3.895  0.00  0.00    +0.005 C 
ATOM      2  C   LIG    1       26.259 -18.649   4.306  0.00  0.00    -0.001 C 
ENDROOT
BRANCH   1   7
ATOM      3  C   LIG    1       19.792 -19.160   3.719  0.00  0.00    +0.044 C 
ATOM      4  C   LIG    1       21.244 -18.786   3.768  0.00  0.00    -0.050 A 
ATOM      5  C   LIG    1       22.236 -19.739   3.509  0.00  0.00    +0.004 A 
ATOM      6  C   LIG    1       23.587 -19.380   3.541  0.00  0.00    +0.009 A 
ATOM      7  C   LIG    1       23.967 -18.059   3.823  0.00  0.00    -0.016 A 
ATOM      8  C   LIG    1       22.976 -17.102   4.053  0.00  0.00    +0.009 A 
ATOM      9  C   LIG    1       21.625 -17.462   4.022  0.00  0.00    +0.004 A 
ENDBRANCH   1   7
BRANCH   1  10
ATOM     10  C   LIG    1       25.855 -16.311   3.648  0.00  0.00    +0.072 A 
ATOM     11  N   LIG    1       24.887 -15.377   3.424  0.00  0.00    -0.247 NA
ATOM     12  C   LIG    1       25.298 -14.094   3.306  0.00  0.00    +0.065 A 
ATOM     13  C   LIG    1       26.639 -13.717   3.405  0.00  0.00    +0.028 A 
ATOM     14  C   LIG    1       27.612 -14.699   3.573  0.00  0.00    +0.004 A 
ATOM     15  C   LIG    1       27.212 -16.017   3.726  0.00  0.00    +0.028 A 
BRANCH  12  16
ATOM     16  C   LIG    1       24.269 -13.087   3.013  0.00  0.00    +0.035 C 
ATOM     17  C   LIG    1       23.708 -12.129   3.771  0.00  0.00    +0.093 C 
BRANCH  17  18
ATOM     18  C   LIG    1       23.891 -11.646   5.158  0.00  0.00    +0.330 C 
ATOM     19  O   LIG    1       22.933 -11.448   5.877  0.00  0.00    -0.246 OA
BRANCH  18  20
ATOM     20  O   LIG    1       25.162 -11.502   5.574  0.00  0.00    -0.477 OA
ATOM     21  H   LIG    1       25.392 -12.086   6.333  0.00  0.00    +0.295 HD
ENDBRANCH  18  20
ENDBRANCH  17  18
ENDBRANCH  12  16
ENDBRANCH   1  10
BRANCH   2  22
ATOM     22  C   LIG    1       27.743 -18.537   4.529  0.00  0.00    +0.112 C 
BRANCH  22  23
ATOM     23  N   LIG    1       28.293 -19.711   5.223  0.00  0.00    -0.299 NA
ATOM     24  C   LIG    1       29.280 -19.364   6.252  0.00  0.00    +0.085 C 
ATOM     25  C   LIG    1       29.376 -20.646   7.061  0.00  0.00    +0.017 C 
ATOM     26  C   LIG    1       27.962 -21.206   7.052  0.00  0.00    +0.017 C 
ATOM     27  C   LIG    1       27.241 -20.431   5.954  0.00  0.00    +0.085 C 
ENDBRANCH  22  23
ENDBRANCH   2  22
TORSDOF 7
ENDMDL
MODEL 4
REMARK VINA RESULT:      -0.7      3.033      5.892
REMARK  Name = *****
REMARK                            x       y       z     vdW  Elec       q    Type
REMARK                         _______ _______ _______ _____ _____    ______ ____
ROOT
ATOM      1  C   LIG    1       25.615 -17.225   3.731  0.00  0.00    +0.005 C 
ATOM      2  C   LIG    1       25.515 -16.114   2.969  0.00  0.00    -0.001 C 
ENDROOT
BRANCH   1   7
ATOM      3  C   LIG    1       20.971 -20.675   4.140  0.00  0.00    +0.044 C 
ATOM      4  C   LIG    1       22.177 -19.788   4.037  0.00  0.00    -0.050 A 
ATOM      5  C   LIG    1       23.362 -20.257   3.460  0.00  0.00    +0.004 A 
ATOM      6  C   LIG    1       24.477 -19.420   3.353  0.00  0.00    +0.009 A 
ATOM      7  C   LIG    1       24.420 -18.096   3.811  0.00  0.00    -0.016 A 
ATOM      8  C   LIG    1       23.228 -17.618   4.361  0.00  0.00    +0.009 A 
ATOM      9  C   LIG    1       22.114 -18.457   4.470  0.00  0.00    +0.004 A 
ENDBRANCH   1   7
BRANCH   1  10
ATOM     10  C   LIG    1       26.894 -17.612   4.353  0.00  0.00    +0.072 A 
ATOM     11  N   LIG    1       26.921 -18.808   5.007  0.00  0.00    -0.247 NA
ATOM     12  C   LIG    1       28.121 -19.212   5.484  0.00  0.00    +0.065 A 
ATOM     13  C   LIG    1       29.288 -18.462   5.327  0.00  0.00    +0.028 A 
ATOM     14  C   LIG    1       29.220 -17.216   4.710  0.00  0.00    +0.004 A 
ATOM     15  C   LIG    1       28.008 -16.794   4.188  0.00  0.00    +0.028 A 
BRANCH  12  16
ATOM     16  C   LIG    1       28.151 -20.475   6.234  0.00  0.00    +0.035 C 
ATOM     17  C   LIG    1       27.193 -21.375   6.518  0.00  0.00    +0.093 C 
BRANCH  17  18
ATOM     18  C   LIG    1       25.758 -21.521   6.184  0.00  0.00    +0.330 C 
ATOM     19  O   LIG    1       24.917 -21.540   7.060  0.00  0.00    -0.246 OA
BRANCH  18  20
ATOM     20  O   LIG    1       25.455 -21.572   4.875  0.00  0.00    -0.477 OA
ATOM     21  H   LIG    1       25.347 -22.489   4.534  0.00  0.00    +0.295 HD
ENDBRANCH  18  20
ENDBRANCH  17  18
ENDBRANCH  12  16
ENDBRANCH   1  10
BRANCH   2  22
ATOM     22  C   LIG    1       26.579 -15.095   2.661  0.00  0.00    +0.112 C 
BRANCH  22  23
ATOM     23  N   LIG    1       26.158 -13.729   3.002  0.00  0.00    -0.299 NA
ATOM     24  C   LIG    1       25.142 -13.193   2.089  0.00  0.00    +0.085 C 
ATOM     25  C   LIG    1       24.600 -12.002   2.861  0.00  0.00    +0.017 C 
ATOM     26  C   LIG    1       24.633 -12.448   4.315  0.00  0.00    +0.017 C 
ATOM     27  C   LIG    1       25.517 -13.689   4.324  0.00  0.00    +0.085 C 
ENDBRANCH  22  23
ENDBRANCH   2  22
TORSDOF 7
ENDMDL
