MODEL 1
REMARK VINA RESULT:      -8.7      0.000      0.000
REMARK  Name = *****
REMARK                            x       y       z     vdW  Elec       q    Type
REMARK                         _______ _______ _______ _____ _____    ______ ____
ROOT
ATOM      1  C   LIG    1       24.459 -22.003   7.364  0.00  0.00    +0.069 C 
ENDROOT
BRANCH   1   2
ATOM      2  C   LIG    1       24.671 -23.460   6.934  0.00  0.00    -0.038 A 
ATOM      3  C   LIG    1       25.949 -24.047   6.923  0.00  0.00    +0.005 A 
ATOM      4  C   LIG    1       26.125 -25.373   6.513  0.00  0.00    +0.015 A 
ATOM      5  C   LIG    1       25.023 -26.127   6.120  0.00  0.00    +0.018 A 
ATOM      6 BR   LIG    1       25.259 -27.908   5.535  0.00  0.00    -0.050 Br
ATOM      7  C   LIG    1       23.746 -25.572   6.147  0.00  0.00    +0.015 A 
ATOM      8  C   LIG    1       23.571 -24.245   6.554  0.00  0.00    +0.005 A 
ENDBRANCH   1   2
BRANCH   1   9
ATOM      9  C   LIG    1       24.108 -21.103   6.177  0.00  0.00    +0.049 A 
ATOM     10  N   LIG    1       24.847 -21.208   5.038  0.00  0.00    -0.259 NA
ATOM     11  C   LIG    1       24.468 -20.456   3.979  0.00  0.00    +0.111 A 
ATOM     12  C   LIG    1       23.394 -19.585   3.984  0.00  0.00    +0.020 A 
ATOM     13  C   LIG    1       22.654 -19.474   5.157  0.00  0.00    +0.003 A 
ATOM     14  C   LIG    1       23.010 -20.246   6.259  0.00  0.00    +0.024 A 
ENDBRANCH   1   9
BRANCH   1  15
ATOM     15  C   LIG    1       25.666 -21.522   8.207  0.00  0.00    +0.029 C 
BRANCH  15  16
ATOM     16  C   LIG    1       26.480 -20.399   7.537  0.00  0.00    +0.085 C 
BRANCH  16  18
ATOM     17  C   LIG    1       28.183 -19.888   5.868  0.00  0.00    +0.104 C 
ATOM     18  N   LIG    1       27.666 -20.893   6.800  0.00  0.00    -0.308 NA
ATOM     19  C   LIG    1       28.726 -21.267   7.744  0.00  0.00    +0.104 C 
ENDBRANCH  16  18
ENDBRANCH  15  16
ENDBRANCH   1  15
TORSDOF 5
ENDMDL
MODEL 2
REMARK VINA RESULT:      -8.6      0.348      1.395
REMARK  Name = *****
REMARK                            x       y       z     vdW  Elec       q    Type
REMARK                         _______ _______ _______ _____ _____    ______ ____
ROOT
ATOM      1  C   LIG    1       24.760 -22.190   7.363  0.00  0.00    +0.069 C 
ENDROOT
BRANCH   1   2
ATOM      2  C   LIG    1       24.815 -23.650   6.898  0.00  0.00    -0.038 A 
ATOM      3  C   LIG    1       23.655 -24.343   6.505  0.00  0.00    +0.005 A 
ATOM      4  C   LIG    1       23.721 -25.679   6.098  0.00  0.00    +0.015 A 
ATOM      5  C   LIG    1       24.949 -26.333   6.072  0.00  0.00    +0.018 A 
ATOM      6 BR   LIG    1       25.040 -28.149   5.554  0.00  0.00    -0.050 Br
ATOM      7  C   LIG    1       26.113 -25.659   6.434  0.00  0.00    +0.015 A 
ATOM      8  C   LIG    1       26.045 -24.324   6.844  0.00  0.00    +0.005 A 
ENDBRANCH   1   2
BRANCH   1   9
ATOM      9  C   LIG    1       24.304 -21.251   6.245  0.00  0.00    +0.049 A 
ATOM     10  N   LIG    1       25.009 -21.232   5.081  0.00  0.00    -0.259 NA
ATOM     11  C   LIG    1       24.541 -20.450   4.081  0.00  0.00    +0.111 A 
ATOM     12  C   LIG    1       23.406 -19.665   4.171  0.00  0.00    +0.020 A 
ATOM     13  C   LIG    1       22.700 -19.680   5.369  0.00  0.00    +0.003 A 
ATOM     14  C   LIG    1       23.148 -20.486   6.411  0.00  0.00    +0.024 A 
ENDBRANCH   1   9
BRANCH   1  15
ATOM     15  C   LIG    1       26.102 -21.799   8.030  0.00  0.00    +0.029 C 
BRANCH  15  16
ATOM     16  C   LIG    1       26.521 -20.341   7.769  0.00  0.00    +0.085 C 
BRANCH  16  18
ATOM     17  C   LIG    1       28.722 -21.392   7.801  0.00  0.00    +0.104 C 
ATOM     18  N   LIG    1       27.960 -20.192   7.449  0.00  0.00    -0.308 NA
ATOM     19  C   LIG    1       28.131 -19.914   6.018  0.00  0.00    +0.104 C 
ENDBRANCH  16  18
ENDBRANCH  15  16
ENDBRANCH   1  15
TORSDOF 5
ENDMDL
MODEL 3
REMARK VINA RESULT:      -8.3      2.949      5.079
REMARK  Name = *****
REMARK                            x       y       z     vdW  Elec       q    Type
REMARK                         _______ _______ _______ _____ _____    ______ ____
ROOT
ATOM      1  C   LIG    1       25.790 -21.449   5.953  0.00  0.00    +0.069 C 
ENDROOT
BRANCH   1   2
ATOM      2  C   LIG    1       26.994 -20.670   6.495  0.00  0.00    -0.038 A 
ATOM      3  C   LIG    1       27.915 -20.044   5.635  0.00  0.00    +0.005 A 
ATOM      4  C   LIG    1       29.017 -19.350   6.146  0.00  0.00    +0.015 A 
ATOM      5  C   LIG    1       29.204 -19.270   7.523  0.00  0.00    +0.018 A 
ATOM      6 BR   LIG    1       30.709 -18.362   8.218  0.00  0.00    -0.050 Br
ATOM      7  C   LIG    1       28.292 -19.862   8.393  0.00  0.00    +0.015 A 
ATOM      8  C   LIG    1       27.192 -20.558   7.881  0.00  0.00    +0.005 A 
ENDBRANCH   1   2
BRANCH   1   9
ATOM      9  C   LIG    1       24.726 -20.519   5.367  0.00  0.00    +0.049 A 
ATOM     10  N   LIG    1       24.999 -19.866   4.204  0.00  0.00    -0.259 NA
ATOM     11  C   LIG    1       24.014 -19.110   3.668  0.00  0.00    +0.111 A 
ATOM     12  C   LIG    1       22.760 -18.949   4.230  0.00  0.00    +0.020 A 
ATOM     13  C   LIG    1       22.495 -19.608   5.425  0.00  0.00    +0.003 A 
ATOM     14  C   LIG    1       23.483 -20.407   5.994  0.00  0.00    +0.024 A 
ENDBRANCH   1   9
BRANCH   1  15
ATOM     15  C   LIG    1       25.269 -22.431   7.032  0.00  0.00    +0.029 C 
BRANCH  15  16
ATOM     16  C   LIG    1       25.839 -23.855   6.899  0.00  0.00    +0.085 C 
BRANCH  16  18
ATOM     17  C   LIG    1       23.469 -24.351   6.610  0.00  0.00    +0.104 C 
ATOM     18  N   LIG    1       24.837 -24.850   6.454  0.00  0.00    -0.308 NA
ATOM     19  C   LIG    1       25.066 -25.198   5.046  0.00  0.00    +0.104 C 
ENDBRANCH  16  18
ENDBRANCH  15  16
ENDBRANCH   1  15
TORSDOF 5
ENDMDL
MODEL 4
REMARK VINA RESULT:      -7.9      2.808      5.489
REMARK  Name = *****
REMARK                            x       y       z     vdW  Elec       q    Type
REMARK                         _______ _______ _______ _____ _____    ______ ____
ROOT
ATOM      1  C   LIG    1       24.686 -21.252   7.257  0.00  0.00    +0.069 C 
ENDROOT
BRANCH   1   2
ATOM      2  C   LIG    1       26.112 -20.707   7.107  0.00  0.00    -0.038 A 
ATOM      3  C   LIG    1       26.655 -20.403   5.845  0.00  0.00    +0.005 A 
ATOM      4  C   LIG    1       27.963 -19.921   5.726  0.00  0.00    +0.015 A 
ATOM      5  C   LIG    1       28.737 -19.731   6.867  0.00  0.00    +0.018 A 
ATOM      6 BR   LIG    1       30.515 -19.112   6.708  0.00  0.00    -0.050 Br
ATOM      7  C   LIG    1       28.210 -20.003   8.127  0.00  0.00    +0.015 A 
ATOM      8  C   LIG    1       26.903 -20.488   8.246  0.00  0.00    +0.005 A 
ENDBRANCH   1   2
BRANCH   1   9
ATOM      9  C   LIG    1       24.619 -22.757   6.987  0.00  0.00    +0.049 A 
ATOM     10  N   LIG    1       23.398 -23.339   6.837  0.00  0.00    -0.259 NA
ATOM     11  C   LIG    1       23.368 -24.654   6.524  0.00  0.00    +0.111 A 
ATOM     12  C   LIG    1       24.493 -25.442   6.360  0.00  0.00    +0.020 A 
ATOM     13  C   LIG    1       25.736 -24.843   6.529  0.00  0.00    +0.003 A 
ATOM     14  C   LIG    1       25.799 -23.487   6.837  0.00  0.00    +0.024 A 
ENDBRANCH   1   9
BRANCH   1  15
ATOM     15  C   LIG    1       23.705 -20.398   6.417  0.00  0.00    +0.029 C 
BRANCH  15  16
ATOM     16  C   LIG    1       23.576 -20.863   4.955  0.00  0.00    +0.085 C 
BRANCH  16  18
ATOM     17  C   LIG    1       22.286 -18.821   4.617  0.00  0.00    +0.104 C 
ATOM     18  N   LIG    1       23.229 -19.769   4.019  0.00  0.00    -0.308 NA
ATOM     19  C   LIG    1       24.444 -19.050   3.614  0.00  0.00    +0.104 C 
ENDBRANCH  16  18
ENDBRANCH  15  16
ENDBRANCH   1  15
TORSDOF 5
ENDMDL
MODEL 5
REMARK VINA RESULT:      -7.8      2.645      4.832
REMARK  Name = *****
REMARK                            x       y       z     vdW  Elec       q    Type
REMARK                         _______ _______ _______ _____ _____    ______ ____
ROOT
ATOM      1  C   LIG    1       25.931 -22.549   6.515  0.00  0.00    +0.069 C 
ENDROOT
BRANCH   1   2
ATOM      2  C   LIG    1       24.928 -21.524   5.972  0.00  0.00    -0.038 A 
ATOM      3  C   LIG    1       23.813 -21.113   6.725  0.00  0.00    +0.005 A 
ATOM      4  C   LIG    1       22.900 -20.188   6.207  0.00  0.00    +0.015 A 
ATOM      5  C   LIG    1       23.098 -19.660   4.935  0.00  0.00    +0.018 A 
ATOM      6 BR   LIG    1       21.850 -18.435   4.217  0.00  0.00    -0.050 Br
ATOM      7  C   LIG    1       24.208 -20.035   4.182  0.00  0.00    +0.015 A 
ATOM      8  C   LIG    1       25.119 -20.962   4.700  0.00  0.00    +0.005 A 
ENDBRANCH   1   2
BRANCH   1   9
ATOM      9  C   LIG    1       25.452 -23.986   6.299  0.00  0.00    +0.049 A 
ATOM     10  N   LIG    1       26.381 -24.977   6.212  0.00  0.00    -0.259 NA
ATOM     11  C   LIG    1       25.929 -26.247   6.096  0.00  0.00    +0.111 A 
ATOM     12  C   LIG    1       24.592 -26.597   6.048  0.00  0.00    +0.020 A 
ATOM     13  C   LIG    1       23.650 -25.577   6.123  0.00  0.00    +0.003 A 
ATOM     14  C   LIG    1       24.085 -24.261   6.258  0.00  0.00    +0.024 A 
ENDBRANCH   1   9
BRANCH   1  15
ATOM     15  C   LIG    1       26.297 -22.202   7.980  0.00  0.00    +0.029 C 
BRANCH  15  16
ATOM     16  C   LIG    1       27.245 -20.995   8.111  0.00  0.00    +0.085 C 
BRANCH  16  18
ATOM     17  C   LIG    1       28.455 -19.946   6.272  0.00  0.00    +0.104 C 
ATOM     18  N   LIG    1       28.419 -21.069   7.211  0.00  0.00    -0.308 NA
ATOM     19  C   LIG    1       29.657 -21.079   8.000  0.00  0.00    +0.104 C 
ENDBRANCH  16  18
ENDBRANCH  15  16
ENDBRANCH   1  15
TORSDOF 5
ENDMDL
MODEL 6
REMARK VINA RESULT:      -7.8      2.804      5.492
REMARK  Name = *****
REMARK                            x       y       z     vdW  Elec       q    Type
REMARK                         _______ _______ _______ _____ _____    ______ ____
ROOT
ATOM      1  C   LIG    1       24.838 -20.780   5.567  0.00  0.00    +0.069 C 
ENDROOT
BRANCH   1   2
ATOM      2  C   LIG    1       26.194 -20.453   6.205  0.00  0.00    -0.038 A 
ATOM      3  C   LIG    1       26.409 -20.593   7.588  0.00  0.00    +0.005 A 
ATOM      4  C   LIG    1       27.648 -20.276   8.156  0.00  0.00    +0.015 A 
ATOM      5  C   LIG    1       28.685 -19.825   7.345  0.00  0.00    +0.018 A 
ATOM      6 BR   LIG    1       30.350 -19.364   8.111  0.00  0.00    -0.050 Br
ATOM      7  C   LIG    1       28.500 -19.703   5.970  0.00  0.00    +0.015 A 
ATOM      8  C   LIG    1       27.260 -20.017   5.403  0.00  0.00    +0.005 A 
ENDBRANCH   1   2
BRANCH   1   9
ATOM      9  C   LIG    1       24.412 -22.224   5.839  0.00  0.00    +0.049 A 
ATOM     10  N   LIG    1       25.228 -23.233   5.429  0.00  0.00    -0.259 NA
ATOM     11  C   LIG    1       24.865 -24.497   5.748  0.00  0.00    +0.111 A 
ATOM     12  C   LIG    1       23.720 -24.825   6.449  0.00  0.00    +0.020 A 
ATOM     13  C   LIG    1       22.884 -23.789   6.851  0.00  0.00    +0.003 A 
ATOM     14  C   LIG    1       23.238 -22.477   6.550  0.00  0.00    +0.024 A 
ENDBRANCH   1   9
BRANCH   1  15
ATOM     15  C   LIG    1       24.850 -20.378   4.071  0.00  0.00    +0.029 C 
BRANCH  15  16
ATOM     16  C   LIG    1       23.886 -19.227   3.732  0.00  0.00    +0.085 C 
BRANCH  16  18
ATOM     17  C   LIG    1       22.166 -17.760   4.647  0.00  0.00    +0.104 C 
ATOM     18  N   LIG    1       22.767 -19.095   4.692  0.00  0.00    -0.308 NA
ATOM     19  C   LIG    1       21.735 -20.098   4.403  0.00  0.00    +0.104 C 
ENDBRANCH  16  18
ENDBRANCH  15  16
ENDBRANCH   1  15
TORSDOF 5
ENDMDL
MODEL 7
REMARK VINA RESULT:      -7.5      2.683      5.443
REMARK  Name = *****
REMARK                            x       y       z     vdW  Elec       q    Type
REMARK                         _______ _______ _______ _____ _____    ______ ____
ROOT
ATOM      1  C   LIG    1       26.120 -21.915   7.283  0.00  0.00    +0.069 C 
ENDROOT
BRANCH   1   2
ATOM      2  C   LIG    1       25.052 -21.174   6.469  0.00  0.00    -0.038 A 
ATOM      3  C   LIG    1       25.192 -20.970   5.085  0.00  0.00    +0.005 A 
ATOM      4  C   LIG    1       24.215 -20.278   4.360  0.00  0.00    +0.015 A 
ATOM      5  C   LIG    1       23.086 -19.793   5.012  0.00  0.00    +0.018 A 
ATOM      6 BR   LIG    1       21.779 -18.829   4.044  0.00  0.00    -0.050 Br
ATOM      7  C   LIG    1       22.917 -20.005   6.378  0.00  0.00    +0.015 A 
ATOM      8  C   LIG    1       23.895 -20.694   7.102  0.00  0.00    +0.005 A 
ENDBRANCH   1   2
BRANCH   1   9
ATOM      9  C   LIG    1       27.463 -21.183   7.263  0.00  0.00    +0.049 A 
ATOM     10  N   LIG    1       28.427 -21.564   8.145  0.00  0.00    -0.259 NA
ATOM     11  C   LIG    1       29.631 -20.952   8.056  0.00  0.00    +0.111 A 
ATOM     12  C   LIG    1       29.937 -19.963   7.139  0.00  0.00    +0.020 A 
ATOM     13  C   LIG    1       28.942 -19.570   6.251  0.00  0.00    +0.003 A 
ATOM     14  C   LIG    1       27.697 -20.192   6.308  0.00  0.00    +0.024 A 
ENDBRANCH   1   9
BRANCH   1  15
ATOM     15  C   LIG    1       26.184 -23.398   6.843  0.00  0.00    +0.029 C 
BRANCH  15  16
ATOM     16  C   LIG    1       24.827 -24.122   6.910  0.00  0.00    +0.085 C 
BRANCH  16  18
ATOM     17  C   LIG    1       25.071 -25.258   4.765  0.00  0.00    +0.104 C 
ATOM     18  N   LIG    1       24.818 -25.421   6.199  0.00  0.00    -0.308 NA
ATOM     19  C   LIG    1       25.834 -26.314   6.770  0.00  0.00    +0.104 C 
ENDBRANCH  16  18
ENDBRANCH  15  16
ENDBRANCH   1  15
TORSDOF 5
ENDMDL
MODEL 8
REMARK VINA RESULT:      -7.2      1.374      3.896
REMARK  Name = *****
REMARK                            x       y       z     vdW  Elec       q    Type
REMARK                         _______ _______ _______ _____ _____    ______ ____
ROOT
ATOM      1  C   LIG    1       25.274 -21.252   6.303  0.00  0.00    +0.069 C 
ENDROOT
BRANCH   1   2
ATOM      2  C   LIG    1       25.324 -22.778   6.157  0.00  0.00    -0.038 A 
ATOM      3  C   LIG    1       25.798 -23.602   7.193  0.00  0.00    +0.005 A 
ATOM      4  C   LIG    1       25.851 -24.992   7.036  0.00  0.00    +0.015 A 
ATOM      5  C   LIG    1       25.423 -25.569   5.844  0.00  0.00    +0.018 A 
ATOM      6 BR   LIG    1       25.523 -27.443   5.614  0.00  0.00    -0.050 Br
ATOM      7  C   LIG    1       24.927 -24.772   4.815  0.00  0.00    +0.015 A 
ATOM      8  C   LIG    1       24.877 -23.384   4.972  0.00  0.00    +0.005 A 
ENDBRANCH   1   2
BRANCH   1   9
ATOM      9  C   LIG    1       26.666 -20.652   6.511  0.00  0.00    +0.049 A 
ATOM     10  N   LIG    1       27.317 -20.128   5.437  0.00  0.00    -0.259 NA
ATOM     11  C   LIG    1       28.513 -19.536   5.661  0.00  0.00    +0.111 A 
ATOM     12  C   LIG    1       29.117 -19.443   6.901  0.00  0.00    +0.020 A 
ATOM     13  C   LIG    1       28.452 -19.995   7.991  0.00  0.00    +0.003 A 
ATOM     14  C   LIG    1       27.212 -20.597   7.794  0.00  0.00    +0.024 A 
ENDBRANCH   1   9
BRANCH   1  15
ATOM     15  C   LIG    1       24.233 -20.860   7.381  0.00  0.00    +0.029 C 
BRANCH  15  16
ATOM     16  C   LIG    1       22.963 -20.207   6.806  0.00  0.00    +0.085 C 
BRANCH  16  18
ATOM     17  C   LIG    1       21.886 -21.270   4.893  0.00  0.00    +0.104 C 
ATOM     18  N   LIG    1       22.879 -20.285   5.329  0.00  0.00    -0.308 NA
ATOM     19  C   LIG    1       22.531 -18.971   4.775  0.00  0.00    +0.104 C 
ENDBRANCH  16  18
ENDBRANCH  15  16
ENDBRANCH   1  15
TORSDOF 5
ENDMDL
MODEL 9
REMARK VINA RESULT:      -6.9      1.340      3.760
REMARK  Name = *****
REMARK                            x       y       z     vdW  Elec       q    Type
REMARK                         _______ _______ _______ _____ _____    ______ ____
ROOT
ATOM      1  C   LIG    1       24.451 -21.898   5.719  0.00  0.00    +0.069 C 
ENDROOT
BRANCH   1   2
ATOM      2  C   LIG    1       24.473 -23.431   5.700  0.00  0.00    -0.038 A 
ATOM      3  C   LIG    1       25.139 -24.147   4.688  0.00  0.00    +0.005 A 
ATOM      4  C   LIG    1       25.136 -25.546   4.679  0.00  0.00    +0.015 A 
ATOM      5  C   LIG    1       24.475 -26.242   5.686  0.00  0.00    +0.018 A 
ATOM      6 BR   LIG    1       24.439 -28.132   5.660  0.00  0.00    -0.050 Br
ATOM      7  C   LIG    1       23.830 -25.553   6.710  0.00  0.00    +0.015 A 
ATOM      8  C   LIG    1       23.831 -24.155   6.718  0.00  0.00    +0.005 A 
ENDBRANCH   1   2
BRANCH   1   9
ATOM      9  C   LIG    1       25.554 -21.322   6.609  0.00  0.00    +0.049 A 
ATOM     10  N   LIG    1       26.719 -20.923   6.030  0.00  0.00    -0.259 NA
ATOM     11  C   LIG    1       27.647 -20.348   6.829  0.00  0.00    +0.111 A 
ATOM     12  C   LIG    1       27.492 -20.153   8.189  0.00  0.00    +0.020 A 
ATOM     13  C   LIG    1       26.305 -20.576   8.775  0.00  0.00    +0.003 A 
ATOM     14  C   LIG    1       25.324 -21.158   7.976  0.00  0.00    +0.024 A 
ENDBRANCH   1   9
BRANCH   1  15
ATOM     15  C   LIG    1       23.024 -21.396   6.047  0.00  0.00    +0.029 C 
BRANCH  15  16
ATOM     16  C   LIG    1       22.361 -20.618   4.896  0.00  0.00    +0.085 C 
BRANCH  16  18
ATOM     17  C   LIG    1       23.899 -19.262   3.575  0.00  0.00    +0.104 C 
ATOM     18  N   LIG    1       22.942 -19.273   4.685  0.00  0.00    -0.308 NA
ATOM     19  C   LIG    1       21.876 -18.301   4.412  0.00  0.00    +0.104 C 
ENDBRANCH  16  18
ENDBRANCH  15  16
ENDBRANCH   1  15
TORSDOF 5
ENDMDL
