MODEL 1
REMARK VINA RESULT:      -6.7      0.000      0.000
REMARK  Name = *****
REMARK                            x       y       z     vdW  Elec       q    Type
REMARK                         _______ _______ _______ _____ _____    ______ ____
ROOT
ATOM      1  C   LIG    1       27.507 -20.310   6.416  0.00  0.00    +0.000 C 
ENDROOT
BRANCH   1   2
ATOM      2  C   LIG    1       27.248 -20.450   7.940  0.00  0.00    -0.000 C 
BRANCH   2   3
ATOM      3  C   LIG    1       25.798 -20.701   8.440  0.00  0.00    -0.000 C 
BRANCH   3   4
ATOM      4  C   LIG    1       25.271 -22.117   8.017  0.00  0.00    -0.000 C 
BRANCH   4   5
ATOM      5  C   LIG    1       23.885 -22.144   7.300  0.00  0.00    -0.000 C 
BRANCH   5   6
ATOM      6  C   LIG    1       23.312 -20.752   6.914  0.00  0.00    -0.000 C 
BRANCH   6   8
ATOM      7  C   LIG    1       22.468 -19.205   4.965  0.00  0.00    +0.004 C 
ATOM      8  C   LIG    1       22.808 -20.609   5.454  0.00  0.00    -0.003 C 
ENDBRANCH   6   8
ENDBRANCH   5   6
ENDBRANCH   4   5
ENDBRANCH   3   4
ENDBRANCH   2   3
ENDBRANCH   1   2
BRANCH   1   9
ATOM      9  C   LIG    1       28.764 -19.536   5.971  0.00  0.00    +0.000 C 
BRANCH   9  10
ATOM     10  C   LIG    1       29.609 -19.050   7.150  0.00  0.00    +0.011 C 
BRANCH  10  11
ATOM     11  C   LIG    1       31.120 -19.255   7.023  0.00  0.00    +0.120 C 
BRANCH  11  12
ATOM     12  C   LIG    1       31.807 -18.743   8.281  0.00  0.00    +0.305 C 
ATOM     13  O   LIG    1       32.049 -19.425   9.240  0.00  0.00    -0.251 OA
BRANCH  12  14
ATOM     14  O   LIG    1       32.137 -17.422   8.224  0.00  0.00    -0.481 OA
ATOM     15  H   LIG    1       31.391 -16.810   8.182  0.00  0.00    +0.295 HD
ENDBRANCH  12  14
ENDBRANCH  11  12
ENDBRANCH  10  11
ENDBRANCH   9  10
ENDBRANCH   1   9
TORSDOF 11
ENDMDL
MODEL 2
REMARK VINA RESULT:      -6.6      1.953      2.340
REMARK  Name = *****
REMARK                            x       y       z     vdW  Elec       q    Type
REMARK                         _______ _______ _______ _____ _____    ______ ____
ROOT
ATOM      1  C   LIG    1       27.109 -20.389   6.598  0.00  0.00    +0.000 C 
ENDROOT
BRANCH   1   2
ATOM      2  C   LIG    1       26.099 -20.593   7.758  0.00  0.00    -0.000 C 
BRANCH   2   3
ATOM      3  C   LIG    1       25.433 -21.985   7.944  0.00  0.00    -0.000 C 
BRANCH   3   4
ATOM      4  C   LIG    1       23.959 -22.004   7.405  0.00  0.00    -0.000 C 
BRANCH   4   5
ATOM      5  C   LIG    1       23.323 -20.611   7.104  0.00  0.00    -0.000 C 
BRANCH   5   6
ATOM      6  C   LIG    1       22.945 -20.364   5.616  0.00  0.00    -0.000 C 
BRANCH   6   8
ATOM      7  C   LIG    1       24.763 -19.691   3.841  0.00  0.00    +0.004 C 
ATOM      8  C   LIG    1       24.004 -20.797   4.569  0.00  0.00    -0.003 C 
ENDBRANCH   6   8
ENDBRANCH   5   6
ENDBRANCH   4   5
ENDBRANCH   3   4
ENDBRANCH   2   3
ENDBRANCH   1   2
BRANCH   1   9
ATOM      9  C   LIG    1       28.555 -19.999   6.966  0.00  0.00    +0.000 C 
BRANCH   9  10
ATOM     10  C   LIG    1       29.274 -21.082   7.772  0.00  0.00    +0.011 C 
BRANCH  10  11
ATOM     11  C   LIG    1       30.644 -20.701   8.337  0.00  0.00    +0.120 C 
BRANCH  11  12
ATOM     12  C   LIG    1       31.192 -21.860   9.158  0.00  0.00    +0.305 C 
ATOM     13  O   LIG    1       30.795 -22.155  10.253  0.00  0.00    -0.251 OA
BRANCH  12  14
ATOM     14  O   LIG    1       32.184 -22.553   8.531  0.00  0.00    -0.481 OA
ATOM     15  H   LIG    1       32.107 -23.516   8.572  0.00  0.00    +0.295 HD
ENDBRANCH  12  14
ENDBRANCH  11  12
ENDBRANCH  10  11
ENDBRANCH   9  10
ENDBRANCH   1   9
TORSDOF 11
ENDMDL
MODEL 3
REMARK VINA RESULT:      -6.6      1.195      2.023
REMARK  Name = *****
REMARK                            x       y       z     vdW  Elec       q    Type
REMARK                         _______ _______ _______ _____ _____    ______ ____
ROOT
ATOM      1  C   LIG    1       27.226 -20.698   7.839  0.00  0.00    +0.000 C 
ENDROOT
BRANCH   1   2
ATOM      2  C   LIG    1       25.701 -20.558   8.085  0.00  0.00    -0.000 C 
BRANCH   2   3
ATOM      3  C   LIG    1       24.722 -21.479   7.306  0.00  0.00    -0.000 C 
BRANCH   3   4
ATOM      4  C   LIG    1       23.331 -20.790   7.073  0.00  0.00    -0.000 C 
BRANCH   4   5
ATOM      5  C   LIG    1       22.782 -20.835   5.614  0.00  0.00    -0.000 C 
BRANCH   5   6
ATOM      6  C   LIG    1       22.579 -19.448   4.940  0.00  0.00    -0.000 C 
BRANCH   6   8
ATOM      7  C   LIG    1       24.980 -19.711   3.903  0.00  0.00    +0.004 C 
ATOM      8  C   LIG    1       23.590 -19.087   3.820  0.00  0.00    -0.003 C 
ENDBRANCH   6   8
ENDBRANCH   5   6
ENDBRANCH   4   5
ENDBRANCH   3   4
ENDBRANCH   2   3
ENDBRANCH   1   2
BRANCH   1   9
ATOM      9  C   LIG    1       27.793 -20.144   6.516  0.00  0.00    +0.000 C 
BRANCH   9  10
ATOM     10  C   LIG    1       29.148 -19.457   6.693  0.00  0.00    +0.011 C 
BRANCH  10  11
ATOM     11  C   LIG    1       29.744 -19.502   8.101  0.00  0.00    +0.120 C 
BRANCH  11  12
ATOM     12  C   LIG    1       31.262 -19.565   8.005  0.00  0.00    +0.305 C 
ATOM     13  O   LIG    1       31.875 -19.461   6.977  0.00  0.00    -0.251 OA
BRANCH  12  14
ATOM     14  O   LIG    1       31.879 -19.746   9.206  0.00  0.00    -0.481 OA
ATOM     15  H   LIG    1       31.490 -19.265   9.949  0.00  0.00    +0.295 HD
ENDBRANCH  12  14
ENDBRANCH  11  12
ENDBRANCH  10  11
ENDBRANCH   9  10
ENDBRANCH   1   9
TORSDOF 11
ENDMDL
MODEL 4
REMARK VINA RESULT:      -6.5      1.392      1.878
REMARK  Name = *****
REMARK                            x       y       z     vdW  Elec       q    Type
REMARK                         _______ _______ _______ _____ _____    ______ ____
ROOT
ATOM      1  C   LIG    1       26.820 -20.343   7.985  0.00  0.00    +0.000 C 
ENDROOT
BRANCH   1   2
ATOM      2  C   LIG    1       25.756 -21.342   8.512  0.00  0.00    -0.000 C 
BRANCH   2   3
ATOM      3  C   LIG    1       25.401 -22.589   7.657  0.00  0.00    -0.000 C 
BRANCH   3   4
ATOM      4  C   LIG    1       23.967 -22.478   7.029  0.00  0.00    -0.000 C 
BRANCH   4   5
ATOM      5  C   LIG    1       23.303 -21.067   7.088  0.00  0.00    -0.000 C 
BRANCH   5   6
ATOM      6  C   LIG    1       23.215 -20.319   5.728  0.00  0.00    -0.000 C 
BRANCH   6   8
ATOM      7  C   LIG    1       25.062 -19.709   3.960  0.00  0.00    +0.004 C 
ATOM      8  C   LIG    1       24.214 -20.783   4.636  0.00  0.00    -0.003 C 
ENDBRANCH   6   8
ENDBRANCH   5   6
ENDBRANCH   4   5
ENDBRANCH   3   4
ENDBRANCH   2   3
ENDBRANCH   1   2
BRANCH   1   9
ATOM      9  C   LIG    1       27.607 -20.736   6.718  0.00  0.00    +0.000 C 
BRANCH   9  10
ATOM     10  C   LIG    1       29.102 -20.431   6.831  0.00  0.00    +0.011 C 
BRANCH  10  11
ATOM     11  C   LIG    1       29.795 -20.931   8.099  0.00  0.00    +0.120 C 
BRANCH  11  12
ATOM     12  C   LIG    1       31.176 -20.300   8.202  0.00  0.00    +0.305 C 
ATOM     13  O   LIG    1       31.826 -20.263   9.213  0.00  0.00    -0.251 OA
BRANCH  12  14
ATOM     14  O   LIG    1       31.627 -19.775   7.028  0.00  0.00    -0.481 OA
ATOM     15  H   LIG    1       32.552 -19.961   6.819  0.00  0.00    +0.295 HD
ENDBRANCH  12  14
ENDBRANCH  11  12
ENDBRANCH  10  11
ENDBRANCH   9  10
ENDBRANCH   1   9
TORSDOF 11
ENDMDL
MODEL 5
REMARK VINA RESULT:      -6.3      1.470      2.559
REMARK  Name = *****
REMARK                            x       y       z     vdW  Elec       q    Type
REMARK                         _______ _______ _______ _____ _____    ______ ____
ROOT
ATOM      1  C   LIG    1       27.952 -20.855   7.134  0.00  0.00    +0.000 C 
ENDROOT
BRANCH   1   2
ATOM      2  C   LIG    1       26.472 -20.482   7.417  0.00  0.00    -0.000 C 
BRANCH   2   3
ATOM      3  C   LIG    1       25.406 -20.734   6.316  0.00  0.00    -0.000 C 
BRANCH   3   4
ATOM      4  C   LIG    1       23.946 -20.666   6.889  0.00  0.00    -0.000 C 
BRANCH   4   5
ATOM      5  C   LIG    1       23.389 -21.990   7.499  0.00  0.00    -0.000 C 
BRANCH   5   6
ATOM      6  C   LIG    1       23.017 -23.090   6.465  0.00  0.00    -0.000 C 
BRANCH   6   8
ATOM      7  C   LIG    1       25.276 -24.417   6.671  0.00  0.00    +0.004 C 
ATOM      8  C   LIG    1       23.752 -24.446   6.629  0.00  0.00    -0.003 C 
ENDBRANCH   6   8
ENDBRANCH   5   6
ENDBRANCH   4   5
ENDBRANCH   3   4
ENDBRANCH   2   3
ENDBRANCH   1   2
BRANCH   1   9
ATOM      9  C   LIG    1       28.736 -19.974   6.141  0.00  0.00    +0.000 C 
BRANCH   9  10
ATOM     10  C   LIG    1       29.695 -19.006   6.837  0.00  0.00    +0.011 C 
BRANCH  10  11
ATOM     11  C   LIG    1       29.857 -19.191   8.347  0.00  0.00    +0.120 C 
BRANCH  11  12
ATOM     12  C   LIG    1       31.220 -19.802   8.638  0.00  0.00    +0.305 C 
ATOM     13  O   LIG    1       32.073 -19.263   9.290  0.00  0.00    -0.251 OA
BRANCH  12  14
ATOM     14  O   LIG    1       31.393 -21.039   8.092  0.00  0.00    -0.481 OA
ATOM     15  H   LIG    1       31.374 -21.072   7.126  0.00  0.00    +0.295 HD
ENDBRANCH  12  14
ENDBRANCH  11  12
ENDBRANCH  10  11
ENDBRANCH   9  10
ENDBRANCH   1   9
TORSDOF 11
ENDMDL
MODEL 6
REMARK VINA RESULT:      -6.2      5.056      6.621
REMARK  Name = *****
REMARK                            x       y       z     vdW  Elec       q    Type
REMARK                         _______ _______ _______ _____ _____    ______ ____
ROOT
ATOM      1  C   LIG    1       25.940 -24.072   7.039  0.00  0.00    +0.000 C 
ENDROOT
BRANCH   1   2
ATOM      2  C   LIG    1       26.402 -22.630   7.379  0.00  0.00    -0.000 C 
BRANCH   2   3
ATOM      3  C   LIG    1       25.420 -21.674   8.110  0.00  0.00    -0.000 C 
BRANCH   3   4
ATOM      4  C   LIG    1       24.737 -20.667   7.119  0.00  0.00    -0.000 C 
BRANCH   4   5
ATOM      5  C   LIG    1       23.192 -20.809   6.957  0.00  0.00    -0.000 C 
BRANCH   5   6
ATOM      6  C   LIG    1       22.680 -20.841   5.489  0.00  0.00    -0.000 C 
BRANCH   6   8
ATOM      7  C   LIG    1       22.258 -18.429   4.534  0.00  0.00    +0.004 C 
ATOM      8  C   LIG    1       23.145 -19.669   4.586  0.00  0.00    -0.003 C 
ENDBRANCH   6   8
ENDBRANCH   5   6
ENDBRANCH   4   5
ENDBRANCH   3   4
ENDBRANCH   2   3
ENDBRANCH   1   2
BRANCH   1   9
ATOM      9  C   LIG    1       24.494 -24.261   6.534  0.00  0.00    +0.000 C 
BRANCH   9  10
ATOM     10  C   LIG    1       24.259 -25.639   5.913  0.00  0.00    +0.011 C 
BRANCH  10  11
ATOM     11  C   LIG    1       25.180 -26.018   4.751  0.00  0.00    +0.120 C 
BRANCH  11  12
ATOM     12  C   LIG    1       25.983 -27.254   5.126  0.00  0.00    +0.305 C 
ATOM     13  O   LIG    1       25.497 -28.330   5.349  0.00  0.00    -0.251 OA
BRANCH  12  14
ATOM     14  O   LIG    1       27.328 -27.037   5.182  0.00  0.00    -0.481 OA
ATOM     15  H   LIG    1       27.879 -27.770   4.879  0.00  0.00    +0.295 HD
ENDBRANCH  12  14
ENDBRANCH  11  12
ENDBRANCH  10  11
ENDBRANCH   9  10
ENDBRANCH   1   9
TORSDOF 11
ENDMDL
MODEL 7
REMARK VINA RESULT:      -6.1      1.911      3.399
REMARK  Name = *****
REMARK                            x       y       z     vdW  Elec       q    Type
REMARK                         _______ _______ _______ _____ _____    ______ ____
ROOT
ATOM      1  C   LIG    1       25.744 -22.710   7.138  0.00  0.00    +0.000 C 
ENDROOT
BRANCH   1   2
ATOM      2  C   LIG    1       24.489 -23.580   6.863  0.00  0.00    -0.000 C 
BRANCH   2   3
ATOM      3  C   LIG    1       23.083 -22.924   6.942  0.00  0.00    -0.000 C 
BRANCH   3   4
ATOM      4  C   LIG    1       22.852 -21.893   5.782  0.00  0.00    -0.000 C 
BRANCH   4   5
ATOM      5  C   LIG    1       23.156 -20.401   6.122  0.00  0.00    -0.000 C 
BRANCH   5   6
ATOM      6  C   LIG    1       22.491 -19.358   5.181  0.00  0.00    -0.000 C 
BRANCH   6   8
ATOM      7  C   LIG    1       24.726 -19.522   3.809  0.00  0.00    +0.004 C 
ATOM      8  C   LIG    1       23.316 -18.952   3.932  0.00  0.00    -0.003 C 
ENDBRANCH   6   8
ENDBRANCH   5   6
ENDBRANCH   4   5
ENDBRANCH   3   4
ENDBRANCH   2   3
ENDBRANCH   1   2
BRANCH   1   9
ATOM      9  C   LIG    1       25.792 -21.918   8.460  0.00  0.00    +0.000 C 
BRANCH   9  10
ATOM     10  C   LIG    1       26.420 -20.533   8.299  0.00  0.00    +0.011 C 
BRANCH  10  11
ATOM     11  C   LIG    1       27.248 -20.315   7.031  0.00  0.00    +0.120 C 
BRANCH  11  12
ATOM     12  C   LIG    1       28.683 -19.983   7.416  0.00  0.00    +0.305 C 
ATOM     13  O   LIG    1       29.250 -20.454   8.364  0.00  0.00    -0.251 OA
BRANCH  12  14
ATOM     14  O   LIG    1       29.284 -19.096   6.574  0.00  0.00    -0.481 OA
ATOM     15  H   LIG    1       29.576 -18.270   6.982  0.00  0.00    +0.295 HD
ENDBRANCH  12  14
ENDBRANCH  11  12
ENDBRANCH  10  11
ENDBRANCH   9  10
ENDBRANCH   1   9
TORSDOF 11
ENDMDL
MODEL 8
REMARK VINA RESULT:      -6.0      2.460      4.017
REMARK  Name = *****
REMARK                            x       y       z     vdW  Elec       q    Type
REMARK                         _______ _______ _______ _____ _____    ______ ____
ROOT
ATOM      1  C   LIG    1       25.088 -20.673   4.513  0.00  0.00    +0.000 C 
ENDROOT
BRANCH   1   2
ATOM      2  C   LIG    1       23.764 -19.864   4.503  0.00  0.00    -0.000 C 
BRANCH   2   3
ATOM      3  C   LIG    1       22.691 -20.157   5.587  0.00  0.00    -0.000 C 
BRANCH   3   4
ATOM      4  C   LIG    1       23.312 -20.847   6.853  0.00  0.00    -0.000 C 
BRANCH   4   5
ATOM      5  C   LIG    1       23.065 -22.383   6.984  0.00  0.00    -0.000 C 
BRANCH   5   6
ATOM      6  C   LIG    1       24.345 -23.264   6.945  0.00  0.00    -0.000 C 
BRANCH   6   8
ATOM      7  C   LIG    1       25.072 -25.078   5.187  0.00  0.00    +0.004 C 
ATOM      8  C   LIG    1       24.167 -24.687   6.351  0.00  0.00    -0.003 C 
ENDBRANCH   6   8
ENDBRANCH   5   6
ENDBRANCH   4   5
ENDBRANCH   3   4
ENDBRANCH   2   3
ENDBRANCH   1   2
BRANCH   1   9
ATOM      9  C   LIG    1       26.365 -19.954   4.994  0.00  0.00    +0.000 C 
BRANCH   9  10
ATOM     10  C   LIG    1       26.772 -20.356   6.413  0.00  0.00    +0.011 C 
BRANCH  10  11
ATOM     11  C   LIG    1       28.223 -20.805   6.593  0.00  0.00    +0.120 C 
BRANCH  11  12
ATOM     12  C   LIG    1       28.425 -21.300   8.018  0.00  0.00    +0.305 C 
ATOM     13  O   LIG    1       29.501 -21.461   8.528  0.00  0.00    -0.251 OA
BRANCH  12  14
ATOM     14  O   LIG    1       27.261 -21.543   8.683  0.00  0.00    -0.481 OA
ATOM     15  H   LIG    1       27.357 -21.777   9.616  0.00  0.00    +0.295 HD
ENDBRANCH  12  14
ENDBRANCH  11  12
ENDBRANCH  10  11
ENDBRANCH   9  10
ENDBRANCH   1   9
TORSDOF 11
ENDMDL
MODEL 9
REMARK VINA RESULT:      -6.0      5.954      7.318
REMARK  Name = *****
REMARK                            x       y       z     vdW  Elec       q    Type
REMARK                         _______ _______ _______ _____ _____    ______ ____
ROOT
ATOM      1  C   LIG    1       23.572 -24.327   6.591  0.00  0.00    +0.000 C 
ENDROOT
BRANCH   1   2
ATOM      2  C   LIG    1       22.891 -22.975   6.931  0.00  0.00    -0.000 C 
BRANCH   2   3
ATOM      3  C   LIG    1       23.770 -21.782   7.398  0.00  0.00    -0.000 C 
BRANCH   3   4
ATOM      4  C   LIG    1       23.281 -20.422   6.786  0.00  0.00    -0.000 C 
BRANCH   4   5
ATOM      5  C   LIG    1       22.539 -20.516   5.416  0.00  0.00    -0.000 C 
BRANCH   5   6
ATOM      6  C   LIG    1       22.521 -19.205   4.582  0.00  0.00    -0.000 C 
BRANCH   6   8
ATOM      7  C   LIG    1       24.703 -20.095   3.420  0.00  0.00    +0.004 C 
ATOM      8  C   LIG    1       23.800 -18.912   3.755  0.00  0.00    -0.003 C 
ENDBRANCH   6   8
ENDBRANCH   5   6
ENDBRANCH   4   5
ENDBRANCH   3   4
ENDBRANCH   2   3
ENDBRANCH   1   2
BRANCH   1   9
ATOM      9  C   LIG    1       24.987 -24.283   5.977  0.00  0.00    +0.000 C 
BRANCH   9  10
ATOM     10  C   LIG    1       25.620 -25.669   5.847  0.00  0.00    +0.011 C 
BRANCH  10  11
ATOM     11  C   LIG    1       24.655 -26.827   5.592  0.00  0.00    +0.120 C 
BRANCH  11  12
ATOM     12  C   LIG    1       25.448 -28.082   5.259  0.00  0.00    +0.305 C 
ATOM     13  O   LIG    1       24.966 -29.179   5.169  0.00  0.00    -0.251 OA
BRANCH  12  14
ATOM     14  O   LIG    1       26.777 -27.853   5.061  0.00  0.00    -0.481 OA
ATOM     15  H   LIG    1       26.988 -27.093   4.501  0.00  0.00    +0.295 HD
ENDBRANCH  12  14
ENDBRANCH  11  12
ENDBRANCH  10  11
ENDBRANCH   9  10
ENDBRANCH   1   9
TORSDOF 11
ENDMDL
