MODEL 1
REMARK VINA RESULT:      -8.4      0.000      0.000
REMARK  Name = *****
REMARK                            x       y       z     vdW  Elec       q    Type
REMARK                         _______ _______ _______ _____ _____    ______ ____
ROOT
ATOM      1  C   LIG    1       25.350 -21.535   6.859  0.00  0.00    +0.069 C 
ENDROOT
BRANCH   1   2
ATOM      2  C   LIG    1       25.049 -23.028   6.687  0.00  0.00    +0.049 A 
ATOM      3  N   LIG    1       26.122 -23.856   6.617  0.00  0.00    -0.259 NA
ATOM      4  C   LIG    1       25.896 -25.182   6.481  0.00  0.00    +0.111 A 
ATOM      5  C   LIG    1       24.631 -25.737   6.390  0.00  0.00    +0.020 A 
ATOM      6  C   LIG    1       23.539 -24.885   6.449  0.00  0.00    +0.003 A 
ATOM      7  C   LIG    1       23.739 -23.513   6.607  0.00  0.00    +0.024 A 
ENDBRANCH   1   2
BRANCH   1   8
ATOM      8  C   LIG    1       24.547 -20.661   5.878  0.00  0.00    -0.038 A 
ATOM      9  C   LIG    1       25.135 -20.261   4.662  0.00  0.00    +0.004 A 
ATOM     10  C   LIG    1       24.439 -19.469   3.743  0.00  0.00    +0.000 A 
ATOM     11  C   LIG    1       23.134 -19.071   4.014  0.00  0.00    +0.000 A 
ATOM     12  C   LIG    1       22.522 -19.479   5.195  0.00  0.00    +0.000 A 
ATOM     13  C   LIG    1       23.218 -20.271   6.114  0.00  0.00    +0.004 A 
ENDBRANCH   1   8
BRANCH   1  14
ATOM     14  C   LIG    1       26.880 -21.251   6.869  0.00  0.00    +0.029 C 
BRANCH  14  15
ATOM     15  C   LIG    1       27.328 -20.259   7.959  0.00  0.00    +0.085 C 
BRANCH  15  17
ATOM     16  C   LIG    1       29.511 -21.246   8.073  0.00  0.00    +0.104 C 
ATOM     17  N   LIG    1       28.780 -19.974   7.982  0.00  0.00    -0.308 NA
ATOM     18  C   LIG    1       29.247 -19.241   6.803  0.00  0.00    +0.104 C 
ENDBRANCH  15  17
ENDBRANCH  14  15
ENDBRANCH   1  14
TORSDOF 5
ENDMDL
MODEL 2
REMARK VINA RESULT:      -8.3      0.928      1.656
REMARK  Name = *****
REMARK                            x       y       z     vdW  Elec       q    Type
REMARK                         _______ _______ _______ _____ _____    ______ ____
ROOT
ATOM      1  C   LIG    1       24.379 -21.986   7.269  0.00  0.00    +0.069 C 
ENDROOT
BRANCH   1   2
ATOM      2  C   LIG    1       24.613 -23.445   6.861  0.00  0.00    +0.049 A 
ATOM      3  N   LIG    1       25.902 -23.871   6.862  0.00  0.00    -0.259 NA
ATOM      4  C   LIG    1       26.147 -25.157   6.523  0.00  0.00    +0.111 A 
ATOM      5  C   LIG    1       25.158 -26.054   6.158  0.00  0.00    +0.020 A 
ATOM      6  C   LIG    1       23.845 -25.609   6.146  0.00  0.00    +0.003 A 
ATOM      7  C   LIG    1       23.558 -24.292   6.509  0.00  0.00    +0.024 A 
ENDBRANCH   1   2
BRANCH   1   8
ATOM      8  C   LIG    1       24.025 -21.094   6.065  0.00  0.00    -0.038 A 
ATOM      9  C   LIG    1       22.963 -20.173   6.172  0.00  0.00    +0.004 A 
ATOM     10  C   LIG    1       22.611 -19.342   5.103  0.00  0.00    +0.000 A 
ATOM     11  C   LIG    1       23.321 -19.404   3.909  0.00  0.00    +0.000 A 
ATOM     12  C   LIG    1       24.392 -20.284   3.790  0.00  0.00    +0.000 A 
ATOM     13  C   LIG    1       24.745 -21.115   4.859  0.00  0.00    +0.004 A 
ENDBRANCH   1   8
BRANCH   1  14
ATOM     14  C   LIG    1       25.534 -21.440   8.157  0.00  0.00    +0.029 C 
BRANCH  14  15
ATOM     15  C   LIG    1       26.421 -20.392   7.460  0.00  0.00    +0.085 C 
BRANCH  15  17
ATOM     16  C   LIG    1       28.151 -19.937   5.861  0.00  0.00    +0.104 C 
ATOM     17  N   LIG    1       27.633 -20.936   6.809  0.00  0.00    -0.308 NA
ATOM     18  C   LIG    1       28.694 -21.287   7.756  0.00  0.00    +0.104 C 
ENDBRANCH  15  17
ENDBRANCH  14  15
ENDBRANCH   1  14
TORSDOF 5
ENDMDL
MODEL 3
REMARK VINA RESULT:      -8.1      1.027      4.762
REMARK  Name = *****
REMARK                            x       y       z     vdW  Elec       q    Type
REMARK                         _______ _______ _______ _____ _____    ______ ____
ROOT
ATOM      1  C   LIG    1       26.357 -21.446   6.283  0.00  0.00    +0.069 C 
ENDROOT
BRANCH   1   2
ATOM      2  C   LIG    1       27.516 -20.494   6.596  0.00  0.00    +0.049 A 
ATOM      3  N   LIG    1       27.883 -20.398   7.899  0.00  0.00    -0.259 NA
ATOM      4  C   LIG    1       28.913 -19.579   8.212  0.00  0.00    +0.111 A 
ATOM      5  C   LIG    1       29.599 -18.822   7.279  0.00  0.00    +0.020 A 
ATOM      6  C   LIG    1       29.211 -18.914   5.951  0.00  0.00    +0.003 A 
ATOM      7  C   LIG    1       28.163 -19.764   5.594  0.00  0.00    +0.024 A 
ENDBRANCH   1   2
BRANCH   1   8
ATOM      8  C   LIG    1       25.134 -20.707   5.708  0.00  0.00    -0.038 A 
ATOM      9  C   LIG    1       25.214 -20.126   4.427  0.00  0.00    +0.004 A 
ATOM     10  C   LIG    1       24.126 -19.449   3.866  0.00  0.00    +0.000 A 
ATOM     11  C   LIG    1       22.930 -19.350   4.569  0.00  0.00    +0.000 A 
ATOM     12  C   LIG    1       22.818 -19.941   5.824  0.00  0.00    +0.000 A 
ATOM     13  C   LIG    1       23.906 -20.619   6.384  0.00  0.00    +0.004 A 
ENDBRANCH   1   8
BRANCH   1  14
ATOM     14  C   LIG    1       26.036 -22.383   7.484  0.00  0.00    +0.029 C 
BRANCH  14  15
ATOM     15  C   LIG    1       25.881 -23.865   7.101  0.00  0.00    +0.085 C 
BRANCH  15  17
ATOM     16  C   LIG    1       25.310 -25.290   5.256  0.00  0.00    +0.104 C 
ATOM     17  N   LIG    1       24.871 -24.134   6.052  0.00  0.00    -0.308 NA
ATOM     18  C   LIG    1       23.536 -24.407   6.589  0.00  0.00    +0.104 C 
ENDBRANCH  15  17
ENDBRANCH  14  15
ENDBRANCH   1  14
TORSDOF 5
ENDMDL
MODEL 4
REMARK VINA RESULT:      -8.0      1.103      4.600
REMARK  Name = *****
REMARK                            x       y       z     vdW  Elec       q    Type
REMARK                         _______ _______ _______ _____ _____    ______ ____
ROOT
ATOM      1  C   LIG    1       25.856 -21.447   6.040  0.00  0.00    +0.069 C 
ENDROOT
BRANCH   1   2
ATOM      2  C   LIG    1       27.080 -20.634   6.478  0.00  0.00    +0.049 A 
ATOM      3  N   LIG    1       27.802 -20.053   5.487  0.00  0.00    -0.259 NA
ATOM      4  C   LIG    1       28.880 -19.314   5.835  0.00  0.00    +0.111 A 
ATOM      5  C   LIG    1       29.296 -19.137   7.143  0.00  0.00    +0.020 A 
ATOM      6  C   LIG    1       28.562 -19.744   8.150  0.00  0.00    +0.003 A 
ATOM      7  C   LIG    1       27.433 -20.498   7.824  0.00  0.00    +0.024 A 
ENDBRANCH   1   2
BRANCH   1   8
ATOM      8  C   LIG    1       24.752 -20.560   5.436  0.00  0.00    -0.038 A 
ATOM      9  C   LIG    1       24.987 -19.892   4.218  0.00  0.00    +0.004 A 
ATOM     10  C   LIG    1       24.010 -19.079   3.634  0.00  0.00    +0.000 A 
ATOM     11  C   LIG    1       22.771 -18.927   4.249  0.00  0.00    +0.000 A 
ATOM     12  C   LIG    1       22.506 -19.601   5.437  0.00  0.00    +0.000 A 
ATOM     13  C   LIG    1       23.483 -20.414   6.021  0.00  0.00    +0.004 A 
ENDBRANCH   1   8
BRANCH   1  14
ATOM     14  C   LIG    1       25.367 -22.408   7.163  0.00  0.00    +0.029 C 
BRANCH  14  15
ATOM     15  C   LIG    1       25.883 -23.852   7.023  0.00  0.00    +0.085 C 
BRANCH  15  17
ATOM     16  C   LIG    1       23.548 -24.253   6.642  0.00  0.00    +0.104 C 
ATOM     17  N   LIG    1       24.898 -24.815   6.481  0.00  0.00    -0.308 NA
ATOM     18  C   LIG    1       25.114 -25.134   5.068  0.00  0.00    +0.104 C 
ENDBRANCH  15  17
ENDBRANCH  14  15
ENDBRANCH   1  14
TORSDOF 5
ENDMDL
MODEL 5
REMARK VINA RESULT:      -8.0      1.185      4.359
REMARK  Name = *****
REMARK                            x       y       z     vdW  Elec       q    Type
REMARK                         _______ _______ _______ _____ _____    ______ ____
ROOT
ATOM      1  C   LIG    1       25.551 -21.517   6.507  0.00  0.00    +0.069 C 
ENDROOT
BRANCH   1   2
ATOM      2  C   LIG    1       24.613 -20.639   5.671  0.00  0.00    +0.049 A 
ATOM      3  N   LIG    1       25.104 -20.187   4.490  0.00  0.00    -0.259 NA
ATOM      4  C   LIG    1       24.300 -19.422   3.717  0.00  0.00    +0.111 A 
ATOM      5  C   LIG    1       23.014 -19.060   4.075  0.00  0.00    +0.020 A 
ATOM      6  C   LIG    1       22.522 -19.513   5.289  0.00  0.00    +0.003 A 
ATOM      7  C   LIG    1       23.321 -20.320   6.102  0.00  0.00    +0.024 A 
ENDBRANCH   1   2
BRANCH   1   8
ATOM      8  C   LIG    1       25.123 -22.996   6.504  0.00  0.00    -0.038 A 
ATOM      9  C   LIG    1       26.104 -24.003   6.594  0.00  0.00    +0.004 A 
ATOM     10  C   LIG    1       25.759 -25.358   6.596  0.00  0.00    +0.000 A 
ATOM     11  C   LIG    1       24.422 -25.736   6.522  0.00  0.00    +0.000 A 
ATOM     12  C   LIG    1       23.433 -24.759   6.463  0.00  0.00    +0.000 A 
ATOM     13  C   LIG    1       23.779 -23.404   6.460  0.00  0.00    +0.004 A 
ENDBRANCH   1   8
BRANCH   1  14
ATOM     14  C   LIG    1       25.793 -20.920   7.925  0.00  0.00    +0.029 C 
BRANCH  14  15
ATOM     15  C   LIG    1       27.176 -20.270   8.104  0.00  0.00    +0.085 C 
BRANCH  15  17
ATOM     16  C   LIG    1       28.595 -19.709   6.253  0.00  0.00    +0.104 C 
ATOM     17  N   LIG    1       28.226 -20.778   7.193  0.00  0.00    -0.308 NA
ATOM     18  C   LIG    1       29.431 -21.233   7.891  0.00  0.00    +0.104 C 
ENDBRANCH  15  17
ENDBRANCH  14  15
ENDBRANCH   1  14
TORSDOF 5
ENDMDL
MODEL 6
REMARK VINA RESULT:      -7.7      1.697      5.149
REMARK  Name = *****
REMARK                            x       y       z     vdW  Elec       q    Type
REMARK                         _______ _______ _______ _____ _____    ______ ____
ROOT
ATOM      1  C   LIG    1       25.929 -21.879   7.125  0.00  0.00    +0.069 C 
ENDROOT
BRANCH   1   2
ATOM      2  C   LIG    1       24.816 -21.304   6.242  0.00  0.00    +0.049 A 
ATOM      3  N   LIG    1       24.923 -21.537   4.909  0.00  0.00    -0.259 NA
ATOM      4  C   LIG    1       23.951 -21.059   4.099  0.00  0.00    +0.111 A 
ATOM      5  C   LIG    1       22.866 -20.331   4.554  0.00  0.00    +0.020 A 
ATOM      6  C   LIG    1       22.769 -20.085   5.915  0.00  0.00    +0.003 A 
ATOM      7  C   LIG    1       23.747 -20.581   6.779  0.00  0.00    +0.024 A 
ENDBRANCH   1   2
BRANCH   1   8
ATOM      8  C   LIG    1       27.252 -21.105   6.973  0.00  0.00    -0.038 A 
ATOM      9  C   LIG    1       28.341 -21.421   7.810  0.00  0.00    +0.004 A 
ATOM     10  C   LIG    1       29.561 -20.744   7.703  0.00  0.00    +0.000 A 
ATOM     11  C   LIG    1       29.722 -19.746   6.748  0.00  0.00    +0.000 A 
ATOM     12  C   LIG    1       28.671 -19.438   5.891  0.00  0.00    +0.000 A 
ATOM     13  C   LIG    1       27.452 -20.114   5.997  0.00  0.00    +0.004 A 
ENDBRANCH   1   8
BRANCH   1  14
ATOM     14  C   LIG    1       26.063 -23.421   6.959  0.00  0.00    +0.029 C 
BRANCH  14  15
ATOM     15  C   LIG    1       24.717 -24.158   6.837  0.00  0.00    +0.085 C 
BRANCH  15  17
ATOM     16  C   LIG    1       25.069 -25.316   4.765  0.00  0.00    +0.104 C 
ATOM     17  N   LIG    1       24.795 -25.492   6.199  0.00  0.00    -0.308 NA
ATOM     18  C   LIG    1       25.828 -26.353   6.778  0.00  0.00    +0.104 C 
ENDBRANCH  15  17
ENDBRANCH  14  15
ENDBRANCH   1  14
TORSDOF 5
ENDMDL
MODEL 7
REMARK VINA RESULT:      -7.5      1.708      5.345
REMARK  Name = *****
REMARK                            x       y       z     vdW  Elec       q    Type
REMARK                         _______ _______ _______ _____ _____    ______ ____
ROOT
ATOM      1  C   LIG    1       24.787 -21.416   7.511  0.00  0.00    +0.069 C 
ENDROOT
BRANCH   1   2
ATOM      2  C   LIG    1       26.151 -20.788   7.206  0.00  0.00    +0.049 A 
ATOM      3  N   LIG    1       26.420 -20.536   5.900  0.00  0.00    -0.259 NA
ATOM      4  C   LIG    1       27.609 -19.968   5.593  0.00  0.00    +0.111 A 
ATOM      5  C   LIG    1       28.570 -19.648   6.536  0.00  0.00    +0.020 A 
ATOM      6  C   LIG    1       28.295 -19.920   7.867  0.00  0.00    +0.003 A 
ATOM      7  C   LIG    1       27.069 -20.490   8.218  0.00  0.00    +0.024 A 
ENDBRANCH   1   2
BRANCH   1   8
ATOM      8  C   LIG    1       24.714 -22.892   7.079  0.00  0.00    -0.038 A 
ATOM      9  C   LIG    1       25.897 -23.653   7.004  0.00  0.00    +0.004 A 
ATOM     10  C   LIG    1       25.875 -24.997   6.619  0.00  0.00    +0.000 A 
ATOM     11  C   LIG    1       24.666 -25.614   6.313  0.00  0.00    +0.000 A 
ATOM     12  C   LIG    1       23.481 -24.891   6.408  0.00  0.00    +0.000 A 
ATOM     13  C   LIG    1       23.504 -23.547   6.794  0.00  0.00    +0.004 A 
ENDBRANCH   1   8
BRANCH   1  14
ATOM     14  C   LIG    1       23.614 -20.534   6.991  0.00  0.00    +0.029 C 
BRANCH  14  15
ATOM     15  C   LIG    1       23.334 -20.686   5.484  0.00  0.00    +0.085 C 
BRANCH  15  17
ATOM     16  C   LIG    1       24.094 -19.763   3.404  0.00  0.00    +0.104 C 
ATOM     17  N   LIG    1       23.473 -19.440   4.697  0.00  0.00    -0.308 NA
ATOM     18  C   LIG    1       22.198 -18.761   4.455  0.00  0.00    +0.104 C 
ENDBRANCH  15  17
ENDBRANCH  14  15
ENDBRANCH   1  14
TORSDOF 5
ENDMDL
MODEL 8
REMARK VINA RESULT:      -7.5      1.324      4.458
REMARK  Name = *****
REMARK                            x       y       z     vdW  Elec       q    Type
REMARK                         _______ _______ _______ _____ _____    ______ ____
ROOT
ATOM      1  C   LIG    1       25.785 -21.460   6.346  0.00  0.00    +0.069 C 
ENDROOT
BRANCH   1   2
ATOM      2  C   LIG    1       24.739 -20.634   5.590  0.00  0.00    +0.049 A 
ATOM      3  N   LIG    1       23.522 -20.518   6.180  0.00  0.00    -0.259 NA
ATOM      4  C   LIG    1       22.577 -19.783   5.550  0.00  0.00    +0.111 A 
ATOM      5  C   LIG    1       22.778 -19.163   4.330  0.00  0.00    +0.020 A 
ATOM      6  C   LIG    1       24.018 -19.296   3.726  0.00  0.00    +0.003 A 
ATOM      7  C   LIG    1       25.021 -20.033   4.359  0.00  0.00    +0.024 A 
ENDBRANCH   1   2
BRANCH   1   8
ATOM      8  C   LIG    1       25.525 -22.974   6.237  0.00  0.00    -0.038 A 
ATOM      9  C   LIG    1       24.901 -23.490   5.084  0.00  0.00    +0.004 A 
ATOM     10  C   LIG    1       24.648 -24.858   4.944  0.00  0.00    +0.000 A 
ATOM     11  C   LIG    1       25.026 -25.743   5.949  0.00  0.00    +0.000 A 
ATOM     12  C   LIG    1       25.671 -25.260   7.083  0.00  0.00    +0.000 A 
ATOM     13  C   LIG    1       25.924 -23.891   7.223  0.00  0.00    +0.004 A 
ENDBRANCH   1   8
BRANCH   1  14
ATOM     14  C   LIG    1       25.989 -20.945   7.800  0.00  0.00    +0.029 C 
BRANCH  14  15
ATOM     15  C   LIG    1       27.328 -20.220   8.028  0.00  0.00    +0.085 C 
BRANCH  15  17
ATOM     16  C   LIG    1       28.908 -19.603   6.330  0.00  0.00    +0.104 C 
ATOM     17  N   LIG    1       28.449 -20.704   7.191  0.00  0.00    -0.308 NA
ATOM     18  C   LIG    1       29.584 -21.202   7.971  0.00  0.00    +0.104 C 
ENDBRANCH  15  17
ENDBRANCH  14  15
ENDBRANCH   1  14
TORSDOF 5
ENDMDL
MODEL 9
REMARK VINA RESULT:      -7.4      1.897      4.474
REMARK  Name = *****
REMARK                            x       y       z     vdW  Elec       q    Type
REMARK                         _______ _______ _______ _____ _____    ______ ____
ROOT
ATOM      1  C   LIG    1       24.627 -21.129   5.642  0.00  0.00    +0.069 C 
ENDROOT
BRANCH   1   2
ATOM      2  C   LIG    1       24.369 -22.628   5.824  0.00  0.00    +0.049 A 
ATOM      3  N   LIG    1       25.187 -23.469   5.140  0.00  0.00    -0.259 NA
ATOM      4  C   LIG    1       25.000 -24.800   5.288  0.00  0.00    +0.111 A 
ATOM      5  C   LIG    1       24.007 -25.349   6.081  0.00  0.00    +0.020 A 
ATOM      6  C   LIG    1       23.166 -24.486   6.766  0.00  0.00    +0.003 A 
ATOM      7  C   LIG    1       23.346 -23.107   6.648  0.00  0.00    +0.024 A 
ENDBRANCH   1   2
BRANCH   1   8
ATOM      8  C   LIG    1       25.944 -20.680   6.303  0.00  0.00    -0.038 A 
ATOM      9  C   LIG    1       26.080 -20.759   7.703  0.00  0.00    +0.004 A 
ATOM     10  C   LIG    1       27.259 -20.363   8.343  0.00  0.00    +0.000 A 
ATOM     11  C   LIG    1       28.333 -19.893   7.595  0.00  0.00    +0.000 A 
ATOM     12  C   LIG    1       28.233 -19.834   6.209  0.00  0.00    +0.000 A 
ATOM     13  C   LIG    1       27.054 -20.229   5.569  0.00  0.00    +0.004 A 
ENDBRANCH   1   8
BRANCH   1  14
ATOM     14  C   LIG    1       23.386 -20.275   6.034  0.00  0.00    +0.029 C 
BRANCH  14  15
ATOM     15  C   LIG    1       22.361 -20.099   4.899  0.00  0.00    +0.085 C 
BRANCH  15  17
ATOM     16  C   LIG    1       22.185 -17.718   4.669  0.00  0.00    +0.104 C 
ATOM     17  N   LIG    1       22.619 -18.953   3.999  0.00  0.00    -0.308 NA
ATOM     18  C   LIG    1       24.028 -18.818   3.620  0.00  0.00    +0.104 C 
ENDBRANCH  15  17
ENDBRANCH  14  15
ENDBRANCH   1  14
TORSDOF 5
ENDMDL
