MODEL 1
REMARK VINA RESULT:      -1.7      0.000      0.000
REMARK  Name = *****
REMARK                            x       y       z     vdW  Elec       q    Type
REMARK                         _______ _______ _______ _____ _____    ______ ____
ROOT
ATOM      1  N   LIG    1       25.706 -17.822   3.556  0.00  0.00    -0.299 N 
ATOM      2  C   LIG    1       26.800 -18.242   4.349  0.00  0.00    +0.037 A 
ATOM      3  C   LIG    1       27.940 -17.423   4.565  0.00  0.00    -0.026 A 
ATOM      4  C   LIG    1       29.053 -17.956   5.256  0.00  0.00    +0.005 A 
ATOM      5  C   LIG    1       29.051 -19.245   5.773  0.00  0.00    +0.000 A 
ATOM      6  C   LIG    1       27.894 -20.011   5.670  0.00  0.00    +0.002 A 
ATOM      7  C   LIG    1       28.065 -15.969   4.154  0.00  0.00    +0.041 C 
ATOM      8  C   LIG    1       27.139 -15.414   3.075  0.00  0.00    +0.041 C 
ATOM      9  C   LIG    1       25.702 -15.388   3.519  0.00  0.00    -0.026 A 
ATOM     10  C   LIG    1       25.018 -14.172   3.669  0.00  0.00    +0.005 A 
ATOM     11  C   LIG    1       23.702 -14.147   4.128  0.00  0.00    +0.000 A 
ATOM     12  C   LIG    1       23.062 -15.339   4.456  0.00  0.00    +0.002 A 
ATOM     13  C   LIG    1       23.728 -16.552   4.283  0.00  0.00    +0.024 A 
ATOM     14  C   LIG    1       26.791 -19.502   4.983  0.00  0.00    +0.024 A 
ATOM     15  C   LIG    1       25.039 -16.599   3.784  0.00  0.00    +0.037 A 
ENDROOT
BRANCH   1  16
ATOM     16  C   LIG    1       24.926 -18.862   2.822  0.00  0.00    +0.115 C 
BRANCH  16  18
ATOM     17  C   LIG    1       24.225 -21.286   2.942  0.00  0.00    +0.010 C 
ATOM     18  C   LIG    1       24.331 -19.976   3.739  0.00  0.00    +0.018 C 
BRANCH  18  19
ATOM     19  C   LIG    1       22.943 -19.582   4.308  0.00  0.00    +0.088 C 
BRANCH  19  20
ATOM     20  N   LIG    1       22.489 -20.316   5.517  0.00  0.00    -0.308 NA
ATOM     21  C   LIG    1       23.650 -20.603   6.370  0.00  0.00    +0.104 C 
ATOM     22  C   LIG    1       21.815 -21.571   5.175  0.00  0.00    +0.104 C 
ENDBRANCH  19  20
ENDBRANCH  18  19
ENDBRANCH  16  18
ENDBRANCH   1  16
TORSDOF 4
ENDMDL
MODEL 2
REMARK VINA RESULT:      -0.5      1.493      4.053
REMARK  Name = *****
REMARK                            x       y       z     vdW  Elec       q    Type
REMARK                         _______ _______ _______ _____ _____    ______ ____
ROOT
ATOM      1  N   LIG    1       25.887 -16.758   3.725  0.00  0.00    -0.299 N 
ATOM      2  C   LIG    1       24.905 -17.764   3.569  0.00  0.00    +0.037 A 
ATOM      3  C   LIG    1       23.586 -17.622   4.074  0.00  0.00    -0.026 A 
ATOM      4  C   LIG    1       22.695 -18.718   4.001  0.00  0.00    +0.005 A 
ATOM      5  C   LIG    1       23.055 -19.921   3.406  0.00  0.00    +0.000 A 
ATOM      6  C   LIG    1       24.305 -20.027   2.804  0.00  0.00    +0.002 A 
ATOM      7  C   LIG    1       23.004 -16.350   4.661  0.00  0.00    +0.041 C 
ATOM      8  C   LIG    1       23.946 -15.259   5.162  0.00  0.00    +0.041 C 
ATOM      9  C   LIG    1       24.738 -14.635   4.046  0.00  0.00    -0.026 A 
ATOM     10  C   LIG    1       24.567 -13.284   3.711  0.00  0.00    +0.005 A 
ATOM     11  C   LIG    1       25.266 -12.721   2.644  0.00  0.00    +0.000 A 
ATOM     12  C   LIG    1       26.131 -13.510   1.892  0.00  0.00    +0.002 A 
ATOM     13  C   LIG    1       26.325 -14.847   2.237  0.00  0.00    +0.024 A 
ATOM     14  C   LIG    1       25.197 -18.957   2.875  0.00  0.00    +0.024 A 
ATOM     15  C   LIG    1       25.662 -15.420   3.333  0.00  0.00    +0.037 A 
ENDROOT
BRANCH   1  16
ATOM     16  C   LIG    1       27.317 -17.176   3.818  0.00  0.00    +0.115 C 
BRANCH  16  18
ATOM     17  C   LIG    1       29.170 -17.945   5.354  0.00  0.00    +0.010 C 
ATOM     18  C   LIG    1       27.655 -18.005   5.097  0.00  0.00    +0.018 C 
BRANCH  18  19
ATOM     19  C   LIG    1       27.191 -19.479   4.974  0.00  0.00    +0.088 C 
BRANCH  19  20
ATOM     20  N   LIG    1       26.754 -20.144   6.229  0.00  0.00    -0.308 NA
ATOM     21  C   LIG    1       27.868 -20.939   6.765  0.00  0.00    +0.104 C 
ATOM     22  C   LIG    1       25.596 -21.015   6.014  0.00  0.00    +0.104 C 
ENDBRANCH  19  20
ENDBRANCH  18  19
ENDBRANCH  16  18
ENDBRANCH   1  16
TORSDOF 4
ENDMDL
MODEL 3
REMARK VINA RESULT:      -0.4      1.195      2.127
REMARK  Name = *****
REMARK                            x       y       z     vdW  Elec       q    Type
REMARK                         _______ _______ _______ _____ _____    ______ ____
ROOT
ATOM      1  N   LIG    1       26.305 -18.698   3.875  0.00  0.00    -0.299 N 
ATOM      2  C   LIG    1       26.688 -19.490   4.983  0.00  0.00    +0.037 A 
ATOM      3  C   LIG    1       27.932 -19.319   5.645  0.00  0.00    -0.026 A 
ATOM      4  C   LIG    1       28.307 -20.231   6.659  0.00  0.00    +0.005 A 
ATOM      5  C   LIG    1       27.475 -21.268   7.062  0.00  0.00    +0.000 A 
ATOM      6  C   LIG    1       26.206 -21.370   6.501  0.00  0.00    +0.002 A 
ATOM      7  C   LIG    1       28.908 -18.186   5.396  0.00  0.00    +0.041 C 
ATOM      8  C   LIG    1       28.824 -17.400   4.090  0.00  0.00    +0.041 C 
ATOM      9  C   LIG    1       27.549 -16.608   3.986  0.00  0.00    -0.026 A 
ATOM     10  C   LIG    1       27.574 -15.206   3.951  0.00  0.00    +0.005 A 
ATOM     11  C   LIG    1       26.389 -14.474   3.903  0.00  0.00    +0.000 A 
ATOM     12  C   LIG    1       25.166 -15.139   3.906  0.00  0.00    +0.002 A 
ATOM     13  C   LIG    1       25.136 -16.533   3.913  0.00  0.00    +0.024 A 
ATOM     14  C   LIG    1       25.825 -20.483   5.494  0.00  0.00    +0.024 A 
ATOM     15  C   LIG    1       26.320 -17.287   3.919  0.00  0.00    +0.037 A 
ENDROOT
BRANCH   1  16
ATOM     16  C   LIG    1       25.410 -19.307   2.847  0.00  0.00    +0.115 C 
BRANCH  16  18
ATOM     17  C   LIG    1       24.000 -21.403   2.806  0.00  0.00    +0.010 C 
ATOM     18  C   LIG    1       24.148 -20.010   3.439  0.00  0.00    +0.018 C 
BRANCH  18  19
ATOM     19  C   LIG    1       22.858 -19.179   3.212  0.00  0.00    +0.088 C 
BRANCH  19  20
ATOM     20  N   LIG    1       21.995 -18.957   4.400  0.00  0.00    -0.308 NA
ATOM     21  C   LIG    1       22.016 -17.530   4.750  0.00  0.00    +0.104 C 
ATOM     22  C   LIG    1       22.434 -19.746   5.553  0.00  0.00    +0.104 C 
ENDBRANCH  19  20
ENDBRANCH  18  19
ENDBRANCH  16  18
ENDBRANCH   1  16
TORSDOF 4
ENDMDL
MODEL 4
REMARK VINA RESULT:      -0.3      2.443      6.013
REMARK  Name = *****
REMARK                            x       y       z     vdW  Elec       q    Type
REMARK                         _______ _______ _______ _____ _____    ______ ____
ROOT
ATOM      1  N   LIG    1       25.642 -15.691   3.767  0.00  0.00    -0.299 N 
ATOM      2  C   LIG    1       24.868 -16.872   3.680  0.00  0.00    +0.037 A 
ATOM      3  C   LIG    1       23.560 -16.966   4.224  0.00  0.00    -0.026 A 
ATOM      4  C   LIG    1       22.897 -18.214   4.219  0.00  0.00    +0.005 A 
ATOM      5  C   LIG    1       23.467 -19.350   3.656  0.00  0.00    +0.000 A 
ATOM      6  C   LIG    1       24.698 -19.239   3.016  0.00  0.00    +0.002 A 
ATOM      7  C   LIG    1       22.760 -15.806   4.784  0.00  0.00    +0.041 C 
ATOM      8  C   LIG    1       23.486 -14.535   5.214  0.00  0.00    +0.041 C 
ATOM      9  C   LIG    1       24.113 -13.817   4.050  0.00  0.00    -0.026 A 
ATOM     10  C   LIG    1       23.675 -12.539   3.673  0.00  0.00    +0.005 A 
ATOM     11  C   LIG    1       24.224 -11.897   2.564  0.00  0.00    +0.000 A 
ATOM     12  C   LIG    1       25.206 -12.535   1.812  0.00  0.00    +0.002 A 
ATOM     13  C   LIG    1       25.663 -13.795   2.198  0.00  0.00    +0.024 A 
ATOM     14  C   LIG    1       25.368 -18.015   3.020  0.00  0.00    +0.024 A 
ATOM     15  C   LIG    1       25.151 -14.439   3.335  0.00  0.00    +0.037 A 
ENDROOT
BRANCH   1  16
ATOM     16  C   LIG    1       27.127 -15.822   3.827  0.00  0.00    +0.115 C 
BRANCH  16  18
ATOM     17  C   LIG    1       26.769 -14.017   5.559  0.00  0.00    +0.010 C 
ATOM     18  C   LIG    1       27.827 -14.738   4.707  0.00  0.00    +0.018 C 
BRANCH  18  19
ATOM     19  C   LIG    1       28.614 -13.713   3.851  0.00  0.00    +0.088 C 
BRANCH  19  20
ATOM     20  N   LIG    1       28.381 -12.278   4.153  0.00  0.00    -0.308 NA
ATOM     21  C   LIG    1       28.721 -11.475   2.970  0.00  0.00    +0.104 C 
ATOM     22  C   LIG    1       29.177 -11.821   5.295  0.00  0.00    +0.104 C 
ENDBRANCH  19  20
ENDBRANCH  18  19
ENDBRANCH  16  18
ENDBRANCH   1  16
TORSDOF 4
ENDMDL
MODEL 5
REMARK VINA RESULT:      -0.3      1.533      5.188
REMARK  Name = *****
REMARK                            x       y       z     vdW  Elec       q    Type
REMARK                         _______ _______ _______ _____ _____    ______ ____
ROOT
ATOM      1  N   LIG    1       25.837 -19.027   4.393  0.00  0.00    -0.299 N 
ATOM      2  C   LIG    1       26.992 -19.447   5.094  0.00  0.00    +0.037 A 
ATOM      3  C   LIG    1       26.923 -20.090   6.357  0.00  0.00    -0.026 A 
ATOM      4  C   LIG    1       28.118 -20.362   7.062  0.00  0.00    +0.005 A 
ATOM      5  C   LIG    1       29.369 -20.059   6.535  0.00  0.00    +0.000 A 
ATOM      6  C   LIG    1       29.449 -19.538   5.248  0.00  0.00    +0.002 A 
ATOM      7  C   LIG    1       25.651 -20.574   7.025  0.00  0.00    +0.041 C 
ATOM      8  C   LIG    1       24.308 -19.996   6.586  0.00  0.00    +0.041 C 
ATOM      9  C   LIG    1       23.963 -20.374   5.171  0.00  0.00    -0.026 A 
ATOM     10  C   LIG    1       22.851 -21.183   4.894  0.00  0.00    +0.005 A 
ATOM     11  C   LIG    1       22.562 -21.572   3.587  0.00  0.00    +0.000 A 
ATOM     12  C   LIG    1       23.392 -21.167   2.546  0.00  0.00    +0.002 A 
ATOM     13  C   LIG    1       24.483 -20.340   2.813  0.00  0.00    +0.024 A 
ATOM     14  C   LIG    1       28.278 -19.257   4.544  0.00  0.00    +0.024 A 
ATOM     15  C   LIG    1       24.766 -19.905   4.116  0.00  0.00    +0.037 A 
ENDROOT
BRANCH   1  16
ATOM     16  C   LIG    1       25.944 -17.832   3.506  0.00  0.00    +0.115 C 
BRANCH  16  18
ATOM     17  C   LIG    1       23.743 -16.689   3.986  0.00  0.00    +0.010 C 
ATOM     18  C   LIG    1       25.270 -16.547   4.084  0.00  0.00    +0.018 C 
BRANCH  18  19
ATOM     19  C   LIG    1       25.737 -15.264   3.349  0.00  0.00    +0.088 C 
BRANCH  19  20
ATOM     20  N   LIG    1       25.268 -13.971   3.909  0.00  0.00    -0.308 NA
ATOM     21  C   LIG    1       24.884 -13.080   2.806  0.00  0.00    +0.104 C 
ATOM     22  C   LIG    1       26.297 -13.320   4.724  0.00  0.00    +0.104 C 
ENDBRANCH  19  20
ENDBRANCH  18  19
ENDBRANCH  16  18
ENDBRANCH   1  16
TORSDOF 4
ENDMDL
MODEL 6
REMARK VINA RESULT:       0.1      1.710      6.275
REMARK  Name = *****
REMARK                            x       y       z     vdW  Elec       q    Type
REMARK                         _______ _______ _______ _____ _____    ______ ____
ROOT
ATOM      1  N   LIG    1       25.815 -17.462   3.575  0.00  0.00    -0.299 N 
ATOM      2  C   LIG    1       24.496 -17.191   4.010  0.00  0.00    +0.037 A 
ATOM      3  C   LIG    1       23.563 -18.223   4.295  0.00  0.00    -0.026 A 
ATOM      4  C   LIG    1       22.225 -17.882   4.596  0.00  0.00    +0.005 A 
ATOM      5  C   LIG    1       21.800 -16.560   4.669  0.00  0.00    +0.000 A 
ATOM      6  C   LIG    1       22.734 -15.542   4.509  0.00  0.00    +0.002 A 
ATOM      7  C   LIG    1       23.886 -19.703   4.356  0.00  0.00    +0.041 C 
ATOM      8  C   LIG    1       25.146 -20.223   3.669  0.00  0.00    +0.041 C 
ATOM      9  C   LIG    1       26.401 -19.705   4.318  0.00  0.00    -0.026 A 
ATOM     10  C   LIG    1       27.296 -20.579   4.953  0.00  0.00    +0.005 A 
ATOM     11  C   LIG    1       28.432 -20.091   5.596  0.00  0.00    +0.000 A 
ATOM     12  C   LIG    1       28.676 -18.721   5.623  0.00  0.00    +0.002 A 
ATOM     13  C   LIG    1       27.804 -17.850   4.970  0.00  0.00    +0.024 A 
ATOM     14  C   LIG    1       24.057 -15.864   4.202  0.00  0.00    +0.024 A 
ATOM     15  C   LIG    1       26.677 -18.327   4.283  0.00  0.00    +0.037 A 
ENDROOT
BRANCH   1  16
ATOM     16  C   LIG    1       26.480 -16.470   2.679  0.00  0.00    +0.115 C 
BRANCH  16  18
ATOM     17  C   LIG    1       26.317 -14.016   2.099  0.00  0.00    +0.010 C 
ATOM     18  C   LIG    1       26.510 -15.017   3.250  0.00  0.00    +0.018 C 
BRANCH  18  19
ATOM     19  C   LIG    1       27.830 -14.716   4.006  0.00  0.00    +0.088 C 
BRANCH  19  20
ATOM     20  N   LIG    1       27.779 -13.638   5.026  0.00  0.00    -0.308 NA
ATOM     21  C   LIG    1       26.376 -13.282   5.281  0.00  0.00    +0.104 C 
ATOM     22  C   LIG    1       28.512 -12.443   4.599  0.00  0.00    +0.104 C 
ENDBRANCH  19  20
ENDBRANCH  18  19
ENDBRANCH  16  18
ENDBRANCH   1  16
TORSDOF 4
ENDMDL
