REMARK WARNING: 32 MAX_TORS EXCEEDED!!!
REMARK  71 active torsions:
REMARK  status: ('A' for Active; 'I' for Inactive)
REMARK    1  A    between atoms: HNCA_1  and  N_2 
REMARK    2  A    between atoms: N_2  and  H_10 
REMARK    3  A    between atoms: N_2  and  CA_3 
REMARK    4  A    between atoms: CA_3  and  C_4 
REMARK    5  A    between atoms: CA_3  and  CB_6 
REMARK    6  A    between atoms: C_4  and  O_5 
REMARK    7  A    between atoms: C_4  and  N_11 
REMARK    8  A    between atoms: CG_7  and  CB_6 
REMARK    9  A    between atoms: N_11  and  H_16 
REMARK   10  A    between atoms: N_11  and  CA_12 
REMARK   11  A    between atoms: CA_12  and  C_13 
REMARK   12  A    between atoms: O_14  and  C_13 
REMARK   13  A    between atoms: C_13  and  N_17 
REMARK   14  A    between atoms: N_17  and  H_28 
REMARK   15  A    between atoms: N_17  and  CA_18 
REMARK   16  A    between atoms: CA_18  and  CB_21 
REMARK   17  A    between atoms: CA_18  and  C_19 
REMARK   18  A    between atoms: C_19  and  O_20 
REMARK   19  A    between atoms: C_19  and  N_29 
REMARK   20  A    between atoms: CG_22  and  CB_21 
REMARK   21  A    between atoms: N_29  and  H_36 
REMARK   22  A    between atoms: N_29  and  CA_30 
REMARK   23  A    between atoms: CA_30  and  CB_33 
REMARK   24  A    between atoms: CA_30  and  C_31 
REMARK   25  A    between atoms: C_31  and  O_32 
REMARK   26  A    between atoms: C_31  and  N_38 
REMARK   27  A    between atoms: OG1_34  and  CB_33 
REMARK   28  A    between atoms: OG1_34  and  HG1_37 
REMARK   29  A    between atoms: N_38  and  H_46 
REMARK   30  A    between atoms: N_38  and  CA_39 
REMARK   31  A    between atoms: CA_39  and  CB_42 
REMARK   32  A    between atoms: CA_39  and  C_40 
REMARK   33  A    between atoms: C_40  and  O_41 
REMARK   34  A    between atoms: C_40  and  N_47 
REMARK   35  A    between atoms: CG1_43  and  CB_42 
REMARK   36  A    between atoms: N_47  and  H_54 
REMARK   37  A    between atoms: N_47  and  CA_48 
REMARK   38  A    between atoms: CA_48  and  CB_51 
REMARK   39  A    between atoms: CA_48  and  C_49 
REMARK   40  A    between atoms: C_49  and  O_50 
REMARK   41  A    between atoms: C_49  and  N_56 
REMARK   42  A    between atoms: OG1_52  and  CB_51 
REMARK   43  A    between atoms: OG1_52  and  HG1_55 
REMARK   44  A    between atoms: N_56  and  H_64 
REMARK   45  A    between atoms: N_56  and  CA_57 
REMARK   46  A    between atoms: CA_57  and  CB_60 
REMARK   47  A    between atoms: CA_57  and  C_58 
REMARK   48  A    between atoms: C_58  and  O_59 
REMARK   49  A    between atoms: C_58  and  N_65 
REMARK   50  A    between atoms: CB_60  and  CG_61 
REMARK   51  A    between atoms: OD1_62  and  CG_61 
REMARK   52  A    between atoms: CG_61  and  OD2_63 
REMARK   53  A    between atoms: N_65  and  H_74 
REMARK   54  A    between atoms: N_65  and  CA_66 
REMARK   55  A    between atoms: CA_66  and  C_67 
REMARK   56  A    between atoms: CA_66  and  CB_69 
REMARK   57  A    between atoms: O_68  and  C_67 
REMARK   58  A    between atoms: C_67  and  N_77 
REMARK   59  A    between atoms: CG_70  and  CB_69 
REMARK   60  A    between atoms: CG_70  and  CD_71 
REMARK   61  A    between atoms: OE1_72  and  CD_71 
REMARK   62  A    between atoms: CD_71  and  NE2_73 
REMARK   63  A    between atoms: NE2_73  and  HE21_75 
REMARK   64  A    between atoms: NE2_73  and  HE22_76 
REMARK   65  A    between atoms: N_77  and  H_84 
REMARK   66  A    between atoms: N_77  and  CA_78 
REMARK   67  A    between atoms: CA_78  and  CB_81 
REMARK   68  A    between atoms: CA_78  and  C_79 
REMARK   69  A    between atoms: C_79  and  O_80 
REMARK   70  A    between atoms: C_79  and  OXT_85 
REMARK   71  A    between atoms: OXT_85  and  HOCA_86 
ROOT
ATOM      1 AHNC LEU d   1      -0.908   1.982  -0.117  0.00  0.00     0.061 HD
ATOM      2  H   LEU d   1      -0.288   1.982  -0.117  0.00  0.00     0.013 HD
ENDROOT
BRANCH   1   3
ATOM      3  N   LEU d   1       0.000   1.576   0.000  0.00  0.00    -0.429 N 
ATOM      4  H   LEU d   1       1.020   1.576   0.000  0.00  0.00     0.073 HD
ATOM      5  H   LEU d   1      -0.340   0.830  -0.607  0.00  0.00     0.073 HD
ATOM      6  H   LEU d   1      -0.340   2.475  -0.342  0.00  0.00     0.073 HD
BRANCH   3   7
ATOM      7  H   LEU d   1      -0.954   1.417   0.259  0.00  0.00     0.061 HD
ATOM      8  H   LEU d   1      -0.334   1.417   0.259  0.00  0.00     0.013 HD
ENDBRANCH   3   7
BRANCH   3   9
ATOM      9  CA  LEU d   1       0.930   2.115   0.990  0.00  0.00     0.069 C 
BRANCH   9  10
ATOM     10  C   LEU d   1       1.911   1.024   1.359  0.00  0.00     0.168 C 
BRANCH  10  11
ATOM     11  O   LEU d   1       3.096   1.300   1.442  0.00  0.00    -0.496 OA
ATOM     12  H   LEU d   1       4.066   1.300   1.442  0.00  0.00     0.172 HD
ATOM     13  H   LEU d   1       2.773   0.591   0.865  0.00  0.00     0.172 HD
ENDBRANCH  10  11
BRANCH  10  14
ATOM     14  N   ALA d   2       1.478  -0.273   1.552  0.00  0.00    -0.414 N 
ATOM     15  H   ALA d   2       2.498  -0.273   1.552  0.00  0.00     0.077 HD
ATOM     16  H   ALA d   2       1.138  -1.018   0.945  0.00  0.00     0.077 HD
ATOM     17  H   ALA d   2       1.138   0.626   1.210  0.00  0.00     0.077 HD
BRANCH  14  18
ATOM     18  H   ALA d   2       0.509  -0.511   1.477  0.00  0.00     0.065 HD
ATOM     19  H   ALA d   2       1.129  -0.511   1.477  0.00  0.00     0.013 HD
ENDBRANCH  14  18
BRANCH  14  20
ATOM     20  CA  ALA d   2       2.441  -1.320   1.873  0.00  0.00     0.071 C 
ATOM     21  CB  ALA d   2       1.763  -2.702   2.079  0.00  0.00     0.010 C 
BRANCH  20  22
ATOM     22  C   ALA d   2       3.441  -1.423   0.748  0.00  0.00     0.169 C 
BRANCH  22  23
ATOM     23  O   ALA d   2       4.631  -1.415   1.016  0.00  0.00    -0.496 OA
ATOM     24  H   ALA d   2       5.601  -1.415   1.016  0.00  0.00     0.172 HD
ATOM     25  H   ALA d   2       4.308  -2.124   0.439  0.00  0.00     0.172 HD
ENDBRANCH  22  23
BRANCH  22  26
ATOM     26  N   PHE d   3       2.956  -1.482  -0.537  0.00  0.00    -0.414 N 
ATOM     27  H   PHE d   3       3.976  -1.482  -0.537  0.00  0.00     0.077 HD
ATOM     28  H   PHE d   3       2.616  -2.227  -1.145  0.00  0.00     0.077 HD
ATOM     29  H   PHE d   3       2.616  -0.583  -0.879  0.00  0.00     0.077 HD
BRANCH  26  30
ATOM     30  H   PHE d   3       2.379  -0.570  -0.473  0.00  0.00     0.065 HD
ATOM     31  H   PHE d   3       2.999  -0.570  -0.473  0.00  0.00     0.013 HD
ENDBRANCH  26  30
BRANCH  26  32
ATOM     32  CA  PHE d   3       4.203  -1.558  -1.294  0.00  0.00     0.072 C 
BRANCH  32  33
ATOM     33  CB  PHE d   3       4.085  -2.640  -2.410  0.00  0.00     0.013 C 
BRANCH  33  34
ATOM     34  CG  PHE d   3       3.751  -4.066  -1.949  0.00  0.00    -0.007 A 
ATOM     35  CD2 PHE d   3       4.765  -4.961  -1.599  0.00  0.00    -0.001 A 
ATOM     36  CE2 PHE d   3       4.445  -6.226  -1.119  0.00  0.00    -0.002 A 
ATOM     37  CZ  PHE d   3       3.109  -6.603  -0.977  0.00  0.00    -0.003 A 
ATOM     38  CE1 PHE d   3       2.093  -5.715  -1.325  0.00  0.00    -0.002 A 
ATOM     39  CD1 PHE d   3       2.413  -4.455  -1.820  0.00  0.00    -0.001 A 
ENDBRANCH  33  34
ENDBRANCH  32  33
BRANCH  32  40
ATOM     40  C   PHE d   3       4.531  -0.229  -1.931  0.00  0.00     0.169 C 
BRANCH  40  41
ATOM     41  O   PHE d   3       3.786   0.780  -1.795  0.00  0.00    -0.496 OA
ATOM     42  H   PHE d   3       4.756   0.780  -1.795  0.00  0.00     0.172 HD
ATOM     43  H   PHE d   3       3.463   0.071  -2.372  0.00  0.00     0.172 HD
ENDBRANCH  40  41
BRANCH  40  44
ATOM     44  N   THR d   4       4.434   0.786  -1.366  0.00  0.00    -0.413 N 
ATOM     45  H   THR d   4       5.454   0.786  -1.366  0.00  0.00     0.077 HD
ATOM     46  H   THR d   4       4.094   0.040  -1.974  0.00  0.00     0.077 HD
ATOM     47  H   THR d   4       4.094   1.684  -1.708  0.00  0.00     0.077 HD
BRANCH  44  48
ATOM     48  H   THR d   4       3.927   0.488  -0.460  0.00  0.00     0.065 HD
ATOM     49  H   THR d   4       4.547   0.488  -0.460  0.00  0.00     0.013 HD
ENDBRANCH  44  48
BRANCH  44  50
ATOM     50  CA  THR d   4       5.662   1.575  -1.342  0.00  0.00     0.090 C 
BRANCH  50  51
ATOM     51  CB  THR d   4       5.485   2.893  -2.167  0.00  0.00     0.104 C 
ATOM     52  CG2 THR d   4       6.707   3.836  -2.222  0.00  0.00     0.017 C 
BRANCH  51  53
ATOM     53  OG1 THR d   4       5.206   2.595  -3.530  0.00  0.00    -0.575 OA
ATOM     54  H   THR d   4       6.176   2.595  -3.530  0.00  0.00     0.146 HD
ATOM     55  H   THR d   4       4.883   1.885  -4.108  0.00  0.00     0.146 HD
BRANCH  53  56
ATOM     56  HG1 THR d   4       5.040   3.438  -3.961  0.00  0.00     0.124 HD
ATOM     57  H   THR d   4       5.660   3.438  -3.961  0.00  0.00     0.022 HD
ENDBRANCH  53  56
ENDBRANCH  51  53
ENDBRANCH  50  51
BRANCH  50  58
ATOM     58  C   THR d   4       6.077   1.887   0.076  0.00  0.00     0.170 C 
BRANCH  58  59
ATOM     59  O   THR d   4       5.434   1.504   1.034  0.00  0.00    -0.496 OA
ATOM     60  H   THR d   4       6.404   1.504   1.034  0.00  0.00     0.172 HD
ATOM     61  H   THR d   4       5.111   0.795   0.456  0.00  0.00     0.172 HD
ENDBRANCH  58  59
BRANCH  58  62
ATOM     62  N   ILE d   5       5.912   1.210   1.010  0.00  0.00    -0.414 N 
ATOM     63  H   ILE d   5       6.932   1.210   1.010  0.00  0.00     0.077 HD
ATOM     64  H   ILE d   5       5.572   0.464   0.403  0.00  0.00     0.077 HD
ATOM     65  H   ILE d   5       5.572   2.108   0.668  0.00  0.00     0.077 HD
BRANCH  62  66
ATOM     66  H   ILE d   5       5.325   0.377   0.653  0.00  0.00     0.065 HD
ATOM     67  H   ILE d   5       5.945   0.377   0.653  0.00  0.00     0.013 HD
ENDBRANCH  62  66
BRANCH  62  68
ATOM     68  CA  ILE d   5       7.161   1.018   1.741  0.00  0.00     0.073 C 
BRANCH  68  69
ATOM     69  CB  ILE d   5       7.136   1.773   3.132  0.00  0.00     0.003 C 
ATOM     70  CG2 ILE d   5       8.488   1.665   3.905  0.00  0.00    -0.002 C 
BRANCH  69  71
ATOM     71  CG1 ILE d   5       6.744   3.282   3.050  0.00  0.00    -0.004 C 
ATOM     72  CD1 ILE d   5       6.395   3.962   4.391  0.00  0.00    -0.004 C 
ENDBRANCH  69  71
ENDBRANCH  68  69
BRANCH  68  73
ATOM     73  C   ILE d   5       7.474  -0.450   1.904  0.00  0.00     0.169 C 
BRANCH  73  74
ATOM     74  O   ILE d   5       8.680  -0.761   2.606  0.00  0.00    -0.496 OA
ATOM     75  H   ILE d   5       9.650  -0.761   2.606  0.00  0.00     0.172 HD
ATOM     76  H   ILE d   5       8.357  -1.470   2.029  0.00  0.00     0.172 HD
ENDBRANCH  73  74
BRANCH  73  77
ATOM     77  N   THR d   6       7.391  -1.204   1.017  0.00  0.00    -0.413 N 
ATOM     78  H   THR d   6       8.411  -1.204   1.017  0.00  0.00     0.077 HD
ATOM     79  H   THR d   6       7.051  -1.950   0.409  0.00  0.00     0.077 HD
ATOM     80  H   THR d   6       7.051  -0.305   0.674  0.00  0.00     0.077 HD
BRANCH  77  81
ATOM     81  H   THR d   6       6.883  -0.616   0.266  0.00  0.00     0.065 HD
ATOM     82  H   THR d   6       7.503  -0.616   0.266  0.00  0.00     0.013 HD
ENDBRANCH  77  81
BRANCH  77  83
ATOM     83  CA  THR d   6       8.618  -1.938   0.725  0.00  0.00     0.090 C 
BRANCH  83  84
ATOM     84  CB  THR d   6       8.441  -3.459   1.051  0.00  0.00     0.104 C 
ATOM     85  CG2 THR d   6       9.664  -4.364   0.781  0.00  0.00     0.017 C 
BRANCH  84  86
ATOM     86  OG1 THR d   6       8.162  -3.643   2.434  0.00  0.00    -0.575 OA
ATOM     87  H   THR d   6       9.133  -3.643   2.434  0.00  0.00     0.146 HD
ATOM     88  H   THR d   6       7.839  -4.352   1.857  0.00  0.00     0.146 HD
BRANCH  86  89
ATOM     89  HG1 THR d   6       7.997  -4.582   2.552  0.00  0.00     0.124 HD
ATOM     90  H   THR d   6       8.617  -4.582   2.552  0.00  0.00     0.022 HD
ENDBRANCH  86  89
ENDBRANCH  84  86
ENDBRANCH  83  84
BRANCH  83  91
ATOM     91  C   THR d   6       9.034  -1.748  -0.714  0.00  0.00     0.170 C 
BRANCH  91  92
ATOM     92  O   THR d   6       8.390  -1.062  -1.484  0.00  0.00    -0.496 OA
ATOM     93  H   THR d   6       9.361  -1.062  -1.484  0.00  0.00     0.172 HD
ATOM     94  H   THR d   6       8.067  -1.771  -2.062  0.00  0.00     0.172 HD
ENDBRANCH  91  92
BRANCH  91  95
ATOM     95  N   ASP d   7       8.869  -0.793  -1.362  0.00  0.00    -0.414 N 
ATOM     96  H   ASP d   7       9.889  -0.793  -1.362  0.00  0.00     0.077 HD
ATOM     97  H   ASP d   7       8.529  -1.538  -1.969  0.00  0.00     0.077 HD
ATOM     98  H   ASP d   7       8.529   0.106  -1.704  0.00  0.00     0.077 HD
BRANCH  95  99
ATOM     99  H   ASP d   7       8.409  -0.073  -0.824  0.00  0.00     0.065 HD
ATOM    100  H   ASP d   7       9.029  -0.073  -0.824  0.00  0.00     0.013 HD
ENDBRANCH  95  99
BRANCH  95 101
ATOM    101  CA  ASP d   7      10.146  -0.291  -1.934  0.00  0.00     0.076 C 
BRANCH 101 102
ATOM    102  CB  ASP d   7      10.084  -0.687  -3.422  0.00  0.00     0.055 C 
BRANCH 102 103
ATOM    103  CG  ASP d   7      11.432  -0.669  -4.193  0.00  0.00     0.240 C 
BRANCH 103 104
ATOM    104  OD1 ASP d   7      12.456  -0.628  -3.506  0.00  0.00    -0.489 OA
ATOM    105  H   ASP d   7      13.426  -0.628  -3.506  0.00  0.00     0.172 HD
ATOM    106  H   ASP d   7      12.132  -1.337  -4.084  0.00  0.00     0.172 HD
ENDBRANCH 103 104
BRANCH 103 107
ATOM    107  OD2 ASP d   7      11.315  -0.715  -5.418  0.00  0.00    -0.489 OA
ATOM    108  H   ASP d   7      12.285  -0.715  -5.418  0.00  0.00     0.172 HD
ATOM    109  H   ASP d   7      10.991  -1.424  -5.996  0.00  0.00     0.172 HD
ENDBRANCH 103 107
ENDBRANCH 102 103
ENDBRANCH 101 102
BRANCH 101 110
ATOM    110  C   ASP d   7      10.526   1.218  -1.724  0.00  0.00     0.169 C 
BRANCH 110 111
ATOM    111  O   ASP d   7       9.874   2.011  -1.085  0.00  0.00    -0.496 OA
ATOM    112  H   ASP d   7      10.844   2.011  -1.085  0.00  0.00     0.172 HD
ATOM    113  H   ASP d   7       9.550   1.302  -1.663  0.00  0.00     0.172 HD
ENDBRANCH 110 111
BRANCH 110 114
ATOM    114  N   GLN d   8      10.347   1.479  -0.545  0.00  0.00    -0.414 N 
ATOM    115  H   GLN d   8      11.367   1.479  -0.545  0.00  0.00     0.077 HD
ATOM    116  H   GLN d   8      10.007   0.733  -1.152  0.00  0.00     0.077 HD
ATOM    117  H   GLN d   8      10.007   2.377  -0.887  0.00  0.00     0.077 HD
BRANCH 114 118
ATOM    118  H   GLN d   8       9.367   1.574  -0.380  0.00  0.00     0.065 HD
ATOM    119  H   GLN d   8       9.987   1.574  -0.380  0.00  0.00     0.013 HD
ENDBRANCH 114 118
BRANCH 114 120
ATOM    120  CA  GLN d   8      11.279   2.279   0.247  0.00  0.00     0.072 C 
BRANCH 120 121
ATOM    121  C   GLN d   8      12.292   1.363   0.891  0.00  0.00     0.169 C 
BRANCH 121 122
ATOM    122  O   GLN d   8      13.481   1.612   0.766  0.00  0.00    -0.496 OA
ATOM    123  H   GLN d   8      14.451   1.612   0.766  0.00  0.00     0.172 HD
ATOM    124  H   GLN d   8      13.157   0.903   0.189  0.00  0.00     0.172 HD
ENDBRANCH 121 122
BRANCH 121 125
ATOM    125  N   VAL d   9      11.825   0.281   1.551  0.00  0.00    -0.413 N 
ATOM    126  H   VAL d   9      12.845   0.281   1.551  0.00  0.00     0.077 HD
ATOM    127  H   VAL d   9      11.485  -0.465   0.944  0.00  0.00     0.077 HD
ATOM    128  H   VAL d   9      11.485   1.180   1.209  0.00  0.00     0.077 HD
BRANCH 125 129
ATOM    129  H   VAL d   9      11.253  -0.120   0.727  0.00  0.00     0.065 HD
ATOM    130  H   VAL d   9      11.873  -0.120   0.727  0.00  0.00     0.013 HD
ENDBRANCH 125 129
BRANCH 125 131
ATOM    131  CA  VAL d   9      13.071  -0.335   2.000  0.00  0.00     0.083 C 
BRANCH 131 132
ATOM    132  CB  VAL d   9      12.962  -0.711   3.530  0.00  0.00     0.002 C 
ATOM    133  CG1 VAL d   9      12.815   0.513   4.469  0.00  0.00    -0.002 C 
ATOM    134  CG2 VAL d   9      14.134  -1.545   4.121  0.00  0.00    -0.002 C 
ENDBRANCH 131 132
BRANCH 131 135
ATOM    135  C   VAL d   9      13.404  -1.551   1.169  0.00  0.00     0.226 C 
BRANCH 135 136
ATOM    136  O   VAL d   9      12.679  -1.930   0.241  0.00  0.00    -0.490 OA
ATOM    137  H   VAL d   9      13.649  -1.930   0.241  0.00  0.00     0.172 HD
ATOM    138  H   VAL d   9      12.355  -2.639  -0.337  0.00  0.00     0.172 HD
ENDBRANCH 135 136
BRANCH 135 139
ATOM    139  OXT VAL d   9      13.342  -1.608   0.147  0.00  0.00    -0.560 OA
ATOM    140  H   VAL d   9      14.312  -1.608   0.147  0.00  0.00     0.147 HD
ATOM    141  H   VAL d   9      13.018  -2.317  -0.431  0.00  0.00     0.147 HD
BRANCH 139 142
ATOM    142 AHOC VAL d   9      14.033  -1.885  -0.447  0.00  0.00     0.126 HD
ATOM    143  H   VAL d   9      14.653  -1.885  -0.447  0.00  0.00     0.022 HD
ENDBRANCH 139 142
ENDBRANCH 135 139
ENDBRANCH 131 135
ENDBRANCH 125 131
ENDBRANCH 121 125
ENDBRANCH 120 121
BRANCH 120 144
ATOM    144  CB  GLN d   8      10.581   3.102   1.366  0.00  0.00     0.012 C 
BRANCH 144 145
ATOM    145  CG  GLN d   8       9.754   4.296   0.821  0.00  0.00     0.031 C 
BRANCH 145 146
ATOM    146  CD  GLN d   8       8.813   4.936   1.823  0.00  0.00     0.158 C 
BRANCH 146 147
ATOM    147  OE1 GLN d   8       7.839   5.524   1.374  0.00  0.00    -0.497 OA
ATOM    148  H   GLN d   8       8.809   5.524   1.374  0.00  0.00     0.172 HD
ATOM    149  H   GLN d   8       7.515   4.815   0.796  0.00  0.00     0.172 HD
ENDBRANCH 146 147
BRANCH 146 150
ATOM    150  NE2 GLN d   8       9.041   4.872   3.156  0.00  0.00    -0.417 N 
ATOM    151  H   GLN d   8      10.061   4.872   3.156  0.00  0.00     0.075 HD
ATOM    152  H   GLN d   8       8.701   4.126   2.549  0.00  0.00     0.075 HD
ATOM    153  H   GLN d   8       8.701   5.771   2.814  0.00  0.00     0.075 HD
BRANCH 150 154
ATOM    154 1HE2 GLN d   8       9.835   4.407   3.547  0.00  0.00     0.063 HD
ATOM    155  H   GLN d   8      10.455   4.407   3.547  0.00  0.00     0.013 HD
ENDBRANCH 150 154
BRANCH 150 156
ATOM    156 2HE2 GLN d   8       8.392   5.309   3.781  0.00  0.00     0.063 HD
ATOM    157  H   GLN d   8       9.012   5.309   3.781  0.00  0.00     0.013 HD
ENDBRANCH 150 156
ENDBRANCH 146 150
ENDBRANCH 145 146
ENDBRANCH 144 145
ENDBRANCH 120 144
ENDBRANCH 114 120
ENDBRANCH 110 114
ENDBRANCH 101 110
ENDBRANCH  95 101
ENDBRANCH  91  95
ENDBRANCH  83  91
ENDBRANCH  77  83
ENDBRANCH  73  77
ENDBRANCH  68  73
ENDBRANCH  62  68
ENDBRANCH  58  62
ENDBRANCH  50  58
ENDBRANCH  44  50
ENDBRANCH  40  44
ENDBRANCH  32  40
ENDBRANCH  26  32
ENDBRANCH  22  26
ENDBRANCH  20  22
ENDBRANCH  14  20
ENDBRANCH  10  14
ENDBRANCH   9  10
BRANCH   9 158
ATOM    158  CB  LEU d   1       0.226   2.618   2.282  0.00  0.00     0.010 C 
BRANCH 158 159
ATOM    159  CG  LEU d   1      -0.820   3.754   2.056  0.00  0.00    -0.010 C 
ATOM    160  CD2 LEU d   1      -0.194   5.027   1.418  0.00  0.00    -0.003 C 
ATOM    161  CD1 LEU d   1      -1.494   4.120   3.408  0.00  0.00    -0.003 C 
ENDBRANCH 158 159
ENDBRANCH   9 158
ENDBRANCH   3   9
ENDBRANCH   1   3
TORSDOF 71
