
 OpenBabel05222209453D

461461  0  0  0  0  0  0  0  0999 V2000
   -7.7562    1.7359   -0.7963 H   0  0  0  0  0  0  0  0  0  0  0  0
   -6.8482    1.3293   -0.6792 N   0  0  0  0  0  0  0  0  0  0  0  0
   -5.9182    1.8679    0.3112 C   0  0  0  0  0  0  0  0  0  0  0  0
   -4.9372    0.7771    0.6793 C   0  0  0  0  0  0  0  0  0  0  0  0
   -3.7522    1.0539    0.7630 O   0  0  0  0  0  0  0  0  0  0  0  0
   -6.6222    2.3712    1.6030 C   0  0  0  0  0  0  0  0  0  0  0  0
   -7.6682    3.5073    1.3765 C   0  0  0  0  0  0  0  0  0  0  0  0
   -8.3422    3.8738    2.7285 C   0  0  0  0  0  0  0  0  0  0  0  0
   -7.0422    4.7801    0.7391 C   0  0  0  0  0  0  0  0  0  0  0  0
   -5.3482    2.6979   -0.1373 H   0  0  0  0  0  0  0  0  0  0  0  0
   -7.8022    1.1698   -0.4199 H   0  0  0  0  0  0  0  0  0  0  0  0
   -5.8492    2.7343    2.2994 H   0  0  0  0  0  0  0  0  0  0  0  0
   -7.1252    1.5125    2.0726 H   0  0  0  0  0  0  0  0  0  0  0  0
   -8.4662    3.1482    0.7044 H   0  0  0  0  0  0  0  0  0  0  0  0
   -8.8182    2.9853    3.1751 H   0  0  0  0  0  0  0  0  0  0  0  0
   -9.1182    4.6392    2.5851 H   0  0  0  0  0  0  0  0  0  0  0  0
   -7.5942    4.2624    3.4380 H   0  0  0  0  0  0  0  0  0  0  0  0
   -6.1802    5.1209    1.3351 H   0  0  0  0  0  0  0  0  0  0  0  0
   -7.7832    5.5936    0.7006 H   0  0  0  0  0  0  0  0  0  0  0  0
   -6.7132    4.5868   -0.2917 H   0  0  0  0  0  0  0  0  0  0  0  0
   -5.3701   -0.5194    0.8731 N   0  0  0  0  0  0  0  0  0  0  0  0
   -4.4071   -1.5671    1.1943 C   0  0  0  0  0  0  0  0  0  0  0  0
   -3.4071   -1.6701    0.0689 C   0  0  0  0  0  0  0  0  0  0  0  0
   -2.2171   -1.6615    0.3370 O   0  0  0  0  0  0  0  0  0  0  0  0
   -5.0851   -2.9484    1.3998 C   0  0  0  0  0  0  0  0  0  0  0  0
   -3.8921   -1.2945    2.1308 H   0  0  0  0  0  0  0  0  0  0  0  0
   -6.3391   -0.7575    0.7980 H   0  0  0  0  0  0  0  0  0  0  0  0
   -5.6041   -3.2727    0.4871 H   0  0  0  0  0  0  0  0  0  0  0  0
   -5.8191   -2.8875    2.2192 H   0  0  0  0  0  0  0  0  0  0  0  0
   -4.3291   -3.7053    1.6610 H   0  0  0  0  0  0  0  0  0  0  0  0
   -3.8920   -1.7282   -1.2164 N   0  0  0  0  0  0  0  0  0  0  0  0
   -2.6450   -1.8047   -1.9727 C   0  0  0  0  0  0  0  0  0  0  0  0
   -2.3170   -0.4755   -2.6107 C   0  0  0  0  0  0  0  0  0  0  0  0
   -3.0620    0.5336   -2.4739 O   0  0  0  0  0  0  0  0  0  0  0  0
   -2.7630   -2.8862   -3.0888 C   0  0  0  0  0  0  0  0  0  0  0  0
   -3.0970   -4.3129   -2.6278 C   0  0  0  0  0  0  0  0  0  0  0  0
   -4.4350   -4.7012   -2.4992 C   0  0  0  0  0  0  0  0  0  0  0  0
   -2.0830   -5.2072   -2.2785 C   0  0  0  0  0  0  0  0  0  0  0  0
   -4.7550   -5.9620   -2.0046 C   0  0  0  0  0  0  0  0  0  0  0  0
   -2.4030   -6.4728   -1.7986 C   0  0  0  0  0  0  0  0  0  0  0  0
   -3.7390   -6.8498   -1.6561 C   0  0  0  0  0  0  0  0  0  0  0  0
   -4.4690   -0.8168   -1.1525 H   0  0  0  0  0  0  0  0  0  0  0  0
   -1.8220   -2.0651   -1.2795 H   0  0  0  0  0  0  0  0  0  0  0  0
   -3.5170   -2.5641   -3.8383 H   0  0  0  0  0  0  0  0  0  0  0  0
   -1.8200   -2.9175   -3.6702 H   0  0  0  0  0  0  0  0  0  0  0  0
   -5.2300   -4.0061   -2.7373 H   0  0  0  0  0  0  0  0  0  0  0  0
   -1.0460   -4.9140   -2.3664 H   0  0  0  0  0  0  0  0  0  0  0  0
   -5.7900   -6.2413   -1.8812 H   0  0  0  0  0  0  0  0  0  0  0  0
   -1.6160   -7.1598   -1.5190 H   0  0  0  0  0  0  0  0  0  0  0  0
   -3.9890   -7.8256   -1.2707 H   0  0  0  0  0  0  0  0  0  0  0  0
   -2.4139    0.5389   -2.0454 N   0  0  0  0  0  0  0  0  0  0  0  0
   -1.1859    1.3278   -2.0215 C   0  0  0  0  0  0  0  0  0  0  0  0
   -0.7709    1.6398   -0.6036 C   0  0  0  0  0  0  0  0  0  0  0  0
   -1.4139    1.2575    0.3544 O   0  0  0  0  0  0  0  0  0  0  0  0
   -1.3629    2.6465   -2.8466 C   0  0  0  0  0  0  0  0  0  0  0  0
   -1.6419    2.3479   -4.2092 O   0  0  0  0  0  0  0  0  0  0  0  0
   -0.1409    3.5894   -2.9009 C   0  0  0  0  0  0  0  0  0  0  0  0
   -2.9209    0.2416   -1.1395 H   0  0  0  0  0  0  0  0  0  0  0  0
   -0.3769    0.7281   -2.4769 H   0  0  0  0  0  0  0  0  0  0  0  0
   -2.2219    3.2108   -2.4266 H   0  0  0  0  0  0  0  0  0  0  0  0
   -1.8079    3.1914   -4.6402 H   0  0  0  0  0  0  0  0  0  0  0  0
   -0.3339    4.4852   -3.5218 H   0  0  0  0  0  0  0  0  0  0  0  0
    0.1431    3.9707   -1.9054 H   0  0  0  0  0  0  0  0  0  0  0  0
    0.7491    3.0844   -3.3234 H   0  0  0  0  0  0  0  0  0  0  0  0
   -0.9358    0.9630    0.3310 N   0  0  0  0  0  0  0  0  0  0  0  0
    0.3132    0.7713    1.0621 C   0  0  0  0  0  0  0  0  0  0  0  0
    0.6262   -0.6963    1.2244 C   0  0  0  0  0  0  0  0  0  0  0  0
    1.8322   -1.0073    1.9271 O   0  0  0  0  0  0  0  0  0  0  0  0
    0.2882    1.5260    2.4530 C   0  0  0  0  0  0  0  0  0  0  0  0
   -0.1038    3.0351    2.3706 C   0  0  0  0  0  0  0  0  0  0  0  0
    1.6402    1.4182    3.2257 C   0  0  0  0  0  0  0  0  0  0  0  0
   -0.4528    3.7149    3.7119 C   0  0  0  0  0  0  0  0  0  0  0  0
   -1.5228    0.1306   -0.0263 H   0  0  0  0  0  0  0  0  0  0  0  0
    1.1282    1.1999    0.4499 H   0  0  0  0  0  0  0  0  0  0  0  0
   -0.4898    1.0254    3.0710 H   0  0  0  0  0  0  0  0  0  0  0  0
    0.6842    3.6083    1.8453 H   0  0  0  0  0  0  0  0  0  0  0  0
   -1.0008    3.1477    1.7327 H   0  0  0  0  0  0  0  0  0  0  0  0
    1.5962    1.8995    4.2182 H   0  0  0  0  0  0  0  0  0  0  0  0
    1.9392    0.3755    3.4371 H   0  0  0  0  0  0  0  0  0  0  0  0
    2.4722    1.8934    2.6742 H   0  0  0  0  0  0  0  0  0  0  0  0
   -0.7888    4.7594    3.5526 H   0  0  0  0  0  0  0  0  0  0  0  0
   -1.2688    3.1895    4.2370 H   0  0  0  0  0  0  0  0  0  0  0  0
    0.4102    3.7611    4.4001 H   0  0  0  0  0  0  0  0  0  0  0  0
    0.5423   -1.4509    0.3374 N   0  0  0  0  0  0  0  0  0  0  0  0
    1.7703   -2.1844    0.0460 C   0  0  0  0  0  0  0  0  0  0  0  0
    2.1853   -1.9944   -1.3933 C   0  0  0  0  0  0  0  0  0  0  0  0
    1.5423   -1.3083   -2.1636 O   0  0  0  0  0  0  0  0  0  0  0  0
    1.5933   -3.7054    0.3721 C   0  0  0  0  0  0  0  0  0  0  0  0
    1.3143   -3.8892    1.7549 O   0  0  0  0  0  0  0  0  0  0  0  0
    2.8153   -4.6103    0.1017 C   0  0  0  0  0  0  0  0  0  0  0  0
    0.0353   -0.8626   -0.4129 H   0  0  0  0  0  0  0  0  0  0  0  0
    2.5793   -1.7759    0.6786 H   0  0  0  0  0  0  0  0  0  0  0  0
    0.7343   -4.0928   -0.2151 H   0  0  0  0  0  0  0  0  0  0  0  0
    1.1483   -4.8291    1.8725 H   0  0  0  0  0  0  0  0  0  0  0  0
    2.6223   -5.6641    0.3800 H   0  0  0  0  0  0  0  0  0  0  0  0
    3.0993   -4.6294   -0.9641 H   0  0  0  0  0  0  0  0  0  0  0  0
    3.7053   -4.2796    0.6711 H   0  0  0  0  0  0  0  0  0  0  0  0
    2.0204   -1.0395   -2.0412 N   0  0  0  0  0  0  0  0  0  0  0  0
    3.2974   -0.5373   -2.6135 C   0  0  0  0  0  0  0  0  0  0  0  0
    3.6774    0.9711   -2.4035 C   0  0  0  0  0  0  0  0  0  0  0  0
    3.0254    1.7642   -1.7645 O   0  0  0  0  0  0  0  0  0  0  0  0
    3.2354   -0.9336   -4.1009 C   0  0  0  0  0  0  0  0  0  0  0  0
    4.5834   -0.9153   -4.8722 C   0  0  0  0  0  0  0  0  0  0  0  0
    5.6074   -0.8743   -4.1854 O   0  0  0  0  0  0  0  0  0  0  0  0
    4.4664   -0.9612   -6.0972 O   0  0  0  0  0  0  0  0  0  0  0  0
    1.5604   -0.3194   -1.5030 H   0  0  0  0  0  0  0  0  0  0  0  0
    4.1064   -1.1222   -2.1328 H   0  0  0  0  0  0  0  0  0  0  0  0
    2.8784   -1.9738   -4.1904 H   0  0  0  0  0  0  0  0  0  0  0  0
    2.5014   -0.3227   -4.6544 H   0  0  0  0  0  0  0  0  0  0  0  0
    3.4985    1.2321   -1.2243 N   0  0  0  0  0  0  0  0  0  0  0  0
    4.4305    2.0320   -0.4325 C   0  0  0  0  0  0  0  0  0  0  0  0
    5.4435    1.1162    0.2114 C   0  0  0  0  0  0  0  0  0  0  0  0
    6.6325    1.3654    0.0873 O   0  0  0  0  0  0  0  0  0  0  0  0
    3.7325    2.8549    0.6867 C   0  0  0  0  0  0  0  0  0  0  0  0
    2.9055    4.0496    0.1418 C   0  0  0  0  0  0  0  0  0  0  0  0
    1.9645    4.6894    1.1440 C   0  0  0  0  0  0  0  0  0  0  0  0
    0.9905    5.2770    0.6949 O   0  0  0  0  0  0  0  0  0  0  0  0
    2.1925    4.6255    2.4769 N   0  0  0  0  0  0  0  0  0  0  0  0
    4.9575    2.7179   -1.1187 H   0  0  0  0  0  0  0  0  0  0  0  0
    2.5185    1.3270   -1.0596 H   0  0  0  0  0  0  0  0  0  0  0  0
    4.5105    3.2516    1.3556 H   0  0  0  0  0  0  0  0  0  0  0  0
    3.0805    2.1923    1.2762 H   0  0  0  0  0  0  0  0  0  0  0  0
    2.3005    3.6953   -0.7036 H   0  0  0  0  0  0  0  0  0  0  0  0
    3.5885    4.8226   -0.2431 H   0  0  0  0  0  0  0  0  0  0  0  0
    2.9865    4.1599    2.8683 H   0  0  0  0  0  0  0  0  0  0  0  0
    1.5435    5.0627    3.1017 H   0  0  0  0  0  0  0  0  0  0  0  0
    4.9766    0.0343    0.8716 N   0  0  0  0  0  0  0  0  0  0  0  0
    6.2226   -0.5813    1.3210 C   0  0  0  0  0  0  0  0  0  0  0  0
    6.5556   -1.7973    0.4900 C   0  0  0  0  0  0  0  0  0  0  0  0
    5.8306   -2.1767   -0.4385 O   0  0  0  0  0  0  0  0  0  0  0  0
    6.1136   -0.9577    2.8509 C   0  0  0  0  0  0  0  0  0  0  0  0
    5.9666    0.2661    3.7895 C   0  0  0  0  0  0  0  0  0  0  0  0
    7.2856   -1.7919    3.4416 C   0  0  0  0  0  0  0  0  0  0  0  0
    4.4046   -0.3668    0.0480 H   0  0  0  0  0  0  0  0  0  0  0  0
    7.0466    0.1424    1.1806 H   0  0  0  0  0  0  0  0  0  0  0  0
    5.1966   -1.5743    2.9720 H   0  0  0  0  0  0  0  0  0  0  0  0
    6.8686    0.9047    3.7879 H   0  0  0  0  0  0  0  0  0  0  0  0
    5.1116    0.9031    3.5037 H   0  0  0  0  0  0  0  0  0  0  0  0
    5.7826   -0.0411    4.8370 H   0  0  0  0  0  0  0  0  0  0  0  0
    8.2586   -1.2711    3.3538 H   0  0  0  0  0  0  0  0  0  0  0  0
    7.1346   -2.0240    4.5141 H   0  0  0  0  0  0  0  0  0  0  0  0
    7.3956   -2.7748    2.9477 H   0  0  0  0  0  0  0  0  0  0  0  0
    6.4936   -1.8550   -0.5323 O   0  0  0  0  0  0  0  0  0  0  0  0
    7.1846   -2.1313   -1.1263 H   0  0  0  0  0  0  0  0  0  0  0  0
   -7.1362    1.7359   -0.7963 H   0  0  0  0  0  0  0  0  0  0  0  0
   -5.8282    1.3293   -0.6792 H   0  0  0  0  0  0  0  0  0  0  0  0
   -7.1882    1.8317    0.1409 H   0  0  0  0  0  0  0  0  0  0  0  0
   -7.1882    0.3680   -0.6542 H   0  0  0  0  0  0  0  0  0  0  0  0
   -4.8482    1.8679    0.3112 H   0  0  0  0  0  0  0  0  0  0  0  0
   -6.2748    2.3949    1.1714 H   0  0  0  0  0  0  0  0  0  0  0  0
   -6.2748    0.8595    0.3374 H   0  0  0  0  0  0  0  0  0  0  0  0
   -6.2748    2.3495   -0.5753 H   0  0  0  0  0  0  0  0  0  0  0  0
   -3.8672    0.7771    0.6793 H   0  0  0  0  0  0  0  0  0  0  0  0
   -5.2938    1.3040    1.5395 H   0  0  0  0  0  0  0  0  0  0  0  0
   -5.2938   -0.2314    0.7055 H   0  0  0  0  0  0  0  0  0  0  0  0
   -5.2938    1.2586   -0.2072 H   0  0  0  0  0  0  0  0  0  0  0  0
   -2.7822    1.0539    0.7630 H   0  0  0  0  0  0  0  0  0  0  0  0
   -4.0755    1.5316    1.5429 H   0  0  0  0  0  0  0  0  0  0  0  0
   -5.5522    2.3712    1.6030 H   0  0  0  0  0  0  0  0  0  0  0  0
   -6.9788    2.8982    2.4633 H   0  0  0  0  0  0  0  0  0  0  0  0
   -6.9788    1.3628    1.6292 H   0  0  0  0  0  0  0  0  0  0  0  0
   -6.9788    2.8528    0.7166 H   0  0  0  0  0  0  0  0  0  0  0  0
   -6.5982    3.5073    1.3765 H   0  0  0  0  0  0  0  0  0  0  0  0
   -8.0248    4.0343    2.2368 H   0  0  0  0  0  0  0  0  0  0  0  0
   -8.0248    2.4989    1.4027 H   0  0  0  0  0  0  0  0  0  0  0  0
   -8.0248    3.9889    0.4901 H   0  0  0  0  0  0  0  0  0  0  0  0
   -7.2722    3.8738    2.7285 H   0  0  0  0  0  0  0  0  0  0  0  0
   -8.6988    4.4007    3.5888 H   0  0  0  0  0  0  0  0  0  0  0  0
   -8.6988    2.8653    2.7547 H   0  0  0  0  0  0  0  0  0  0  0  0
   -8.6988    4.3553    1.8421 H   0  0  0  0  0  0  0  0  0  0  0  0
   -5.9722    4.7801    0.7391 H   0  0  0  0  0  0  0  0  0  0  0  0
   -7.3988    5.3070    1.5994 H   0  0  0  0  0  0  0  0  0  0  0  0
   -7.3988    3.7716    0.7653 H   0  0  0  0  0  0  0  0  0  0  0  0
   -7.3988    5.2616   -0.1473 H   0  0  0  0  0  0  0  0  0  0  0  0
   -4.7282    2.6979   -0.1373 H   0  0  0  0  0  0  0  0  0  0  0  0
   -7.1822    1.1698   -0.4199 H   0  0  0  0  0  0  0  0  0  0  0  0
   -5.2292    2.7343    2.2994 H   0  0  0  0  0  0  0  0  0  0  0  0
   -6.5052    1.5125    2.0726 H   0  0  0  0  0  0  0  0  0  0  0  0
   -7.8462    3.1482    0.7044 H   0  0  0  0  0  0  0  0  0  0  0  0
   -8.1982    2.9853    3.1751 H   0  0  0  0  0  0  0  0  0  0  0  0
   -8.4982    4.6392    2.5851 H   0  0  0  0  0  0  0  0  0  0  0  0
   -6.9742    4.2624    3.4380 H   0  0  0  0  0  0  0  0  0  0  0  0
   -5.5602    5.1209    1.3351 H   0  0  0  0  0  0  0  0  0  0  0  0
   -7.1632    5.5936    0.7006 H   0  0  0  0  0  0  0  0  0  0  0  0
   -6.0932    4.5868   -0.2917 H   0  0  0  0  0  0  0  0  0  0  0  0
   -4.3501   -0.5194    0.8731 H   0  0  0  0  0  0  0  0  0  0  0  0
   -5.7101   -0.0171    1.6931 H   0  0  0  0  0  0  0  0  0  0  0  0
   -5.7101   -1.4807    0.8980 H   0  0  0  0  0  0  0  0  0  0  0  0
   -3.3371   -1.5671    1.1943 H   0  0  0  0  0  0  0  0  0  0  0  0
   -4.7637   -1.0401    2.0545 H   0  0  0  0  0  0  0  0  0  0  0  0
   -4.7637   -2.5755    1.2205 H   0  0  0  0  0  0  0  0  0  0  0  0
   -4.7637   -1.0855    0.3078 H   0  0  0  0  0  0  0  0  0  0  0  0
   -2.3371   -1.6701    0.0689 H   0  0  0  0  0  0  0  0  0  0  0  0
   -3.7637   -1.1431    0.9291 H   0  0  0  0  0  0  0  0  0  0  0  0
   -3.7637   -2.6785    0.0951 H   0  0  0  0  0  0  0  0  0  0  0  0
   -3.7637   -1.1885   -0.8176 H   0  0  0  0  0  0  0  0  0  0  0  0
   -1.2471   -1.6615    0.3370 H   0  0  0  0  0  0  0  0  0  0  0  0
   -2.5404   -1.1839    1.1169 H   0  0  0  0  0  0  0  0  0  0  0  0
   -4.0151   -2.9484    1.3998 H   0  0  0  0  0  0  0  0  0  0  0  0
   -5.4417   -2.4215    2.2600 H   0  0  0  0  0  0  0  0  0  0  0  0
   -5.4417   -3.9568    1.4260 H   0  0  0  0  0  0  0  0  0  0  0  0
   -5.4417   -2.4668    0.5133 H   0  0  0  0  0  0  0  0  0  0  0  0
   -3.2721   -1.2945    2.1308 H   0  0  0  0  0  0  0  0  0  0  0  0
   -5.7191   -0.7575    0.7980 H   0  0  0  0  0  0  0  0  0  0  0  0
   -4.9841   -3.2727    0.4871 H   0  0  0  0  0  0  0  0  0  0  0  0
   -5.1991   -2.8875    2.2192 H   0  0  0  0  0  0  0  0  0  0  0  0
   -3.7091   -3.7053    1.6610 H   0  0  0  0  0  0  0  0  0  0  0  0
   -2.8720   -1.7282   -1.2164 H   0  0  0  0  0  0  0  0  0  0  0  0
   -4.2320   -1.2259   -0.3964 H   0  0  0  0  0  0  0  0  0  0  0  0
   -4.2320   -2.6896   -1.1915 H   0  0  0  0  0  0  0  0  0  0  0  0
   -1.5750   -1.8047   -1.9727 H   0  0  0  0  0  0  0  0  0  0  0  0
   -3.0016   -1.2778   -1.1124 H   0  0  0  0  0  0  0  0  0  0  0  0
   -3.0016   -2.8132   -1.9464 H   0  0  0  0  0  0  0  0  0  0  0  0
   -3.0016   -1.3232   -2.8591 H   0  0  0  0  0  0  0  0  0  0  0  0
   -1.2470   -0.4755   -2.6107 H   0  0  0  0  0  0  0  0  0  0  0  0
   -2.6736    0.0515   -1.7504 H   0  0  0  0  0  0  0  0  0  0  0  0
   -2.6736   -1.4839   -2.5844 H   0  0  0  0  0  0  0  0  0  0  0  0
   -2.6736    0.0061   -3.4971 H   0  0  0  0  0  0  0  0  0  0  0  0
   -2.0920    0.5336   -2.4739 H   0  0  0  0  0  0  0  0  0  0  0  0
   -3.3853    1.0113   -1.6940 H   0  0  0  0  0  0  0  0  0  0  0  0
   -1.6930   -2.8862   -3.0888 H   0  0  0  0  0  0  0  0  0  0  0  0
   -3.1196   -2.3593   -2.2285 H   0  0  0  0  0  0  0  0  0  0  0  0
   -3.1196   -3.8947   -3.0626 H   0  0  0  0  0  0  0  0  0  0  0  0
   -3.1196   -2.4047   -3.9752 H   0  0  0  0  0  0  0  0  0  0  0  0
   -2.0270   -4.3129   -2.6278 H   0  0  0  0  0  0  0  0  0  0  0  0
   -3.4536   -3.7859   -1.7675 H   0  0  0  0  0  0  0  0  0  0  0  0
   -3.4536   -5.3213   -2.6016 H   0  0  0  0  0  0  0  0  0  0  0  0
   -3.4536   -3.8313   -3.5142 H   0  0  0  0  0  0  0  0  0  0  0  0
   -3.3650   -4.7012   -2.4992 H   0  0  0  0  0  0  0  0  0  0  0  0
   -4.7916   -4.1742   -1.6390 H   0  0  0  0  0  0  0  0  0  0  0  0
   -4.7916   -5.7096   -2.4730 H   0  0  0  0  0  0  0  0  0  0  0  0
   -4.7916   -4.2196   -3.3857 H   0  0  0  0  0  0  0  0  0  0  0  0
   -1.0130   -5.2072   -2.2785 H   0  0  0  0  0  0  0  0  0  0  0  0
   -2.4396   -4.6803   -1.4182 H   0  0  0  0  0  0  0  0  0  0  0  0
   -2.4396   -6.2157   -2.2523 H   0  0  0  0  0  0  0  0  0  0  0  0
   -2.4396   -4.7257   -3.1650 H   0  0  0  0  0  0  0  0  0  0  0  0
   -3.6850   -5.9620   -2.0046 H   0  0  0  0  0  0  0  0  0  0  0  0
   -5.1116   -5.4350   -1.1444 H   0  0  0  0  0  0  0  0  0  0  0  0
   -5.1116   -6.9704   -1.9784 H   0  0  0  0  0  0  0  0  0  0  0  0
   -5.1116   -5.4804   -2.8911 H   0  0  0  0  0  0  0  0  0  0  0  0
   -1.3330   -6.4728   -1.7986 H   0  0  0  0  0  0  0  0  0  0  0  0
   -2.7596   -5.9459   -0.9383 H   0  0  0  0  0  0  0  0  0  0  0  0
   -2.7596   -7.4813   -1.7723 H   0  0  0  0  0  0  0  0  0  0  0  0
   -2.7596   -5.9913   -2.6850 H   0  0  0  0  0  0  0  0  0  0  0  0
   -2.6690   -6.8498   -1.6561 H   0  0  0  0  0  0  0  0  0  0  0  0
   -4.0956   -6.3228   -0.7959 H   0  0  0  0  0  0  0  0  0  0  0  0
   -4.0956   -7.8582   -1.6299 H   0  0  0  0  0  0  0  0  0  0  0  0
   -4.0956   -6.3682   -2.5426 H   0  0  0  0  0  0  0  0  0  0  0  0
   -3.8490   -0.8168   -1.1525 H   0  0  0  0  0  0  0  0  0  0  0  0
   -1.2020   -2.0651   -1.2795 H   0  0  0  0  0  0  0  0  0  0  0  0
   -2.8970   -2.5641   -3.8383 H   0  0  0  0  0  0  0  0  0  0  0  0
   -1.2000   -2.9175   -3.6702 H   0  0  0  0  0  0  0  0  0  0  0  0
   -4.6100   -4.0061   -2.7373 H   0  0  0  0  0  0  0  0  0  0  0  0
   -0.4260   -4.9140   -2.3664 H   0  0  0  0  0  0  0  0  0  0  0  0
   -5.1700   -6.2413   -1.8812 H   0  0  0  0  0  0  0  0  0  0  0  0
   -0.9960   -7.1598   -1.5190 H   0  0  0  0  0  0  0  0  0  0  0  0
   -3.3690   -7.8256   -1.2707 H   0  0  0  0  0  0  0  0  0  0  0  0
   -1.3939    0.5389   -2.0454 H   0  0  0  0  0  0  0  0  0  0  0  0
   -2.7539    1.0412   -1.2254 H   0  0  0  0  0  0  0  0  0  0  0  0
   -2.7539   -0.4224   -2.0204 H   0  0  0  0  0  0  0  0  0  0  0  0
   -0.1159    1.3278   -2.0215 H   0  0  0  0  0  0  0  0  0  0  0  0
   -1.5425    1.8548   -1.1612 H   0  0  0  0  0  0  0  0  0  0  0  0
   -1.5425    0.3194   -1.9953 H   0  0  0  0  0  0  0  0  0  0  0  0
   -1.5425    1.8094   -2.9079 H   0  0  0  0  0  0  0  0  0  0  0  0
    0.2991    1.6398   -0.6036 H   0  0  0  0  0  0  0  0  0  0  0  0
   -1.1275    2.1668    0.2567 H   0  0  0  0  0  0  0  0  0  0  0  0
   -1.1275    0.6314   -0.5774 H   0  0  0  0  0  0  0  0  0  0  0  0
   -1.1275    2.1214   -1.4901 H   0  0  0  0  0  0  0  0  0  0  0  0
   -0.4439    1.2575    0.3544 H   0  0  0  0  0  0  0  0  0  0  0  0
   -1.7372    1.7352    1.1342 H   0  0  0  0  0  0  0  0  0  0  0  0
   -0.2929    2.6465   -2.8466 H   0  0  0  0  0  0  0  0  0  0  0  0
   -1.7195    3.1734   -1.9864 H   0  0  0  0  0  0  0  0  0  0  0  0
   -1.7195    1.6380   -2.8204 H   0  0  0  0  0  0  0  0  0  0  0  0
   -1.7195    3.1280   -3.7331 H   0  0  0  0  0  0  0  0  0  0  0  0
   -0.6719    2.3479   -4.2092 H   0  0  0  0  0  0  0  0  0  0  0  0
   -1.9652    2.8256   -3.4294 H   0  0  0  0  0  0  0  0  0  0  0  0
    0.9291    3.5894   -2.9009 H   0  0  0  0  0  0  0  0  0  0  0  0
   -0.4975    4.1163   -2.0407 H   0  0  0  0  0  0  0  0  0  0  0  0
   -0.4975    2.5809   -2.8747 H   0  0  0  0  0  0  0  0  0  0  0  0
   -0.4975    4.0709   -3.7874 H   0  0  0  0  0  0  0  0  0  0  0  0
   -2.3009    0.2416   -1.1395 H   0  0  0  0  0  0  0  0  0  0  0  0
    0.2431    0.7281   -2.4769 H   0  0  0  0  0  0  0  0  0  0  0  0
   -1.6019    3.2108   -2.4266 H   0  0  0  0  0  0  0  0  0  0  0  0
   -1.1879    3.1914   -4.6402 H   0  0  0  0  0  0  0  0  0  0  0  0
    0.2861    4.4852   -3.5218 H   0  0  0  0  0  0  0  0  0  0  0  0
    0.7631    3.9707   -1.9054 H   0  0  0  0  0  0  0  0  0  0  0  0
    1.3691    3.0844   -3.3234 H   0  0  0  0  0  0  0  0  0  0  0  0
    0.0842    0.9630    0.3310 H   0  0  0  0  0  0  0  0  0  0  0  0
   -1.2758    1.4653    1.1511 H   0  0  0  0  0  0  0  0  0  0  0  0
   -1.2758    0.0017    0.3560 H   0  0  0  0  0  0  0  0  0  0  0  0
    1.3832    0.7713    1.0621 H   0  0  0  0  0  0  0  0  0  0  0  0
   -0.0434    1.2982    1.9224 H   0  0  0  0  0  0  0  0  0  0  0  0
   -0.0434   -0.2372    1.0883 H   0  0  0  0  0  0  0  0  0  0  0  0
   -0.0434    1.2528    0.1757 H   0  0  0  0  0  0  0  0  0  0  0  0
    1.6962   -0.6963    1.2244 H   0  0  0  0  0  0  0  0  0  0  0  0
    0.2696   -0.1694    2.0847 H   0  0  0  0  0  0  0  0  0  0  0  0
    0.2696   -1.7048    1.2507 H   0  0  0  0  0  0  0  0  0  0  0  0
    0.2696   -0.2148    0.3380 H   0  0  0  0  0  0  0  0  0  0  0  0
    2.8022   -1.0073    1.9271 H   0  0  0  0  0  0  0  0  0  0  0  0
    1.5089   -0.5296    2.7070 H   0  0  0  0  0  0  0  0  0  0  0  0
    1.3582    1.5260    2.4530 H   0  0  0  0  0  0  0  0  0  0  0  0
   -0.0684    2.0530    3.3132 H   0  0  0  0  0  0  0  0  0  0  0  0
   -0.0684    0.5176    2.4792 H   0  0  0  0  0  0  0  0  0  0  0  0
   -0.0684    2.0076    1.5665 H   0  0  0  0  0  0  0  0  0  0  0  0
    0.9662    3.0351    2.3706 H   0  0  0  0  0  0  0  0  0  0  0  0
   -0.4604    3.5620    3.2308 H   0  0  0  0  0  0  0  0  0  0  0  0
   -0.4604    2.0266    2.3968 H   0  0  0  0  0  0  0  0  0  0  0  0
   -0.4604    3.5166    1.4841 H   0  0  0  0  0  0  0  0  0  0  0  0
    2.7102    1.4182    3.2257 H   0  0  0  0  0  0  0  0  0  0  0  0
    1.2836    1.9452    4.0860 H   0  0  0  0  0  0  0  0  0  0  0  0
    1.2836    0.4098    3.2519 H   0  0  0  0  0  0  0  0  0  0  0  0
    1.2836    1.8998    2.3393 H   0  0  0  0  0  0  0  0  0  0  0  0
    0.6172    3.7149    3.7119 H   0  0  0  0  0  0  0  0  0  0  0  0
   -0.8094    4.2418    4.5722 H   0  0  0  0  0  0  0  0  0  0  0  0
   -0.8094    2.7064    3.7381 H   0  0  0  0  0  0  0  0  0  0  0  0
   -0.8094    4.1964    2.8254 H   0  0  0  0  0  0  0  0  0  0  0  0
   -0.9028    0.1306   -0.0263 H   0  0  0  0  0  0  0  0  0  0  0  0
    1.7482    1.1999    0.4499 H   0  0  0  0  0  0  0  0  0  0  0  0
    0.1302    1.0254    3.0710 H   0  0  0  0  0  0  0  0  0  0  0  0
    1.3042    3.6083    1.8453 H   0  0  0  0  0  0  0  0  0  0  0  0
   -0.3808    3.1477    1.7327 H   0  0  0  0  0  0  0  0  0  0  0  0
    2.2162    1.8995    4.2182 H   0  0  0  0  0  0  0  0  0  0  0  0
    2.5592    0.3755    3.4371 H   0  0  0  0  0  0  0  0  0  0  0  0
    3.0922    1.8934    2.6742 H   0  0  0  0  0  0  0  0  0  0  0  0
   -0.1688    4.7594    3.5526 H   0  0  0  0  0  0  0  0  0  0  0  0
   -0.6488    3.1895    4.2370 H   0  0  0  0  0  0  0  0  0  0  0  0
    1.0302    3.7611    4.4001 H   0  0  0  0  0  0  0  0  0  0  0  0
    1.5623   -1.4509    0.3374 H   0  0  0  0  0  0  0  0  0  0  0  0
    0.2023   -0.9486    1.1575 H   0  0  0  0  0  0  0  0  0  0  0  0
    0.2023   -2.4123    0.3624 H   0  0  0  0  0  0  0  0  0  0  0  0
    2.8403   -2.1844    0.0460 H   0  0  0  0  0  0  0  0  0  0  0  0
    1.4137   -1.6575    0.9062 H   0  0  0  0  0  0  0  0  0  0  0  0
    1.4137   -3.1929    0.0722 H   0  0  0  0  0  0  0  0  0  0  0  0
    1.4137   -1.7029   -0.8405 H   0  0  0  0  0  0  0  0  0  0  0  0
    3.2553   -1.9944   -1.3933 H   0  0  0  0  0  0  0  0  0  0  0  0
    1.8287   -1.4674   -0.5331 H   0  0  0  0  0  0  0  0  0  0  0  0
    1.8287   -3.0028   -1.3671 H   0  0  0  0  0  0  0  0  0  0  0  0
    1.8287   -1.5128   -2.2798 H   0  0  0  0  0  0  0  0  0  0  0  0
    2.5123   -1.3083   -2.1636 H   0  0  0  0  0  0  0  0  0  0  0  0
    1.2190   -0.8307   -1.3837 H   0  0  0  0  0  0  0  0  0  0  0  0
    2.6633   -3.7054    0.3721 H   0  0  0  0  0  0  0  0  0  0  0  0
    1.2367   -3.1785    1.2324 H   0  0  0  0  0  0  0  0  0  0  0  0
    1.2367   -4.7139    0.3983 H   0  0  0  0  0  0  0  0  0  0  0  0
    1.2367   -3.2239   -0.5143 H   0  0  0  0  0  0  0  0  0  0  0  0
    2.2843   -3.8892    1.7549 H   0  0  0  0  0  0  0  0  0  0  0  0
    0.9910   -3.4116    2.5348 H   0  0  0  0  0  0  0  0  0  0  0  0
    3.8853   -4.6103    0.1017 H   0  0  0  0  0  0  0  0  0  0  0  0
    2.4587   -4.0834    0.9620 H   0  0  0  0  0  0  0  0  0  0  0  0
    2.4587   -5.6188    0.1279 H   0  0  0  0  0  0  0  0  0  0  0  0
    2.4587   -4.1288   -0.7847 H   0  0  0  0  0  0  0  0  0  0  0  0
    0.6553   -0.8626   -0.4129 H   0  0  0  0  0  0  0  0  0  0  0  0
    3.1993   -1.7759    0.6786 H   0  0  0  0  0  0  0  0  0  0  0  0
    1.3543   -4.0928   -0.2151 H   0  0  0  0  0  0  0  0  0  0  0  0
    1.7683   -4.8291    1.8725 H   0  0  0  0  0  0  0  0  0  0  0  0
    3.2423   -5.6641    0.3800 H   0  0  0  0  0  0  0  0  0  0  0  0
    3.7193   -4.6294   -0.9641 H   0  0  0  0  0  0  0  0  0  0  0  0
    4.3253   -4.2796    0.6711 H   0  0  0  0  0  0  0  0  0  0  0  0
    3.0404   -1.0395   -2.0412 H   0  0  0  0  0  0  0  0  0  0  0  0
    1.6804   -0.5372   -1.2212 H   0  0  0  0  0  0  0  0  0  0  0  0
    1.6804   -2.0008   -2.0162 H   0  0  0  0  0  0  0  0  0  0  0  0
    4.3674   -0.5373   -2.6135 H   0  0  0  0  0  0  0  0  0  0  0  0
    2.9408   -0.0103   -1.7532 H   0  0  0  0  0  0  0  0  0  0  0  0
    2.9408   -1.5457   -2.5872 H   0  0  0  0  0  0  0  0  0  0  0  0
    2.9408   -0.0557   -3.4999 H   0  0  0  0  0  0  0  0  0  0  0  0
    4.7474    0.9711   -2.4035 H   0  0  0  0  0  0  0  0  0  0  0  0
    3.3208    1.4980   -1.5433 H   0  0  0  0  0  0  0  0  0  0  0  0
    3.3208   -0.0374   -2.3773 H   0  0  0  0  0  0  0  0  0  0  0  0
    3.3208    1.4526   -3.2900 H   0  0  0  0  0  0  0  0  0  0  0  0
    3.9954    1.7642   -1.7645 H   0  0  0  0  0  0  0  0  0  0  0  0
    2.7021    2.2418   -0.9846 H   0  0  0  0  0  0  0  0  0  0  0  0
    4.3054   -0.9336   -4.1009 H   0  0  0  0  0  0  0  0  0  0  0  0
    2.8788   -0.4067   -3.2406 H   0  0  0  0  0  0  0  0  0  0  0  0
    2.8788   -1.9421   -4.0747 H   0  0  0  0  0  0  0  0  0  0  0  0
    2.8788   -0.4521   -4.9873 H   0  0  0  0  0  0  0  0  0  0  0  0
    5.6534   -0.9153   -4.8722 H   0  0  0  0  0  0  0  0  0  0  0  0
    4.2268   -0.3884   -4.0119 H   0  0  0  0  0  0  0  0  0  0  0  0
    4.2268   -1.9238   -4.8460 H   0  0  0  0  0  0  0  0  0  0  0  0
    4.2268   -0.4338   -5.7586 H   0  0  0  0  0  0  0  0  0  0  0  0
    6.5774   -0.8743   -4.1854 H   0  0  0  0  0  0  0  0  0  0  0  0
    5.2841   -0.3966   -3.4056 H   0  0  0  0  0  0  0  0  0  0  0  0
    5.4364   -0.9612   -6.0972 H   0  0  0  0  0  0  0  0  0  0  0  0
    4.1431   -0.4836   -5.3174 H   0  0  0  0  0  0  0  0  0  0  0  0
    2.1804   -0.3194   -1.5030 H   0  0  0  0  0  0  0  0  0  0  0  0
    4.7264   -1.1222   -2.1328 H   0  0  0  0  0  0  0  0  0  0  0  0
    3.4984   -1.9738   -4.1904 H   0  0  0  0  0  0  0  0  0  0  0  0
    3.1214   -0.3227   -4.6544 H   0  0  0  0  0  0  0  0  0  0  0  0
    4.5185    1.2321   -1.2243 H   0  0  0  0  0  0  0  0  0  0  0  0
    3.1585    1.7344   -0.4042 H   0  0  0  0  0  0  0  0  0  0  0  0
    3.1585    0.2707   -1.1993 H   0  0  0  0  0  0  0  0  0  0  0  0
    5.5005    2.0320   -0.4325 H   0  0  0  0  0  0  0  0  0  0  0  0
    4.0739    2.5590    0.4277 H   0  0  0  0  0  0  0  0  0  0  0  0
    4.0739    1.0236   -0.4063 H   0  0  0  0  0  0  0  0  0  0  0  0
    4.0739    2.5136   -1.3190 H   0  0  0  0  0  0  0  0  0  0  0  0
    6.5135    1.1162    0.2114 H   0  0  0  0  0  0  0  0  0  0  0  0
    5.0869    1.6431    1.0717 H   0  0  0  0  0  0  0  0  0  0  0  0
    5.0869    0.1077    0.2376 H   0  0  0  0  0  0  0  0  0  0  0  0
    5.0869    1.5977   -0.6751 H   0  0  0  0  0  0  0  0  0  0  0  0
    7.6025    1.3654    0.0873 H   0  0  0  0  0  0  0  0  0  0  0  0
    6.3092    1.8431    0.8671 H   0  0  0  0  0  0  0  0  0  0  0  0
    4.8025    2.8549    0.6867 H   0  0  0  0  0  0  0  0  0  0  0  0
    3.3759    3.3819    1.5469 H   0  0  0  0  0  0  0  0  0  0  0  0
    3.3759    1.8465    0.7129 H   0  0  0  0  0  0  0  0  0  0  0  0
    3.3759    3.3365   -0.1998 H   0  0  0  0  0  0  0  0  0  0  0  0
    3.9755    4.0496    0.1418 H   0  0  0  0  0  0  0  0  0  0  0  0
    2.5489    4.5765    1.0020 H   0  0  0  0  0  0  0  0  0  0  0  0
    2.5489    3.0411    0.1680 H   0  0  0  0  0  0  0  0  0  0  0  0
    2.5489    4.5311   -0.7447 H   0  0  0  0  0  0  0  0  0  0  0  0
    3.0345    4.6894    1.1440 H   0  0  0  0  0  0  0  0  0  0  0  0
    1.6079    5.2163    2.0042 H   0  0  0  0  0  0  0  0  0  0  0  0
    1.6079    3.6810    1.1702 H   0  0  0  0  0  0  0  0  0  0  0  0
    1.6079    5.1710    0.2575 H   0  0  0  0  0  0  0  0  0  0  0  0
    1.9605    5.2770    0.6949 H   0  0  0  0  0  0  0  0  0  0  0  0
    0.6672    5.7547    1.4747 H   0  0  0  0  0  0  0  0  0  0  0  0
    3.2125    4.6255    2.4769 H   0  0  0  0  0  0  0  0  0  0  0  0
    1.8525    5.1278    3.2969 H   0  0  0  0  0  0  0  0  0  0  0  0
    1.8525    3.6641    2.5019 H   0  0  0  0  0  0  0  0  0  0  0  0
    5.5775    2.7179   -1.1187 H   0  0  0  0  0  0  0  0  0  0  0  0
    3.1385    1.3270   -1.0596 H   0  0  0  0  0  0  0  0  0  0  0  0
    5.1305    3.2516    1.3556 H   0  0  0  0  0  0  0  0  0  0  0  0
    3.7005    2.1923    1.2762 H   0  0  0  0  0  0  0  0  0  0  0  0
    2.9205    3.6953   -0.7036 H   0  0  0  0  0  0  0  0  0  0  0  0
    4.2085    4.8226   -0.2431 H   0  0  0  0  0  0  0  0  0  0  0  0
    3.6065    4.1599    2.8683 H   0  0  0  0  0  0  0  0  0  0  0  0
    2.1635    5.0627    3.1017 H   0  0  0  0  0  0  0  0  0  0  0  0
    5.9966    0.0343    0.8716 H   0  0  0  0  0  0  0  0  0  0  0  0
    4.6366    0.5366    1.6916 H   0  0  0  0  0  0  0  0  0  0  0  0
    4.6366   -0.9270    0.8966 H   0  0  0  0  0  0  0  0  0  0  0  0
    7.2926   -0.5813    1.3210 H   0  0  0  0  0  0  0  0  0  0  0  0
    5.8660   -0.0543    2.1813 H   0  0  0  0  0  0  0  0  0  0  0  0
    5.8660   -1.5897    1.3473 H   0  0  0  0  0  0  0  0  0  0  0  0
    5.8660   -0.0997    0.4346 H   0  0  0  0  0  0  0  0  0  0  0  0
    7.6256   -1.7973    0.4900 H   0  0  0  0  0  0  0  0  0  0  0  0
    6.1990   -1.2704    1.3502 H   0  0  0  0  0  0  0  0  0  0  0  0
    6.1990   -2.8057    0.5162 H   0  0  0  0  0  0  0  0  0  0  0  0
    6.1990   -1.3158   -0.3965 H   0  0  0  0  0  0  0  0  0  0  0  0
    6.8006   -2.1767   -0.4385 H   0  0  0  0  0  0  0  0  0  0  0  0
    5.5073   -1.6990    0.3413 H   0  0  0  0  0  0  0  0  0  0  0  0
    7.1836   -0.9577    2.8509 H   0  0  0  0  0  0  0  0  0  0  0  0
    5.7570   -0.4307    3.7112 H   0  0  0  0  0  0  0  0  0  0  0  0
    5.7570   -1.9661    2.8772 H   0  0  0  0  0  0  0  0  0  0  0  0
    5.7570   -0.4761    1.9645 H   0  0  0  0  0  0  0  0  0  0  0  0
    7.0366    0.2661    3.7895 H   0  0  0  0  0  0  0  0  0  0  0  0
    5.6100    0.7930    4.6498 H   0  0  0  0  0  0  0  0  0  0  0  0
    5.6100   -0.7424    3.8157 H   0  0  0  0  0  0  0  0  0  0  0  0
    5.6100    0.7476    2.9031 H   0  0  0  0  0  0  0  0  0  0  0  0
    8.3556   -1.7919    3.4416 H   0  0  0  0  0  0  0  0  0  0  0  0
    6.9290   -1.2649    4.3019 H   0  0  0  0  0  0  0  0  0  0  0  0
    6.9290   -2.8003    3.4679 H   0  0  0  0  0  0  0  0  0  0  0  0
    6.9290   -1.3103    2.5552 H   0  0  0  0  0  0  0  0  0  0  0  0
    5.0246   -0.3668    0.0480 H   0  0  0  0  0  0  0  0  0  0  0  0
    7.6666    0.1424    1.1806 H   0  0  0  0  0  0  0  0  0  0  0  0
    5.8166   -1.5743    2.9720 H   0  0  0  0  0  0  0  0  0  0  0  0
    7.4886    0.9047    3.7879 H   0  0  0  0  0  0  0  0  0  0  0  0
    5.7316    0.9031    3.5037 H   0  0  0  0  0  0  0  0  0  0  0  0
    6.4026   -0.0411    4.8370 H   0  0  0  0  0  0  0  0  0  0  0  0
    8.8786   -1.2711    3.3538 H   0  0  0  0  0  0  0  0  0  0  0  0
    7.7546   -2.0240    4.5141 H   0  0  0  0  0  0  0  0  0  0  0  0
    8.0156   -2.7748    2.9477 H   0  0  0  0  0  0  0  0  0  0  0  0
    7.4636   -1.8550   -0.5323 H   0  0  0  0  0  0  0  0  0  0  0  0
    6.1703   -1.3773    0.2475 H   0  0  0  0  0  0  0  0  0  0  0  0
    7.8046   -2.1313   -1.1263 H   0  0  0  0  0  0  0  0  0  0  0  0
  1145  1  0  0  0  0
  2146  1  0  0  0  0
  2147  1  0  0  0  0
  2148  1  0  0  0  0
  3149  1  0  0  0  0
  3150  1  0  0  0  0
  3151  1  0  0  0  0
  3152  1  0  0  0  0
  4153  1  0  0  0  0
  4154  1  0  0  0  0
  4155  1  0  0  0  0
  4156  1  0  0  0  0
  5157  1  0  0  0  0
  5158  1  0  0  0  0
  6159  1  0  0  0  0
  6160  1  0  0  0  0
  6161  1  0  0  0  0
  6162  1  0  0  0  0
  7163  1  0  0  0  0
  7164  1  0  0  0  0
  7165  1  0  0  0  0
  7166  1  0  0  0  0
  8167  1  0  0  0  0
  8168  1  0  0  0  0
  8169  1  0  0  0  0
  8170  1  0  0  0  0
  9171  1  0  0  0  0
  9172  1  0  0  0  0
  9173  1  0  0  0  0
  9174  1  0  0  0  0
 10175  1  0  0  0  0
 11176  1  0  0  0  0
 12177  1  0  0  0  0
 13178  1  0  0  0  0
 14179  1  0  0  0  0
 15180  1  0  0  0  0
 16181  1  0  0  0  0
 17182  1  0  0  0  0
 18183  1  0  0  0  0
 19184  1  0  0  0  0
 20185  1  0  0  0  0
 21186  1  0  0  0  0
 21187  1  0  0  0  0
 21188  1  0  0  0  0
 22189  1  0  0  0  0
 22190  1  0  0  0  0
 22191  1  0  0  0  0
 22192  1  0  0  0  0
 23193  1  0  0  0  0
 23194  1  0  0  0  0
 23195  1  0  0  0  0
 23196  1  0  0  0  0
 24197  1  0  0  0  0
 24198  1  0  0  0  0
 25199  1  0  0  0  0
 25200  1  0  0  0  0
 25201  1  0  0  0  0
 25202  1  0  0  0  0
 26203  1  0  0  0  0
 27204  1  0  0  0  0
 28205  1  0  0  0  0
 29206  1  0  0  0  0
 30207  1  0  0  0  0
 31208  1  0  0  0  0
 31209  1  0  0  0  0
 31210  1  0  0  0  0
 32211  1  0  0  0  0
 32212  1  0  0  0  0
 32213  1  0  0  0  0
 32214  1  0  0  0  0
 33215  1  0  0  0  0
 33216  1  0  0  0  0
 33217  1  0  0  0  0
 33218  1  0  0  0  0
 34219  1  0  0  0  0
 34220  1  0  0  0  0
 35221  1  0  0  0  0
 35222  1  0  0  0  0
 35223  1  0  0  0  0
 35224  1  0  0  0  0
 36225  1  0  0  0  0
 36226  1  0  0  0  0
 36227  1  0  0  0  0
 36228  1  0  0  0  0
 37229  1  0  0  0  0
 37230  1  0  0  0  0
 37231  1  0  0  0  0
 37232  1  0  0  0  0
 38233  1  0  0  0  0
 38234  1  0  0  0  0
 38235  1  0  0  0  0
 38236  1  0  0  0  0
 39237  1  0  0  0  0
 39238  1  0  0  0  0
 39239  1  0  0  0  0
 39240  1  0  0  0  0
 40241  1  0  0  0  0
 40242  1  0  0  0  0
 40243  1  0  0  0  0
 40244  1  0  0  0  0
 41245  1  0  0  0  0
 41246  1  0  0  0  0
 41247  1  0  0  0  0
 41248  1  0  0  0  0
 42249  1  0  0  0  0
 43250  1  0  0  0  0
 44251  1  0  0  0  0
 45252  1  0  0  0  0
 46253  1  0  0  0  0
 47254  1  0  0  0  0
 48255  1  0  0  0  0
 49256  1  0  0  0  0
 50257  1  0  0  0  0
 51258  1  0  0  0  0
 51259  1  0  0  0  0
 51260  1  0  0  0  0
 52261  1  0  0  0  0
 52262  1  0  0  0  0
 52263  1  0  0  0  0
 52264  1  0  0  0  0
 53265  1  0  0  0  0
 53266  1  0  0  0  0
 53267  1  0  0  0  0
 53268  1  0  0  0  0
 54269  1  0  0  0  0
 54270  1  0  0  0  0
 55271  1  0  0  0  0
 55272  1  0  0  0  0
 55273  1  0  0  0  0
 55274  1  0  0  0  0
 56275  1  0  0  0  0
 56276  1  0  0  0  0
 57277  1  0  0  0  0
 57278  1  0  0  0  0
 57279  1  0  0  0  0
 57280  1  0  0  0  0
 58281  1  0  0  0  0
 59282  1  0  0  0  0
 60283  1  0  0  0  0
 61284  1  0  0  0  0
 62285  1  0  0  0  0
 63286  1  0  0  0  0
 64287  1  0  0  0  0
 65288  1  0  0  0  0
 65289  1  0  0  0  0
 65290  1  0  0  0  0
 66291  1  0  0  0  0
 66292  1  0  0  0  0
 66293  1  0  0  0  0
 66294  1  0  0  0  0
 67295  1  0  0  0  0
 67296  1  0  0  0  0
 67297  1  0  0  0  0
 67298  1  0  0  0  0
 68299  1  0  0  0  0
 68300  1  0  0  0  0
 69301  1  0  0  0  0
 69302  1  0  0  0  0
 69303  1  0  0  0  0
 69304  1  0  0  0  0
 70305  1  0  0  0  0
 70306  1  0  0  0  0
 70307  1  0  0  0  0
 70308  1  0  0  0  0
 71309  1  0  0  0  0
 71310  1  0  0  0  0
 71311  1  0  0  0  0
 71312  1  0  0  0  0
 72313  1  0  0  0  0
 72314  1  0  0  0  0
 72315  1  0  0  0  0
 72316  1  0  0  0  0
 73317  1  0  0  0  0
 74318  1  0  0  0  0
 75319  1  0  0  0  0
 76320  1  0  0  0  0
 77321  1  0  0  0  0
 78322  1  0  0  0  0
 79323  1  0  0  0  0
 80324  1  0  0  0  0
 81325  1  0  0  0  0
 82326  1  0  0  0  0
 83327  1  0  0  0  0
 84328  1  0  0  0  0
 84329  1  0  0  0  0
 84330  1  0  0  0  0
 85331  1  0  0  0  0
 85332  1  0  0  0  0
 85333  1  0  0  0  0
 85334  1  0  0  0  0
 86335  1  0  0  0  0
 86336  1  0  0  0  0
 86337  1  0  0  0  0
 86338  1  0  0  0  0
 87339  1  0  0  0  0
 87340  1  0  0  0  0
 88341  1  0  0  0  0
 88342  1  0  0  0  0
 88343  1  0  0  0  0
 88344  1  0  0  0  0
 89345  1  0  0  0  0
 89346  1  0  0  0  0
 90347  1  0  0  0  0
 90348  1  0  0  0  0
 90349  1  0  0  0  0
 90350  1  0  0  0  0
 91351  1  0  0  0  0
 92352  1  0  0  0  0
 93353  1  0  0  0  0
 94354  1  0  0  0  0
 95355  1  0  0  0  0
 96356  1  0  0  0  0
 97357  1  0  0  0  0
 98358  1  0  0  0  0
 98359  1  0  0  0  0
 98360  1  0  0  0  0
 99361  1  0  0  0  0
 99362  1  0  0  0  0
 99363  1  0  0  0  0
 99364  1  0  0  0  0
100365  1  0  0  0  0
100366  1  0  0  0  0
100367  1  0  0  0  0
100368  1  0  0  0  0
101369  1  0  0  0  0
101370  1  0  0  0  0
102371  1  0  0  0  0
102372  1  0  0  0  0
102373  1  0  0  0  0
102374  1  0  0  0  0
103375  1  0  0  0  0
103376  1  0  0  0  0
103377  1  0  0  0  0
103378  1  0  0  0  0
104379  1  0  0  0  0
104380  1  0  0  0  0
105381  1  0  0  0  0
105382  1  0  0  0  0
106383  1  0  0  0  0
107384  1  0  0  0  0
108385  1  0  0  0  0
109386  1  0  0  0  0
110387  1  0  0  0  0
110388  1  0  0  0  0
110389  1  0  0  0  0
111390  1  0  0  0  0
111391  1  0  0  0  0
111392  1  0  0  0  0
111393  1  0  0  0  0
112394  1  0  0  0  0
112395  1  0  0  0  0
112396  1  0  0  0  0
112397  1  0  0  0  0
113398  1  0  0  0  0
113399  1  0  0  0  0
114400  1  0  0  0  0
114401  1  0  0  0  0
114402  1  0  0  0  0
114403  1  0  0  0  0
115404  1  0  0  0  0
115405  1  0  0  0  0
115406  1  0  0  0  0
115407  1  0  0  0  0
116408  1  0  0  0  0
116409  1  0  0  0  0
116410  1  0  0  0  0
116411  1  0  0  0  0
117412  1  0  0  0  0
117413  1  0  0  0  0
118414  1  0  0  0  0
118415  1  0  0  0  0
118416  1  0  0  0  0
119417  1  0  0  0  0
120418  1  0  0  0  0
121419  1  0  0  0  0
122420  1  0  0  0  0
123421  1  0  0  0  0
124422  1  0  0  0  0
125423  1  0  0  0  0
126424  1  0  0  0  0
127425  1  0  0  0  0
127426  1  0  0  0  0
127427  1  0  0  0  0
128428  1  0  0  0  0
128429  1  0  0  0  0
128430  1  0  0  0  0
128431  1  0  0  0  0
129432  1  0  0  0  0
129433  1  0  0  0  0
129434  1  0  0  0  0
129435  1  0  0  0  0
130436  1  0  0  0  0
130437  1  0  0  0  0
131438  1  0  0  0  0
131439  1  0  0  0  0
131440  1  0  0  0  0
131441  1  0  0  0  0
132442  1  0  0  0  0
132443  1  0  0  0  0
132444  1  0  0  0  0
132445  1  0  0  0  0
133446  1  0  0  0  0
133447  1  0  0  0  0
133448  1  0  0  0  0
133449  1  0  0  0  0
134450  1  0  0  0  0
135451  1  0  0  0  0
136452  1  0  0  0  0
137453  1  0  0  0  0
138454  1  0  0  0  0
139455  1  0  0  0  0
140456  1  0  0  0  0
141457  1  0  0  0  0
142458  1  0  0  0  0
143459  1  0  0  0  0
143460  1  0  0  0  0
144461  1  0  0  0  0
M  END
$$$$
