@<TRIPOS>MOLECULE
*****
 461 461 0 0 0
SMALL
GASTEIGER

@<TRIPOS>ATOM
      1 HNCA       -0.9080    1.9825   -0.1171 H       1  LEU1        0.0614
      2 N           0.0000    1.5760    0.0000 N.3     1  LEU1       -0.4288
      3 CA          0.9300    2.1146    0.9903 C.3     1  LEU1       -0.0690
      4 C           1.9110    1.0237    1.3585 C.3     1  LEU1       -0.0400
      5 O           3.0960    1.3005    1.4422 O.3     1  LEU1       -0.4962
      6 CB          0.2260    2.6179    2.2822 C.3     1  LEU1       -0.0777
      7 CG         -0.8200    3.7540    2.0557 C.3     1  LEU1       -0.0858
      8 CD1        -1.4940    4.1204    3.4077 C.3     1  LEU1       -0.0833
      9 CD2        -0.1940    5.0267    1.4183 C.3     1  LEU1       -0.0833
     10 HA          1.5000    2.9446    0.5419 H       1  LEU1        0.0251
     11 H          -0.9540    1.4165    0.2592 H       1  LEU1        0.0614
     12 HB2         0.9990    2.9809    2.9786 H       1  LEU1        0.0131
     13 HB1        -0.2770    1.7591    2.7518 H       1  LEU1        0.0131
     14 HG         -1.6180    3.3949    1.3836 H       1  LEU1        0.0132
     15 HD13       -1.9700    3.2319    3.8543 H       1  LEU1        0.0103
     16 HD12       -2.2700    4.8859    3.2643 H       1  LEU1        0.0103
     17 HD11       -0.7460    4.5091    4.1172 H       1  LEU1        0.0103
     18 HD23        0.6680    5.3675    2.0142 H       1  LEU1        0.0103
     19 HD22       -0.9350    5.8402    1.3798 H       1  LEU1        0.0103
     20 HD21        0.1350    4.8335    0.3875 H       1  LEU1        0.0103
     21 N           1.4781   -0.2728    1.5522 N.3     2  ALA2       -0.4141
     22 CA          2.4411   -1.3204    1.8734 C.3     2  ALA2       -0.0676
     23 C           3.4411   -1.4234    0.7480 C.3     2  ALA2       -0.0399
     24 O           4.6311   -1.4149    1.0162 O.3     2  ALA2       -0.4962
     25 CB          1.7631   -2.7017    2.0789 C.3     2  ALA2       -0.0770
     26 HA          2.9561   -1.0479    2.8100 H       2  ALA2        0.0251
     27 H           0.5091   -0.5108    1.4772 H       2  ALA2        0.0647
     28 HB3         1.2441   -3.0260    1.1662 H       2  ALA2        0.0112
     29 HB2         1.0291   -2.6408    2.8983 H       2  ALA2        0.0112
     30 HB1         2.5191   -3.4587    2.3402 H       2  ALA2        0.0112
     31 N           2.9562   -1.4816   -0.5373 N.3     3  PHE3       -0.4140
     32 CA          4.2032   -1.5580   -1.2935 C.3     3  PHE3       -0.0667
     33 C           4.5312   -0.2288   -1.9315 C.3     3  PHE3       -0.0397
     34 O           3.7862    0.7802   -1.7947 O.3     3  PHE3       -0.4962
     35 CB          4.0852   -2.6396   -2.4096 C.3     3  PHE3       -0.0760
     36 CG          3.7512   -4.0662   -1.9486 C.3     3  PHE3       -0.0819
     37 CD1         2.4132   -4.4545   -1.8201 C.3     3  PHE3       -0.0817
     38 CD2         4.7652   -4.9606   -1.5993 C.3     3  PHE3       -0.0817
     39 CE1         2.0932   -5.7153   -1.3255 C.3     3  PHE3       -0.0825
     40 CE2         4.4452   -6.2262   -1.1194 C.3     3  PHE3       -0.0825
     41 CZ          3.1092   -6.6031   -0.9770 C.3     3  PHE3       -0.0826
     42 H           2.3792   -0.5701   -0.4733 H       3  PHE3        0.0647
     43 HA          5.0262   -1.8185   -0.6004 H       3  PHE3        0.0253
     44 HB1         3.3312   -2.3175   -3.1591 H       3  PHE3        0.0133
     45 HB2         5.0282   -2.6709   -2.9911 H       3  PHE3        0.0133
     46 HD1         1.6182   -3.7595   -2.0582 H       3  PHE3        0.0143
     47 HD2         5.8022   -4.6674   -1.6873 H       3  PHE3        0.0143
     48 HE1         1.0582   -5.9947   -1.2020 H       3  PHE3        0.0141
     49 HE2         5.2322   -6.9132   -0.8398 H       3  PHE3        0.0141
     50 HZ          2.8592   -7.5790   -0.5915 H       3  PHE3        0.0141
     51 N           4.4343    0.7856   -1.3662 N.3     4  THR4       -0.4128
     52 CA          5.6623    1.5745   -1.3423 C.3     4  THR4       -0.0582
     53 C           6.0773    1.8865    0.0756 C.3     4  THR4       -0.0384
     54 O           5.4343    1.5041    1.0335 O.3     4  THR4       -0.4961
     55 CB          5.4853    2.8932   -2.1675 C.3     4  THR4       -0.0691
     56 OG1         5.2063    2.5946   -3.5301 O.3     4  THR4       -0.5751
     57 CG2         6.7073    3.8361   -2.2217 C.3     4  THR4       -0.0742
     58 H           3.9273    0.4882   -0.4603 H       4  THR4        0.0648
     59 HA          6.4713    0.9747   -1.7978 H       4  THR4        0.0269
     60 HB          4.6263    3.4575   -1.7475 H       4  THR4        0.0316
     61 HG1         5.0403    3.4380   -3.9610 H       4  THR4        0.1245
     62 HG21        6.5143    4.7318   -2.8426 H       4  THR4        0.0118
     63 HG22        6.9913    4.2173   -1.2263 H       4  THR4        0.0118
     64 HG23        7.5973    3.3310   -2.6443 H       4  THR4        0.0118
     65 N           5.9124    1.2097    1.0102 N.3     5  ILE5       -0.4138
     66 CA          7.1614    1.0180    1.7413 C.3     5  ILE5       -0.0664
     67 C           7.4744   -0.4497    1.9036 C.3     5  ILE5       -0.0396
     68 O           8.6804   -0.7607    2.6063 O.3     5  ILE5       -0.4962
     69 CB          7.1364    1.7727    3.1321 C.3     5  ILE5       -0.0795
     70 CG1         6.7444    3.2817    3.0497 C.3     5  ILE5       -0.0838
     71 CG2         8.4884    1.6649    3.9049 C.3     5  ILE5       -0.0823
     72 CD1         6.3954    3.9616    4.3911 C.3     5  ILE5       -0.0836
     73 H           5.3254    0.3773    0.6528 H       5  ILE5        0.0647
     74 HA          7.9764    1.4465    1.1291 H       5  ILE5        0.0254
     75 HB          6.3584    1.2720    3.7501 H       5  ILE5        0.0145
     76 HG11        7.5324    3.8550    2.5244 H       5  ILE5        0.0118
     77 HG12        5.8474    3.3944    2.4119 H       5  ILE5        0.0118
     78 HG21        8.4444    2.1462    4.8974 H       5  ILE5        0.0103
     79 HG22        8.7874    0.6222    4.1162 H       5  ILE5        0.0103
     80 HG23        9.3204    2.1400    3.3533 H       5  ILE5        0.0103
     81 HD11        6.0594    5.0060    4.2317 H       5  ILE5        0.0101
     82 HD12        5.5794    3.4362    4.9162 H       5  ILE5        0.0101
     83 HD13        7.2584    4.0077    5.0793 H       5  ILE5        0.0101
     84 N           7.3905   -1.2043    1.0166 N.3     6  THR6       -0.4128
     85 CA          8.6185   -1.9378    0.7251 C.3     6  THR6       -0.0582
     86 C           9.0335   -1.7477   -0.7142 C.3     6  THR6       -0.0384
     87 O           8.3905   -1.0617   -1.4844 O.3     6  THR6       -0.4961
     88 CB          8.4415   -3.4588    1.0513 C.3     6  THR6       -0.0691
     89 OG1         8.1625   -3.6426    2.4341 O.3     6  THR6       -0.5751
     90 CG2         9.6635   -4.3637    0.7809 C.3     6  THR6       -0.0742
     91 H           6.8835   -0.6159    0.2663 H       6  THR6        0.0648
     92 HA          9.4275   -1.5292    1.3578 H       6  THR6        0.0269
     93 HB          7.5825   -3.8461    0.4641 H       6  THR6        0.0316
     94 HG1         7.9965   -4.5825    2.5517 H       6  THR6        0.1245
     95 HG21        9.4705   -5.4174    1.0592 H       6  THR6        0.0118
     96 HG22        9.9475   -4.3827   -0.2849 H       6  THR6        0.0118
     97 HG23       10.5535   -4.0330    1.3503 H       6  THR6        0.0118
     98 N           8.8686   -0.7928   -1.3621 N.3     7  ASP7       -0.4138
     99 CA         10.1456   -0.2906   -1.9343 C.3     7  ASP7       -0.0639
    100 C          10.5256    1.2177   -1.7244 C.3     7  ASP7       -0.0397
    101 O           9.8736    2.0108   -1.0853 O.3     7  ASP7       -0.4962
    102 CB         10.0836   -0.6870   -3.4217 C.3     7  ASP7       -0.0541
    103 CG         11.4316   -0.6686   -4.1930 C.3     7  ASP7       -0.0130
    104 OD1        12.4556   -0.6277   -3.5063 O.3     7  ASP7       -0.4890
    105 OD2        11.3146   -0.7146   -5.4181 O.3     7  ASP7       -0.4890
    106 H           8.4086   -0.0728   -0.8238 H       7  ASP7        0.0647
    107 HA         10.9546   -0.8756   -1.4537 H       7  ASP7        0.0254
    108 HB1         9.7266   -1.7271   -3.5112 H       7  ASP7        0.0166
    109 HB2         9.3496   -0.0761   -3.9753 H       7  ASP7        0.0166
    110 N          10.3467    1.4787   -0.5451 N.3     8  GLN8       -0.4140
    111 CA         11.2787    2.2787    0.2466 C.3     8  GLN8       -0.0669
    112 C          12.2917    1.3628    0.8906 C.3     8  GLN8       -0.0398
    113 O          13.4807    1.6121    0.7664 O.3     8  GLN8       -0.4962
    114 CB         10.5807    3.1016    1.3658 C.3     8  GLN8       -0.0756
    115 CG          9.7537    4.2963    0.8210 C.3     8  GLN8       -0.0667
    116 CD          8.8127    4.9361    1.8231 C.3     8  GLN8       -0.0461
    117 OE1         7.8387    5.5237    1.3741 O.3     8  GLN8       -0.4974
    118 NE2         9.0407    4.8721    3.1560 N.3     8  GLN8       -0.4173
    119 HA         11.8057    2.9646   -0.4395 H       8  GLN8        0.0253
    120 H           9.3667    1.5737   -0.3804 H       8  GLN8        0.0647
    121 HB2        11.3587    3.4983    2.0347 H       8  GLN8        0.0130
    122 HB1         9.9287    2.4389    1.9554 H       8  GLN8        0.0130
    123 HG2         9.1487    3.9419   -0.0244 H       8  GLN8        0.0148
    124 HG1        10.4367    5.0693    0.4361 H       8  GLN8        0.0148
    125 HE21        9.8347    4.4065    3.5474 H       8  GLN8        0.0629
    126 HE22        8.3917    5.3094    3.7809 H       8  GLN8        0.0629
    127 N          11.8248    0.2810    1.5507 N.3     9  VAL9       -0.4133
    128 CA         13.0708   -0.3346    2.0002 C.3     9  VAL9       -0.0612
    129 C          13.4038   -1.5506    1.1691 C.3     9  VAL9       -0.0237
    130 O          12.6788   -1.9301    0.2406 O.3     9  VAL9       -0.4897
    131 CB         12.9618   -0.7110    3.5301 C.3     9  VAL9       -0.0794
    132 CG1        12.8148    0.5128    4.4687 C.3     9  VAL9       -0.0824
    133 CG2        14.1338   -1.5452    4.1208 C.3     9  VAL9       -0.0824
    134 H          11.2528   -0.1201    0.7271 H       9  VAL9        0.0648
    135 HA         13.8948    0.3891    1.8597 H       9  VAL9        0.0262
    136 HB         12.0448   -1.3276    3.6511 H       9  VAL9        0.0144
    137 HG11       13.7168    1.1513    4.4670 H       9  VAL9        0.0103
    138 HG12       11.9598    1.1497    4.1829 H       9  VAL9        0.0103
    139 HG13       12.6308    0.2056    5.5162 H       9  VAL9        0.0103
    140 HG21       15.1068   -1.0244    4.0329 H       9  VAL9        0.0103
    141 HG22       13.9828   -1.7774    5.1933 H       9  VAL9        0.0103
    142 HG23       14.2438   -2.5281    3.6268 H       9  VAL9        0.0103
    143 OXT        13.3418   -1.6083    0.1468 O.3     9  VAL9       -0.5604
    144 HOCA       14.0328   -1.8847   -0.4472 H       9  VAL9        0.1259
    145 H          -0.2880    1.9825   -0.1171 H       1  LEU1        0.0127
    146 H           1.0200    1.5760    0.0000 H       1  LEU1        0.0735
    147 H          -0.3400    0.8303   -0.6073 H       1  LEU1        0.0735
    148 H          -0.3400    2.4747   -0.3421 H       1  LEU1        0.0735
    149 H           2.0000    2.1146    0.9903 H       1  LEU1        0.0283
    150 H           0.5733    1.3324    0.3533 H       1  LEU1        0.0283
    151 H           0.5733    3.0574    0.6314 H       1  LEU1        0.0283
    152 H           0.5733    1.9540    1.9863 H       1  LEU1        0.0283
    153 H           2.9810    1.0237    1.3585 H       1  LEU1        0.0521
    154 H           1.5543    0.2415    0.7214 H       1  LEU1        0.0521
    155 H           1.5543    1.9665    0.9996 H       1  LEU1        0.0521
    156 H           1.5543    0.8631    2.3544 H       1  LEU1        0.0521
    157 H           4.0660    1.3005    1.4422 H       1  LEU1        0.1715
    158 H           2.7727    0.5914    0.8647 H       1  LEU1        0.1715
    159 H           1.2960    2.6179    2.2822 H       1  LEU1        0.0153
    160 H          -0.1307    1.8357    1.6452 H       1  LEU1        0.0153
    161 H          -0.1307    3.5607    1.9233 H       1  LEU1        0.0153
    162 H          -0.1307    2.4573    3.2781 H       1  LEU1        0.0153
    163 H           0.2500    3.7540    2.0557 H       1  LEU1        0.0156
    164 H          -1.1767    2.9718    1.4186 H       1  LEU1        0.0156
    165 H          -1.1767    4.6968    1.6968 H       1  LEU1        0.0156
    166 H          -1.1767    3.5934    3.0516 H       1  LEU1        0.0156
    167 H          -0.4240    4.1204    3.4077 H       1  LEU1        0.0123
    168 H          -1.8507    3.3382    2.7706 H       1  LEU1        0.0123
    169 H          -1.8507    5.0633    3.0488 H       1  LEU1        0.0123
    170 H          -1.8507    3.9599    4.4036 H       1  LEU1        0.0123
    171 H           0.8760    5.0267    1.4183 H       1  LEU1        0.0123
    172 H          -0.5507    4.2445    0.7812 H       1  LEU1        0.0123
    173 H          -0.5507    5.9696    1.0594 H       1  LEU1        0.0123
    174 H          -0.5507    4.8662    2.4142 H       1  LEU1        0.0123
    175 H           2.1200    2.9446    0.5419 H       1  LEU1        0.0033
    176 H          -0.3340    1.4165    0.2592 H       1  LEU1        0.0127
    177 H           1.6190    2.9809    2.9786 H       1  LEU1        0.0024
    178 H           0.3430    1.7591    2.7518 H       1  LEU1        0.0024
    179 H          -0.9980    3.3949    1.3836 H       1  LEU1        0.0025
    180 H          -1.3500    3.2319    3.8543 H       1  LEU1        0.0022
    181 H          -1.6500    4.8859    3.2643 H       1  LEU1        0.0022
    182 H          -0.1260    4.5091    4.1172 H       1  LEU1        0.0022
    183 H           1.2880    5.3675    2.0142 H       1  LEU1        0.0022
    184 H          -0.3150    5.8402    1.3798 H       1  LEU1        0.0022
    185 H           0.7550    4.8335    0.3875 H       1  LEU1        0.0022
    186 H           2.4981   -0.2728    1.5522 H       2  ALA2        0.0770
    187 H           1.1381   -1.0184    0.9449 H       2  ALA2        0.0770
    188 H           1.1381    0.6260    1.2101 H       2  ALA2        0.0770
    189 H           3.5111   -1.3204    1.8734 H       2  ALA2        0.0283
    190 H           2.0844   -2.1026    1.2364 H       2  ALA2        0.0283
    191 H           2.0844   -0.3776    1.5145 H       2  ALA2        0.0283
    192 H           2.0844   -1.4810    2.8694 H       2  ALA2        0.0283
    193 H           4.5111   -1.4234    0.7480 H       2  ALA2        0.0521
    194 H           3.0844   -2.2056    0.1110 H       2  ALA2        0.0521
    195 H           3.0844   -0.4806    0.3891 H       2  ALA2        0.0521
    196 H           3.0844   -1.5840    1.7440 H       2  ALA2        0.0521
    197 H           5.6011   -1.4149    1.0162 H       2  ALA2        0.1715
    198 H           4.3078   -2.1240    0.4387 H       2  ALA2        0.1715
    199 H           2.8331   -2.7017    2.0789 H       2  ALA2        0.0133
    200 H           1.4064   -3.4839    1.4419 H       2  ALA2        0.0133
    201 H           1.4064   -1.7589    1.7200 H       2  ALA2        0.0133
    202 H           1.4064   -2.8623    3.0749 H       2  ALA2        0.0133
    203 H           3.5761   -1.0479    2.8100 H       2  ALA2        0.0033
    204 H           1.1291   -0.5108    1.4772 H       2  ALA2        0.0128
    205 H           1.8641   -3.0260    1.1662 H       2  ALA2        0.0023
    206 H           1.6491   -2.6408    2.8983 H       2  ALA2        0.0023
    207 H           3.1391   -3.4587    2.3402 H       2  ALA2        0.0023
    208 H           3.9762   -1.4816   -0.5373 H       3  PHE3        0.0770
    209 H           2.6162   -2.2273   -1.1446 H       3  PHE3        0.0770
    210 H           2.6162   -0.5828   -0.8794 H       3  PHE3        0.0770
    211 H           5.2732   -1.5580   -1.2935 H       3  PHE3        0.0284
    212 H           3.8465   -2.3403   -1.9305 H       3  PHE3        0.0284
    213 H           3.8465   -0.6152   -1.6524 H       3  PHE3        0.0284
    214 H           3.8465   -1.7186   -0.2976 H       3  PHE3        0.0284
    215 H           5.6012   -0.2288   -1.9315 H       3  PHE3        0.0521
    216 H           4.1745   -1.0110   -2.5685 H       3  PHE3        0.0521
    217 H           4.1745    0.7140   -2.2904 H       3  PHE3        0.0521
    218 H           4.1745   -0.3894   -0.9356 H       3  PHE3        0.0521
    219 H           4.7562    0.7802   -1.7947 H       3  PHE3        0.1715
    220 H           3.4629    0.0711   -2.3722 H       3  PHE3        0.1715
    221 H           5.1552   -2.6396   -2.4096 H       3  PHE3        0.0156
    222 H           3.7285   -3.4218   -3.0467 H       3  PHE3        0.0156
    223 H           3.7285   -1.6968   -2.7685 H       3  PHE3        0.0156
    224 H           3.7285   -2.8001   -1.4137 H       3  PHE3        0.0156
    225 H           4.8212   -4.0662   -1.9486 H       3  PHE3        0.0186
    226 H           3.3945   -4.8484   -2.5857 H       3  PHE3        0.0186
    227 H           3.3945   -3.1234   -2.3075 H       3  PHE3        0.0186
    228 H           3.3945   -4.2268   -0.9527 H       3  PHE3        0.0186
    229 H           3.4832   -4.4545   -1.8201 H       3  PHE3        0.0167
    230 H           2.0565   -5.2367   -2.4571 H       3  PHE3        0.0167
    231 H           2.0565   -3.5117   -2.1790 H       3  PHE3        0.0167
    232 H           2.0565   -4.6151   -0.8241 H       3  PHE3        0.0167
    233 H           5.8352   -4.9606   -1.5993 H       3  PHE3        0.0167
    234 H           4.4085   -5.7428   -2.2364 H       3  PHE3        0.0167
    235 H           4.4085   -4.0177   -1.9582 H       3  PHE3        0.0167
    236 H           4.4085   -5.1211   -0.6034 H       3  PHE3        0.0167
    237 H           3.1632   -5.7153   -1.3255 H       3  PHE3        0.0165
    238 H           1.7365   -6.4975   -1.9625 H       3  PHE3        0.0165
    239 H           1.7365   -4.7725   -1.6844 H       3  PHE3        0.0165
    240 H           1.7365   -5.8759   -0.3295 H       3  PHE3        0.0165
    241 H           5.5152   -6.2262   -1.1194 H       3  PHE3        0.0165
    242 H           4.0885   -7.0084   -1.7564 H       3  PHE3        0.0165
    243 H           4.0885   -5.2834   -1.4783 H       3  PHE3        0.0165
    244 H           4.0885   -6.3868   -0.1234 H       3  PHE3        0.0165
    245 H           4.1792   -6.6031   -0.9770 H       3  PHE3        0.0165
    246 H           2.7525   -7.3853   -1.6140 H       3  PHE3        0.0165
    247 H           2.7525   -5.6603   -1.3358 H       3  PHE3        0.0165
    248 H           2.7525   -6.7637    0.0190 H       3  PHE3        0.0165
    249 H           2.9992   -0.5701   -0.4733 H       3  PHE3        0.0128
    250 H           5.6462   -1.8185   -0.6004 H       3  PHE3        0.0033
    251 H           3.9512   -2.3175   -3.1591 H       3  PHE3        0.0024
    252 H           5.6482   -2.6709   -2.9911 H       3  PHE3        0.0024
    253 H           2.2382   -3.7595   -2.0582 H       3  PHE3        0.0025
    254 H           6.4222   -4.6674   -1.6873 H       3  PHE3        0.0025
    255 H           1.6782   -5.9947   -1.2020 H       3  PHE3        0.0025
    256 H           5.8522   -6.9132   -0.8398 H       3  PHE3        0.0025
    257 H           3.4792   -7.5790   -0.5915 H       3  PHE3        0.0025
    258 H           5.4543    0.7856   -1.3662 H       4  THR4        0.0770
    259 H           4.0943    0.0399   -1.9735 H       4  THR4        0.0770
    260 H           4.0943    1.6843   -1.7084 H       4  THR4        0.0770
    261 H           6.7323    1.5745   -1.3423 H       4  THR4        0.0302
    262 H           5.3056    0.7923   -1.9794 H       4  THR4        0.0302
    263 H           5.3056    2.5173   -1.7012 H       4  THR4        0.0302
    264 H           5.3056    1.4139   -0.3464 H       4  THR4        0.0302
    265 H           7.1473    1.8865    0.0756 H       4  THR4        0.0522
    266 H           5.7206    1.1043   -0.5615 H       4  THR4        0.0522
    267 H           5.7206    2.8293   -0.2833 H       4  THR4        0.0522
    268 H           5.7206    1.7259    1.0715 H       4  THR4        0.0522
    269 H           6.4043    1.5041    1.0335 H       4  THR4        0.1715
    270 H           5.1110    0.7950    0.4560 H       4  THR4        0.1715
    271 H           6.5553    2.8932   -2.1675 H       4  THR4        0.0353
    272 H           5.1286    2.1109   -2.8045 H       4  THR4        0.0353
    273 H           5.1286    3.8360   -2.5263 H       4  THR4        0.0353
    274 H           5.1286    2.7326   -1.1715 H       4  THR4        0.0353
    275 H           6.1763    2.5946   -3.5301 H       4  THR4        0.1457
    276 H           4.8830    1.8855   -4.1076 H       4  THR4        0.1457
    277 H           7.7773    3.8361   -2.2217 H       4  THR4        0.0139
    278 H           6.3506    3.0538   -2.8588 H       4  THR4        0.0139
    279 H           6.3506    4.7789   -2.5806 H       4  THR4        0.0139
    280 H           6.3506    3.6755   -1.2258 H       4  THR4        0.0139
    281 H           4.5473    0.4882   -0.4603 H       4  THR4        0.0128
    282 H           7.0913    0.9747   -1.7978 H       4  THR4        0.0034
    283 H           5.2463    3.4575   -1.7475 H       4  THR4        0.0038
    284 H           5.6603    3.4380   -3.9610 H       4  THR4        0.0220
    285 H           7.1343    4.7318   -2.8426 H       4  THR4        0.0023
    286 H           7.6113    4.2173   -1.2263 H       4  THR4        0.0023
    287 H           8.2173    3.3310   -2.6443 H       4  THR4        0.0023
    288 H           6.9324    1.2097    1.0102 H       5  ILE5        0.0770
    289 H           5.5724    0.4640    0.4029 H       5  ILE5        0.0770
    290 H           5.5724    2.1084    0.6681 H       5  ILE5        0.0770
    291 H           8.2314    1.0180    1.7413 H       5  ILE5        0.0286
    292 H           6.8047    0.2357    1.1042 H       5  ILE5        0.0286
    293 H           6.8047    1.9608    1.3824 H       5  ILE5        0.0286
    294 H           6.8047    0.8574    2.7372 H       5  ILE5        0.0286
    295 H           8.5444   -0.4497    1.9036 H       5  ILE5        0.0521
    296 H           7.1177   -1.2319    1.2666 H       5  ILE5        0.0521
    297 H           7.1177    0.4931    1.5447 H       5  ILE5        0.0521
    298 H           7.1177   -0.6103    2.8995 H       5  ILE5        0.0521
    299 H           9.6504   -0.7607    2.6063 H       5  ILE5        0.1715
    300 H           8.3571   -1.4698    2.0287 H       5  ILE5        0.1715
    301 H           8.2064    1.7727    3.1321 H       5  ILE5        0.0169
    302 H           6.7797    0.9905    2.4951 H       5  ILE5        0.0169
    303 H           6.7797    2.7155    2.7733 H       5  ILE5        0.0169
    304 H           6.7797    1.6121    4.1281 H       5  ILE5        0.0169
    305 H           7.8144    3.2817    3.0497 H       5  ILE5        0.0141
    306 H           6.3877    2.4995    2.4127 H       5  ILE5        0.0141
    307 H           6.3877    4.2245    2.6908 H       5  ILE5        0.0141
    308 H           6.3877    3.1211    4.0457 H       5  ILE5        0.0141
    309 H           9.5584    1.6649    3.9049 H       5  ILE5        0.0124
    310 H           8.1317    0.8827    3.2678 H       5  ILE5        0.0124
    311 H           8.1317    2.6077    3.5460 H       5  ILE5        0.0124
    312 H           8.1317    1.5043    4.9008 H       5  ILE5        0.0124
    313 H           7.4654    3.9616    4.3911 H       5  ILE5        0.0122
    314 H           6.0387    3.1793    3.7540 H       5  ILE5        0.0122
    315 H           6.0387    4.9044    4.0322 H       5  ILE5        0.0122
    316 H           6.0387    3.8010    5.3870 H       5  ILE5        0.0122
    317 H           5.9454    0.3773    0.6528 H       5  ILE5        0.0128
    318 H           8.5964    1.4465    1.1291 H       5  ILE5        0.0033
    319 H           6.9784    1.2720    3.7501 H       5  ILE5        0.0026
    320 H           8.1524    3.8550    2.5244 H       5  ILE5        0.0024
    321 H           6.4674    3.3944    2.4119 H       5  ILE5        0.0024
    322 H           9.0644    2.1462    4.8974 H       5  ILE5        0.0022
    323 H           9.4074    0.6222    4.1162 H       5  ILE5        0.0022
    324 H           9.9404    2.1400    3.3533 H       5  ILE5        0.0022
    325 H           6.6794    5.0060    4.2317 H       5  ILE5        0.0022
    326 H           6.1994    3.4362    4.9162 H       5  ILE5        0.0022
    327 H           7.8784    4.0077    5.0793 H       5  ILE5        0.0022
    328 H           8.4105   -1.2043    1.0166 H       6  THR6        0.0770
    329 H           7.0505   -1.9500    0.4093 H       6  THR6        0.0770
    330 H           7.0505   -0.3055    0.6745 H       6  THR6        0.0770
    331 H           9.6885   -1.9378    0.7251 H       6  THR6        0.0302
    332 H           8.2618   -2.7200    0.0881 H       6  THR6        0.0302
    333 H           8.2618   -0.9950    0.3662 H       6  THR6        0.0302
    334 H           8.2618   -2.0984    1.7211 H       6  THR6        0.0302
    335 H          10.1035   -1.7477   -0.7142 H       6  THR6        0.0522
    336 H           8.6768   -2.5299   -1.3512 H       6  THR6        0.0522
    337 H           8.6768   -0.8049   -1.0731 H       6  THR6        0.0522
    338 H           8.6768   -1.9083    0.2818 H       6  THR6        0.0522
    339 H           9.3605   -1.0617   -1.4844 H       6  THR6        0.1715
    340 H           8.0672   -1.7708   -2.0619 H       6  THR6        0.1715
    341 H           9.5115   -3.4588    1.0513 H       6  THR6        0.0353
    342 H           8.0848   -4.2410    0.4142 H       6  THR6        0.0353
    343 H           8.0848   -2.5160    0.6924 H       6  THR6        0.0353
    344 H           8.0848   -3.6193    2.0472 H       6  THR6        0.0353
    345 H           9.1325   -3.6426    2.4341 H       6  THR6        0.1457
    346 H           7.8392   -4.3517    1.8565 H       6  THR6        0.1457
    347 H          10.7335   -4.3637    0.7809 H       6  THR6        0.0139
    348 H           9.3068   -5.1459    0.1438 H       6  THR6        0.0139
    349 H           9.3068   -3.4209    0.4220 H       6  THR6        0.0139
    350 H           9.3068   -4.5243    1.7768 H       6  THR6        0.0139
    351 H           7.5035   -0.6159    0.2663 H       6  THR6        0.0128
    352 H          10.0475   -1.5292    1.3578 H       6  THR6        0.0034
    353 H           8.2025   -3.8461    0.4641 H       6  THR6        0.0038
    354 H           8.6165   -4.5825    2.5517 H       6  THR6        0.0220
    355 H          10.0905   -5.4174    1.0592 H       6  THR6        0.0023
    356 H          10.5675   -4.3827   -0.2849 H       6  THR6        0.0023
    357 H          11.1735   -4.0330    1.3503 H       6  THR6        0.0023
    358 H           9.8886   -0.7928   -1.3621 H       7  ASP7        0.0770
    359 H           8.5286   -1.5385   -1.9693 H       7  ASP7        0.0770
    360 H           8.5286    0.1059   -1.7042 H       7  ASP7        0.0770
    361 H          11.2156   -0.2906   -1.9343 H       7  ASP7        0.0286
    362 H           9.7889   -1.0728   -2.5713 H       7  ASP7        0.0286
    363 H           9.7889    0.6522   -2.2932 H       7  ASP7        0.0286
    364 H           9.7889   -0.4512   -0.9383 H       7  ASP7        0.0286
    365 H          11.5956    1.2177   -1.7244 H       7  ASP7        0.0521
    366 H          10.1689    0.4355   -2.3614 H       7  ASP7        0.0521
    367 H          10.1689    2.1605   -2.0833 H       7  ASP7        0.0521
    368 H          10.1689    1.0571   -0.7284 H       7  ASP7        0.0521
    369 H          10.8436    2.0108   -1.0853 H       7  ASP7        0.1715
    370 H           9.5503    1.3017   -1.6628 H       7  ASP7        0.1715
    371 H          11.1536   -0.6870   -3.4217 H       7  ASP7        0.0190
    372 H           9.7269   -1.4692   -4.0588 H       7  ASP7        0.0190
    373 H           9.7269    0.2558   -3.7806 H       7  ASP7        0.0190
    374 H           9.7269   -0.8476   -2.4258 H       7  ASP7        0.0190
    375 H          12.5016   -0.6686   -4.1930 H       7  ASP7        0.0632
    376 H          11.0749   -1.4509   -4.8301 H       7  ASP7        0.0632
    377 H          11.0749    0.2742   -4.5519 H       7  ASP7        0.0632
    378 H          11.0749   -0.8292   -3.1971 H       7  ASP7        0.0632
    379 H          13.4256   -0.6277   -3.5063 H       7  ASP7        0.1721
    380 H          12.1323   -1.3368   -4.0838 H       7  ASP7        0.1721
    381 H          12.2846   -0.7146   -5.4181 H       7  ASP7        0.1721
    382 H          10.9913   -1.4237   -5.9956 H       7  ASP7        0.1721
    383 H           9.0286   -0.0728   -0.8238 H       7  ASP7        0.0128
    384 H          11.5746   -0.8756   -1.4537 H       7  ASP7        0.0033
    385 H          10.3466   -1.7271   -3.5112 H       7  ASP7        0.0025
    386 H           9.9696   -0.0761   -3.9753 H       7  ASP7        0.0025
    387 H          11.3667    1.4787   -0.5451 H       8  GLN8        0.0770
    388 H          10.0067    0.7331   -1.1524 H       8  GLN8        0.0770
    389 H          10.0067    2.3775   -0.8873 H       8  GLN8        0.0770
    390 H          12.3487    2.2787    0.2466 H       8  GLN8        0.0284
    391 H          10.9220    1.4965   -0.3904 H       8  GLN8        0.0284
    392 H          10.9220    3.2215   -0.1123 H       8  GLN8        0.0284
    393 H          10.9220    2.1181    1.2426 H       8  GLN8        0.0284
    394 H          13.3617    1.3628    0.8906 H       8  GLN8        0.0521
    395 H          11.9350    0.5806    0.2535 H       8  GLN8        0.0521
    396 H          11.9350    2.3056    0.5317 H       8  GLN8        0.0521
    397 H          11.9350    1.2022    1.8865 H       8  GLN8        0.0521
    398 H          14.4507    1.6121    0.7664 H       8  GLN8        0.1715
    399 H          13.1574    0.9030    0.1889 H       8  GLN8        0.1715
    400 H          11.6507    3.1016    1.3658 H       8  GLN8        0.0153
    401 H          10.2240    2.3194    0.7288 H       8  GLN8        0.0153
    402 H          10.2240    4.0444    1.0069 H       8  GLN8        0.0153
    403 H          10.2240    2.9410    2.3618 H       8  GLN8        0.0153
    404 H          10.8237    4.2963    0.8210 H       8  GLN8        0.0171
    405 H           9.3970    3.5141    0.1839 H       8  GLN8        0.0171
    406 H           9.3970    5.2391    0.4621 H       8  GLN8        0.0171
    407 H           9.3970    4.1357    1.8169 H       8  GLN8        0.0171
    408 H           9.8827    4.9361    1.8231 H       8  GLN8        0.0509
    409 H           8.4560    4.1539    1.1861 H       8  GLN8        0.0509
    410 H           8.4560    5.8789    1.4643 H       8  GLN8        0.0509
    411 H           8.4560    4.7755    2.8191 H       8  GLN8        0.0509
    412 H           8.8087    5.5237    1.3741 H       8  GLN8        0.1715
    413 H           7.5154    4.8146    0.7965 H       8  GLN8        0.1715
    414 H          10.0607    4.8721    3.1560 H       8  GLN8        0.0750
    415 H           8.7007    4.1264    2.5488 H       8  GLN8        0.0750
    416 H           8.7007    5.7709    2.8139 H       8  GLN8        0.0750
    417 H          12.4257    2.9646   -0.4395 H       8  GLN8        0.0033
    418 H           9.9867    1.5737   -0.3804 H       8  GLN8        0.0128
    419 H          11.9787    3.4983    2.0347 H       8  GLN8        0.0024
    420 H          10.5487    2.4389    1.9554 H       8  GLN8        0.0024
    421 H           9.7687    3.9419   -0.0244 H       8  GLN8        0.0025
    422 H          11.0567    5.0693    0.4361 H       8  GLN8        0.0025
    423 H          10.4547    4.4065    3.5474 H       8  GLN8        0.0127
    424 H           9.0117    5.3094    3.7809 H       8  GLN8        0.0127
    425 H          12.8448    0.2810    1.5507 H       9  VAL9        0.0770
    426 H          11.4848   -0.4647    0.9435 H       9  VAL9        0.0770
    427 H          11.4848    1.1797    1.2086 H       9  VAL9        0.0770
    428 H          14.1408   -0.3346    2.0002 H       9  VAL9        0.0294
    429 H          12.7141   -1.1168    1.3632 H       9  VAL9        0.0294
    430 H          12.7141    0.6082    1.6413 H       9  VAL9        0.0294
    431 H          12.7141   -0.4952    2.9961 H       9  VAL9        0.0294
    432 H          14.4738   -1.5506    1.1691 H       9  VAL9        0.0625
    433 H          13.0471   -2.3328    0.5321 H       9  VAL9        0.0625
    434 H          13.0471   -0.6078    0.8103 H       9  VAL9        0.0625
    435 H          13.0471   -1.7112    2.1651 H       9  VAL9        0.0625
    436 H          13.6488   -1.9301    0.2406 H       9  VAL9        0.1721
    437 H          12.3555   -2.6392   -0.3369 H       9  VAL9        0.1721
    438 H          14.0318   -0.7110    3.5301 H       9  VAL9        0.0168
    439 H          12.6051   -1.4932    2.8931 H       9  VAL9        0.0168
    440 H          12.6051    0.2318    3.1712 H       9  VAL9        0.0168
    441 H          12.6051   -0.8716    4.5260 H       9  VAL9        0.0168
    442 H          13.8848    0.5128    4.4687 H       9  VAL9        0.0124
    443 H          12.4581   -0.2695    3.8316 H       9  VAL9        0.0124
    444 H          12.4581    1.4556    4.1098 H       9  VAL9        0.0124
    445 H          12.4581    0.3522    5.4646 H       9  VAL9        0.0124
    446 H          15.2038   -1.5452    4.1208 H       9  VAL9        0.0124
    447 H          13.7771   -2.3274    3.4838 H       9  VAL9        0.0124
    448 H          13.7771   -0.6024    3.7619 H       9  VAL9        0.0124
    449 H          13.7771   -1.7058    5.1168 H       9  VAL9        0.0124
    450 H          11.8728   -0.1201    0.7271 H       9  VAL9        0.0128
    451 H          14.5148    0.3891    1.8597 H       9  VAL9        0.0033
    452 H          12.6648   -1.3276    3.6511 H       9  VAL9        0.0025
    453 H          14.3368    1.1513    4.4670 H       9  VAL9        0.0022
    454 H          12.5798    1.1497    4.1829 H       9  VAL9        0.0022
    455 H          13.2508    0.2056    5.5162 H       9  VAL9        0.0022
    456 H          15.7268   -1.0244    4.0329 H       9  VAL9        0.0022
    457 H          14.6028   -1.7774    5.1933 H       9  VAL9        0.0022
    458 H          14.8638   -2.5281    3.6268 H       9  VAL9        0.0022
    459 H          14.3118   -1.6083    0.1468 H       9  VAL9        0.1472
    460 H          13.0185   -2.3174   -0.4307 H       9  VAL9        0.1472
    461 H          14.6528   -1.8847   -0.4472 H       9  VAL9        0.0221
@<TRIPOS>BOND
     1     1     2    1
     2     2    11    1
     3     2     3    1
     4    20     9    1
     5    10     3    1
     6     3     4    1
     7     3     6    1
     8     4     5    2
     9    19     9    1
    10    14     7    1
    11     9    18    1
    12     9     7    1
    13     7     6    1
    14     7     8    1
    15     6    13    1
    16     6    12    1
    17    16     8    1
    18     8    15    1
    19     8    17    1
    20     4    21    1
    21    21    27    1
    22    21    22    1
    23    26    22    1
    24    22    23    1
    25    22    25    1
    26    24    23    2
    27    29    25    1
    28    25    28    1
    29    25    30    1
    30    23    31    1
    31    50    41    1
    32    49    40    1
    33    41    40    2
    34    41    39    1
    35    40    38    1
    36    48    39    1
    37    39    37    2
    38    38    47    1
    39    38    36    2
    40    43    32    1
    41    31    42    1
    42    31    32    1
    43    37    36    1
    44    37    46    1
    45    36    35    1
    46    32    35    1
    47    32    33    1
    48    35    45    1
    49    35    44    1
    50    33    34    2
    51    33    51    1
    52    59    52    1
    53    51    58    1
    54    51    52    1
    55    56    61    1
    56    56    55    1
    57    52    55    1
    58    52    53    1
    59    55    60    1
    60    55    57    1
    61    64    57    1
    62    53    54    2
    63    57    62    1
    64    57    63    1
    65    53    65    1
    66    76    70    1
    67    77    70    1
    68    74    66    1
    69    65    73    1
    70    65    66    1
    71    81    72    1
    72    70    72    1
    73    70    69    1
    74    66    69    1
    75    66    67    1
    76    72    83    1
    77    72    82    1
    78    80    71    1
    79    69    71    1
    80    69    75    1
    81    67    68    2
    82    71    78    1
    83    71    79    1
    84    67    84    1
    85    92    85    1
    86    84    91    1
    87    84    85    1
    88    89    94    1
    89    89    88    1
    90    85    88    1
    91    85    86    1
    92    88    93    1
    93    88    90    1
    94    97    90    1
    95    86    87    2
    96    90    95    1
    97    90    96    1
    98    86    98    1
    99   107    99    1
   100    98   106    1
   101    98    99    1
   102   108   102    1
   103    99   102    1
   104    99   100    1
   105   102   103    1
   106   102   109    1
   107   104   103    2
   108   103   105    1
   109   100   101    2
   110   100   110    1
   111   110   120    1
   112   110   111    1
   113   119   111    1
   114   111   112    1
   115   111   114    1
   116   113   112    2
   117   123   115    1
   118   124   115    1
   119   115   114    1
   120   115   116    1
   121   114   122    1
   122   114   121    1
   123   117   116    2
   124   116   118    1
   125   118   125    1
   126   118   126    1
   127   112   127    1
   128   138   132    1
   129   137   132    1
   130   135   128    1
   131   127   134    1
   132   127   128    1
   133   132   139    1
   134   132   131    1
   135   128   131    1
   136   128   129    1
   137   131   136    1
   138   131   133    1
   139   140   133    1
   140   129   130    2
   141   133   141    1
   142   133   142    1
   143   129   143    1
   144   143   144    1
   145     1   145    1
   146     2   146    1
   147     2   147    1
   148     2   148    1
   149     3   149    1
   150     3   150    1
   151     3   151    1
   152     3   152    1
   153     4   153    1
   154     4   154    1
   155     4   155    1
   156     4   156    1
   157     5   157    1
   158     5   158    1
   159     6   159    1
   160     6   160    1
   161     6   161    1
   162     6   162    1
   163     7   163    1
   164     7   164    1
   165     7   165    1
   166     7   166    1
   167     8   167    1
   168     8   168    1
   169     8   169    1
   170     8   170    1
   171     9   171    1
   172     9   172    1
   173     9   173    1
   174     9   174    1
   175    10   175    1
   176    11   176    1
   177    12   177    1
   178    13   178    1
   179    14   179    1
   180    15   180    1
   181    16   181    1
   182    17   182    1
   183    18   183    1
   184    19   184    1
   185    20   185    1
   186    21   186    1
   187    21   187    1
   188    21   188    1
   189    22   189    1
   190    22   190    1
   191    22   191    1
   192    22   192    1
   193    23   193    1
   194    23   194    1
   195    23   195    1
   196    23   196    1
   197    24   197    1
   198    24   198    1
   199    25   199    1
   200    25   200    1
   201    25   201    1
   202    25   202    1
   203    26   203    1
   204    27   204    1
   205    28   205    1
   206    29   206    1
   207    30   207    1
   208    31   208    1
   209    31   209    1
   210    31   210    1
   211    32   211    1
   212    32   212    1
   213    32   213    1
   214    32   214    1
   215    33   215    1
   216    33   216    1
   217    33   217    1
   218    33   218    1
   219    34   219    1
   220    34   220    1
   221    35   221    1
   222    35   222    1
   223    35   223    1
   224    35   224    1
   225    36   225    1
   226    36   226    1
   227    36   227    1
   228    36   228    1
   229    37   229    1
   230    37   230    1
   231    37   231    1
   232    37   232    1
   233    38   233    1
   234    38   234    1
   235    38   235    1
   236    38   236    1
   237    39   237    1
   238    39   238    1
   239    39   239    1
   240    39   240    1
   241    40   241    1
   242    40   242    1
   243    40   243    1
   244    40   244    1
   245    41   245    1
   246    41   246    1
   247    41   247    1
   248    41   248    1
   249    42   249    1
   250    43   250    1
   251    44   251    1
   252    45   252    1
   253    46   253    1
   254    47   254    1
   255    48   255    1
   256    49   256    1
   257    50   257    1
   258    51   258    1
   259    51   259    1
   260    51   260    1
   261    52   261    1
   262    52   262    1
   263    52   263    1
   264    52   264    1
   265    53   265    1
   266    53   266    1
   267    53   267    1
   268    53   268    1
   269    54   269    1
   270    54   270    1
   271    55   271    1
   272    55   272    1
   273    55   273    1
   274    55   274    1
   275    56   275    1
   276    56   276    1
   277    57   277    1
   278    57   278    1
   279    57   279    1
   280    57   280    1
   281    58   281    1
   282    59   282    1
   283    60   283    1
   284    61   284    1
   285    62   285    1
   286    63   286    1
   287    64   287    1
   288    65   288    1
   289    65   289    1
   290    65   290    1
   291    66   291    1
   292    66   292    1
   293    66   293    1
   294    66   294    1
   295    67   295    1
   296    67   296    1
   297    67   297    1
   298    67   298    1
   299    68   299    1
   300    68   300    1
   301    69   301    1
   302    69   302    1
   303    69   303    1
   304    69   304    1
   305    70   305    1
   306    70   306    1
   307    70   307    1
   308    70   308    1
   309    71   309    1
   310    71   310    1
   311    71   311    1
   312    71   312    1
   313    72   313    1
   314    72   314    1
   315    72   315    1
   316    72   316    1
   317    73   317    1
   318    74   318    1
   319    75   319    1
   320    76   320    1
   321    77   321    1
   322    78   322    1
   323    79   323    1
   324    80   324    1
   325    81   325    1
   326    82   326    1
   327    83   327    1
   328    84   328    1
   329    84   329    1
   330    84   330    1
   331    85   331    1
   332    85   332    1
   333    85   333    1
   334    85   334    1
   335    86   335    1
   336    86   336    1
   337    86   337    1
   338    86   338    1
   339    87   339    1
   340    87   340    1
   341    88   341    1
   342    88   342    1
   343    88   343    1
   344    88   344    1
   345    89   345    1
   346    89   346    1
   347    90   347    1
   348    90   348    1
   349    90   349    1
   350    90   350    1
   351    91   351    1
   352    92   352    1
   353    93   353    1
   354    94   354    1
   355    95   355    1
   356    96   356    1
   357    97   357    1
   358    98   358    1
   359    98   359    1
   360    98   360    1
   361    99   361    1
   362    99   362    1
   363    99   363    1
   364    99   364    1
   365   100   365    1
   366   100   366    1
   367   100   367    1
   368   100   368    1
   369   101   369    1
   370   101   370    1
   371   102   371    1
   372   102   372    1
   373   102   373    1
   374   102   374    1
   375   103   375    1
   376   103   376    1
   377   103   377    1
   378   103   378    1
   379   104   379    1
   380   104   380    1
   381   105   381    1
   382   105   382    1
   383   106   383    1
   384   107   384    1
   385   108   385    1
   386   109   386    1
   387   110   387    1
   388   110   388    1
   389   110   389    1
   390   111   390    1
   391   111   391    1
   392   111   392    1
   393   111   393    1
   394   112   394    1
   395   112   395    1
   396   112   396    1
   397   112   397    1
   398   113   398    1
   399   113   399    1
   400   114   400    1
   401   114   401    1
   402   114   402    1
   403   114   403    1
   404   115   404    1
   405   115   405    1
   406   115   406    1
   407   115   407    1
   408   116   408    1
   409   116   409    1
   410   116   410    1
   411   116   411    1
   412   117   412    1
   413   117   413    1
   414   118   414    1
   415   118   415    1
   416   118   416    1
   417   119   417    1
   418   120   418    1
   419   121   419    1
   420   122   420    1
   421   123   421    1
   422   124   422    1
   423   125   423    1
   424   126   424    1
   425   127   425    1
   426   127   426    1
   427   127   427    1
   428   128   428    1
   429   128   429    1
   430   128   430    1
   431   128   431    1
   432   129   432    1
   433   129   433    1
   434   129   434    1
   435   129   435    1
   436   130   436    1
   437   130   437    1
   438   131   438    1
   439   131   439    1
   440   131   440    1
   441   131   441    1
   442   132   442    1
   443   132   443    1
   444   132   444    1
   445   132   445    1
   446   133   446    1
   447   133   447    1
   448   133   448    1
   449   133   449    1
   450   134   450    1
   451   135   451    1
   452   136   452    1
   453   137   453    1
   454   138   454    1
   455   139   455    1
   456   140   456    1
   457   141   457    1
   458   142   458    1
   459   143   459    1
   460   143   460    1
   461   144   461    1
