MODEL 1
REMARK VINA RESULT:      -9.0      0.000      0.000
REMARK WARNING: 32 MAX_TORS EXCEEDED!!!
REMARK  71 active torsions:
REMARK  status: ('A' for Active; 'I' for Inactive)
REMARK    1  A    between atoms: HNCA_1  and  N_2 
REMARK    2  A    between atoms: N_2  and  H_10 
REMARK    3  A    between atoms: N_2  and  CA_3 
REMARK    4  A    between atoms: CA_3  and  C_4 
REMARK    5  A    between atoms: CA_3  and  CB_6 
REMARK    6  A    between atoms: C_4  and  O_5 
REMARK    7  A    between atoms: C_4  and  N_11 
REMARK    8  A    between atoms: CG_7  and  CB_6 
REMARK    9  A    between atoms: N_11  and  H_16 
REMARK   10  A    between atoms: N_11  and  CA_12 
REMARK   11  A    between atoms: CA_12  and  C_13 
REMARK   12  A    between atoms: O_14  and  C_13 
REMARK   13  A    between atoms: C_13  and  N_17 
REMARK   14  A    between atoms: N_17  and  H_28 
REMARK   15  A    between atoms: N_17  and  CA_18 
REMARK   16  A    between atoms: CA_18  and  CB_21 
REMARK   17  A    between atoms: CA_18  and  C_19 
REMARK   18  A    between atoms: C_19  and  O_20 
REMARK   19  A    between atoms: C_19  and  N_29 
REMARK   20  A    between atoms: CG_22  and  CB_21 
REMARK   21  A    between atoms: N_29  and  H_36 
REMARK   22  A    between atoms: N_29  and  CA_30 
REMARK   23  A    between atoms: CA_30  and  CB_33 
REMARK   24  A    between atoms: CA_30  and  C_31 
REMARK   25  A    between atoms: C_31  and  O_32 
REMARK   26  A    between atoms: C_31  and  N_38 
REMARK   27  A    between atoms: OG1_34  and  CB_33 
REMARK   28  A    between atoms: OG1_34  and  HG1_37 
REMARK   29  A    between atoms: N_38  and  H_46 
REMARK   30  A    between atoms: N_38  and  CA_39 
REMARK   31  A    between atoms: CA_39  and  CB_42 
REMARK   32  A    between atoms: CA_39  and  C_40 
REMARK   33  A    between atoms: C_40  and  O_41 
REMARK   34  A    between atoms: C_40  and  N_47 
REMARK   35  A    between atoms: CG1_43  and  CB_42 
REMARK   36  A    between atoms: N_47  and  H_54 
REMARK   37  A    between atoms: N_47  and  CA_48 
REMARK   38  A    between atoms: CA_48  and  CB_51 
REMARK   39  A    between atoms: CA_48  and  C_49 
REMARK   40  A    between atoms: C_49  and  O_50 
REMARK   41  A    between atoms: C_49  and  N_56 
REMARK   42  A    between atoms: OG1_52  and  CB_51 
REMARK   43  A    between atoms: OG1_52  and  HG1_55 
REMARK   44  A    between atoms: N_56  and  H_64 
REMARK   45  A    between atoms: N_56  and  CA_57 
REMARK   46  A    between atoms: CA_57  and  CB_60 
REMARK   47  A    between atoms: CA_57  and  C_58 
REMARK   48  A    between atoms: C_58  and  O_59 
REMARK   49  A    between atoms: C_58  and  N_65 
REMARK   50  A    between atoms: CB_60  and  CG_61 
REMARK   51  A    between atoms: OD1_62  and  CG_61 
REMARK   52  A    between atoms: CG_61  and  OD2_63 
REMARK   53  A    between atoms: N_65  and  H_74 
REMARK   54  A    between atoms: N_65  and  CA_66 
REMARK   55  A    between atoms: CA_66  and  C_67 
REMARK   56  A    between atoms: CA_66  and  CB_69 
REMARK   57  A    between atoms: O_68  and  C_67 
REMARK   58  A    between atoms: C_67  and  N_77 
REMARK   59  A    between atoms: CG_70  and  CB_69 
REMARK   60  A    between atoms: CG_70  and  CD_71 
REMARK   61  A    between atoms: OE1_72  and  CD_71 
REMARK   62  A    between atoms: CD_71  and  NE2_73 
REMARK   63  A    between atoms: NE2_73  and  HE21_75 
REMARK   64  A    between atoms: NE2_73  and  HE22_76 
REMARK   65  A    between atoms: N_77  and  H_84 
REMARK   66  A    between atoms: N_77  and  CA_78 
REMARK   67  A    between atoms: CA_78  and  CB_81 
REMARK   68  A    between atoms: CA_78  and  C_79 
REMARK   69  A    between atoms: C_79  and  O_80 
REMARK   70  A    between atoms: C_79  and  OXT_85 
REMARK   71  A    between atoms: OXT_85  and  HOCA_86 
ROOT
ATOM      1 AHNC LEU d   1       5.842  59.150 162.860  0.00  0.00     0.061 HD
ATOM      2  H   LEU d   1       6.103  58.588 162.869  0.00  0.00     0.013 HD
ENDROOT
BRANCH   1   3
ATOM      3  N   LEU d   1       5.842  58.150 162.912  0.00  0.00    -0.429 N 
ATOM      4  H   LEU d   1       5.941  57.248 163.379  0.00  0.00     0.073 HD
ATOM      5  H   LEU d   1       6.463  58.184 162.104  0.00  0.00     0.073 HD
ATOM      6  H   LEU d   1       6.086  58.898 163.562  0.00  0.00     0.073 HD
BRANCH   3   7
ATOM      7  H   LEU d   1       5.503  58.891 162.330  0.00  0.00     0.061 HD
ATOM      8  H   LEU d   1       5.547  58.464 162.777  0.00  0.00     0.013 HD
ENDBRANCH   3   7
BRANCH   3   9
ATOM      9  CA  LEU d   1       4.912  57.455 163.800  0.00  0.00     0.069 C 
BRANCH   9  10
ATOM     10  C   LEU d   1       5.044  58.053 165.183  0.00  0.00     0.168 C 
BRANCH  10  11
ATOM     11  O   LEU d   1       5.071  57.306 166.148  0.00  0.00    -0.496 OA
ATOM     12  H   LEU d   1       5.300  56.658 166.832  0.00  0.00     0.172 HD
ATOM     13  H   LEU d   1       5.882  57.642 165.735  0.00  0.00     0.172 HD
ENDBRANCH  10  11
BRANCH  10  14
ATOM     14  N   ALA d   2       5.087  59.422 165.355  0.00  0.00    -0.414 N 
ATOM     15  H   ALA d   2       4.215  59.186 164.881  0.00  0.00     0.077 HD
ATOM     16  H   ALA d   2       5.539  60.196 164.871  0.00  0.00     0.077 HD
ATOM     17  H   ALA d   2       5.706  58.611 165.352  0.00  0.00     0.077 HD
BRANCH  14  18
ATOM     18  H   ALA d   2       5.909  59.874 165.704  0.00  0.00     0.065 HD
ATOM     19  H   ALA d   2       5.443  59.662 165.355  0.00  0.00     0.013 HD
ENDBRANCH  14  18
BRANCH  14  20
ATOM     20  CA  ALA d   2       3.919  60.232 165.028  0.00  0.00     0.071 C 
ATOM     21  CB  ALA d   2       3.166  60.721 166.295  0.00  0.00     0.010 C 
BRANCH  20  22
ATOM     22  C   ALA d   2       4.366  61.429 164.226  0.00  0.00     0.169 C 
BRANCH  22  23
ATOM     23  O   ALA d   2       4.896  61.247 163.142  0.00  0.00    -0.496 OA
ATOM     24  H   ALA d   2       5.340  61.316 162.283  0.00  0.00     0.172 HD
ATOM     25  H   ALA d   2       4.170  61.889 163.183  0.00  0.00     0.172 HD
ENDBRANCH  22  23
BRANCH  22  26
ATOM     26  N   PHE d   3       4.188  62.674 164.781  0.00  0.00    -0.414 N 
ATOM     27  H   PHE d   3       3.676  62.595 163.902  0.00  0.00     0.077 HD
ATOM     28  H   PHE d   3       3.576  63.063 165.498  0.00  0.00     0.077 HD
ATOM     29  H   PHE d   3       4.992  63.290 164.652  0.00  0.00     0.077 HD
BRANCH  26  30
ATOM     30  H   PHE d   3       5.240  62.925 164.815  0.00  0.00     0.065 HD
ATOM     31  H   PHE d   3       5.033  62.350 164.920  0.00  0.00     0.013 HD
ENDBRANCH  26  30
BRANCH  26  32
ATOM     32  CA  PHE d   3       3.280  63.277 163.808  0.00  0.00     0.072 C 
BRANCH  32  33
ATOM     33  CB  PHE d   3       1.988  63.778 164.522  0.00  0.00     0.013 C 
BRANCH  33  34
ATOM     34  CG  PHE d   3       0.666  63.141 164.072  0.00  0.00    -0.007 A 
ATOM     35  CD2 PHE d   3       0.341  61.832 164.437  0.00  0.00    -0.001 A 
ATOM     36  CE2 PHE d   3      -0.889  61.292 164.079  0.00  0.00    -0.002 A 
ATOM     37  CZ  PHE d   3      -1.807  62.059 163.361  0.00  0.00    -0.003 A 
ATOM     38  CE1 PHE d   3      -1.489  63.365 162.993  0.00  0.00    -0.002 A 
ATOM     39  CD1 PHE d   3      -0.252  63.900 163.337  0.00  0.00    -0.001 A 
ENDBRANCH  33  34
ENDBRANCH  32  33
BRANCH  32  40
ATOM     40  C   PHE d   3       3.936  64.441 163.105  0.00  0.00     0.169 C 
BRANCH  40  41
ATOM     41  O   PHE d   3       4.397  65.431 163.738  0.00  0.00    -0.496 OA
ATOM     42  H   PHE d   3       3.575  64.956 163.937  0.00  0.00     0.172 HD
ATOM     43  H   PHE d   3       5.042  64.815 163.357  0.00  0.00     0.172 HD
ENDBRANCH  40  41
BRANCH  40  44
ATOM     44  N   THR d   4       4.929  64.928 163.475  0.00  0.00    -0.413 N 
ATOM     45  H   THR d   4       5.373  64.377 162.740  0.00  0.00     0.077 HD
ATOM     46  H   THR d   4       3.915  64.884 163.367  0.00  0.00     0.077 HD
ATOM     47  H   THR d   4       5.236  65.897 163.406  0.00  0.00     0.077 HD
BRANCH  44  48
ATOM     48  H   THR d   4       4.990  64.562 164.490  0.00  0.00     0.065 HD
ATOM     49  H   THR d   4       4.511  64.927 164.340  0.00  0.00     0.013 HD
ENDBRANCH  44  48
BRANCH  44  50
ATOM     50  CA  THR d   4       6.040  64.801 162.538  0.00  0.00     0.090 C 
BRANCH  50  51
ATOM     51  CB  THR d   4       6.561  66.212 162.107  0.00  0.00     0.104 C 
ATOM     52  CG2 THR d   4       7.795  66.748 162.864  0.00  0.00     0.017 C 
BRANCH  51  53
ATOM     53  OG1 THR d   4       6.960  66.202 160.741  0.00  0.00    -0.575 OA
ATOM     54  H   THR d   4       7.013  67.148 160.948  0.00  0.00     0.146 HD
ATOM     55  H   THR d   4       7.698  65.955 160.161  0.00  0.00     0.146 HD
BRANCH  53  56
ATOM     56  HG1 THR d   4       6.150  66.190 160.224  0.00  0.00     0.124 HD
ATOM     57  H   THR d   4       5.943  66.465 160.740  0.00  0.00     0.022 HD
ENDBRANCH  53  56
ENDBRANCH  51  53
ENDBRANCH  50  51
BRANCH  50  58
ATOM     58  C   THR d   4       7.160  63.981 163.134  0.00  0.00     0.170 C 
BRANCH  58  59
ATOM     59  O   THR d   4       7.301  62.801 162.877  0.00  0.00    -0.496 OA
ATOM     60  H   THR d   4       6.424  63.205 162.968  0.00  0.00     0.172 HD
ATOM     61  H   THR d   4       7.712  62.723 163.753  0.00  0.00     0.172 HD
ENDBRANCH  58  59
BRANCH  58  62
ATOM     62  N   ILE d   5       7.712  63.090 162.625  0.00  0.00    -0.414 N 
ATOM     63  H   ILE d   5       8.285  63.847 162.253  0.00  0.00     0.077 HD
ATOM     64  H   ILE d   5       6.905  62.944 162.018  0.00  0.00     0.077 HD
ATOM     65  H   ILE d   5       7.392  63.335 163.562  0.00  0.00     0.077 HD
BRANCH  62  66
ATOM     66  H   ILE d   5       6.955  62.586 162.043  0.00  0.00     0.065 HD
ATOM     67  H   ILE d   5       6.917  62.654 162.658  0.00  0.00     0.013 HD
ENDBRANCH  62  66
BRANCH  62  68
ATOM     68  CA  ILE d   5       8.975  63.527 162.038  0.00  0.00     0.073 C 
BRANCH  68  69
ATOM     69  CB  ILE d   5      10.195  62.699 162.613  0.00  0.00     0.003 C 
ATOM     70  CG2 ILE d   5      11.139  62.155 161.495  0.00  0.00    -0.002 C 
BRANCH  69  71
ATOM     71  CG1 ILE d   5      11.069  63.462 163.657  0.00  0.00    -0.004 C 
ATOM     72  CD1 ILE d   5      10.883  64.994 163.701  0.00  0.00    -0.004 C 
ENDBRANCH  69  71
ENDBRANCH  68  69
BRANCH  68  73
ATOM     73  C   ILE d   5       8.919  63.472 160.530  0.00  0.00     0.169 C 
BRANCH  73  74
ATOM     74  O   ILE d   5       9.400  64.629 159.841  0.00  0.00    -0.496 OA
ATOM     75  H   ILE d   5       9.451  65.122 159.007  0.00  0.00     0.172 HD
ATOM     76  H   ILE d   5       9.992  63.862 159.799  0.00  0.00     0.172 HD
ENDBRANCH  73  74
BRANCH  73  77
ATOM     77  N   THR d   6       7.972  63.102 159.957  0.00  0.00    -0.413 N 
ATOM     78  H   THR d   6       8.541  62.303 159.679  0.00  0.00     0.077 HD
ATOM     79  H   THR d   6       6.997  62.928 159.708  0.00  0.00     0.077 HD
ATOM     80  H   THR d   6       8.301  63.939 159.475  0.00  0.00     0.077 HD
BRANCH  77  81
ATOM     81  H   THR d   6       7.819  63.893 159.236  0.00  0.00     0.065 HD
ATOM     82  H   THR d   6       7.442  63.401 159.214  0.00  0.00     0.013 HD
ENDBRANCH  77  81
BRANCH  77  83
ATOM     83  CA  THR d   6       8.006  61.696 159.567  0.00  0.00     0.090 C 
BRANCH  83  84
ATOM     84  CB  THR d   6       6.649  60.996 159.910  0.00  0.00     0.104 C 
ATOM     85  CG2 THR d   6       6.271  59.773 159.044  0.00  0.00     0.017 C 
BRANCH  84  86
ATOM     86  OG1 THR d   6       6.669  60.494 161.241  0.00  0.00    -0.575 OA
ATOM     87  H   THR d   6       6.410  59.702 160.743  0.00  0.00     0.146 HD
ATOM     88  H   THR d   6       6.024  61.200 161.083  0.00  0.00     0.146 HD
BRANCH  86  89
ATOM     89  HG1 THR d   6       5.822  60.729 161.630  0.00  0.00     0.124 HD
ATOM     90  H   THR d   6       5.648  60.637 161.042  0.00  0.00     0.022 HD
ENDBRANCH  86  89
ENDBRANCH  84  86
ENDBRANCH  83  84
BRANCH  83  91
ATOM     91  C   THR d   6       8.324  61.549 158.098  0.00  0.00     0.170 C 
BRANCH  91  92
ATOM     92  O   THR d   6       9.455  61.675 157.670  0.00  0.00    -0.496 OA
ATOM     93  H   THR d   6       8.756  61.239 157.156  0.00  0.00     0.172 HD
ATOM     94  H   THR d   6       9.431  62.630 157.501  0.00  0.00     0.172 HD
ENDBRANCH  91  92
BRANCH  91  95
ATOM     95  N   ASP d   7       9.313  61.131 157.642  0.00  0.00    -0.414 N 
ATOM     96  H   ASP d   7       8.955  60.260 158.034  0.00  0.00     0.077 HD
ATOM     97  H   ASP d   7       8.771  61.380 156.815  0.00  0.00     0.077 HD
ATOM     98  H   ASP d   7      10.292  61.011 157.384  0.00  0.00     0.077 HD
BRANCH  95  99
ATOM     99  H   ASP d   7      10.115  61.543 158.095  0.00  0.00     0.065 HD
ATOM    100  H   ASP d   7       9.564  61.803 158.207  0.00  0.00     0.013 HD
ENDBRANCH  95  99
BRANCH  95 101
ATOM    101  CA  ASP d   7       9.367  59.647 157.717  0.00  0.00     0.076 C 
BRANCH 101 102
ATOM    102  CB  ASP d   7       9.218  59.182 156.256  0.00  0.00     0.055 C 
BRANCH 102 103
ATOM    103  CG  ASP d   7       7.780  58.815 155.797  0.00  0.00     0.240 C 
BRANCH 103 104
ATOM    104  OD1 ASP d   7       7.508  57.612 155.756  0.00  0.00    -0.489 OA
ATOM    105  H   ASP d   7       7.315  56.813 156.270  0.00  0.00     0.172 HD
ATOM    106  H   ASP d   7       8.291  58.053 156.124  0.00  0.00     0.172 HD
ENDBRANCH 103 104
BRANCH 103 107
ATOM    107  OD2 ASP d   7       7.068  59.786 155.540  0.00  0.00    -0.489 OA
ATOM    108  H   ASP d   7       6.850  59.759 156.485  0.00  0.00     0.172 HD
ATOM    109  H   ASP d   7       7.303  60.693 155.287  0.00  0.00     0.172 HD
ENDBRANCH 103 107
ENDBRANCH 102 103
ENDBRANCH 101 102
BRANCH 101 110
ATOM    110  C   ASP d   7      10.583  58.972 158.447  0.00  0.00     0.169 C 
BRANCH 110 111
ATOM    111  O   ASP d   7      11.215  59.478 159.346  0.00  0.00    -0.496 OA
ATOM    112  H   ASP d   7      10.635  58.712 159.480  0.00  0.00     0.172 HD
ATOM    113  H   ASP d   7      11.195  59.739 158.411  0.00  0.00     0.172 HD
ENDBRANCH 110 111
BRANCH 110 114
ATOM    114  N   GLN d   8      10.437  59.156 159.645  0.00  0.00    -0.414 N 
ATOM    115  H   GLN d   8      10.168  58.173 159.611  0.00  0.00     0.077 HD
ATOM    116  H   GLN d   8      10.079  59.636 158.819  0.00  0.00     0.077 HD
ATOM    117  H   GLN d   8      11.453  59.230 159.667  0.00  0.00     0.077 HD
BRANCH 114 118
ATOM    118  H   GLN d   8      10.721  60.087 159.867  0.00  0.00     0.065 HD
ATOM    119  H   GLN d   8      10.638  59.510 159.656  0.00  0.00     0.013 HD
ENDBRANCH 114 118
BRANCH 114 120
ATOM    120  CA  GLN d   8      10.620  58.104 160.643  0.00  0.00     0.072 C 
BRANCH 120 121
ATOM    121  C   GLN d   8       9.266  57.635 161.120  0.00  0.00     0.169 C 
BRANCH 121 122
ATOM    122  O   GLN d   8       8.441  58.464 161.469  0.00  0.00    -0.496 OA
ATOM    123  H   GLN d   8       7.677  59.055 161.563  0.00  0.00     0.172 HD
ATOM    124  H   GLN d   8       8.153  57.544 161.572  0.00  0.00     0.172 HD
ENDBRANCH 121 122
BRANCH 121 125
ATOM    125  N   VAL d   9       9.049  56.303 161.171  0.00  0.00    -0.413 N 
ATOM    126  H   VAL d   9       8.633  56.696 160.327  0.00  0.00     0.077 HD
ATOM    127  H   VAL d   9       8.309  56.024 161.816  0.00  0.00     0.077 HD
ATOM    128  H   VAL d   9       9.642  57.003 161.616  0.00  0.00     0.077 HD
BRANCH 125 129
ATOM    129  H   VAL d   9       8.530  56.306 162.119  0.00  0.00     0.065 HD
ATOM    130  H   VAL d   9       8.827  56.807 161.905  0.00  0.00     0.013 HD
ENDBRANCH 125 129
BRANCH 125 131
ATOM    131  CA  VAL d   9       8.350  56.083 159.907  0.00  0.00     0.083 C 
BRANCH 131 132
ATOM    132  CB  VAL d   9       9.097  54.972 159.069  0.00  0.00     0.002 C 
ATOM    133  CG1 VAL d   9       9.613  55.464 157.693  0.00  0.00    -0.002 C 
ATOM    134  CG2 VAL d   9       8.291  53.677 158.767  0.00  0.00    -0.002 C 
ENDBRANCH 131 132
BRANCH 131 135
ATOM    135  C   VAL d   9       6.909  55.700 160.145  0.00  0.00     0.226 C 
BRANCH 135 136
ATOM    136  O   VAL d   9       6.060  56.529 160.496  0.00  0.00    -0.490 OA
ATOM    137  H   VAL d   9       7.011  56.693 160.407  0.00  0.00     0.172 HD
ATOM    138  H   VAL d   9       5.572  57.352 160.335  0.00  0.00     0.172 HD
ENDBRANCH 135 136
BRANCH 135 139
ATOM    139  OXT VAL d   9       6.092  56.227 159.818  0.00  0.00    -0.560 OA
ATOM    140  H   VAL d   9       5.557  55.606 160.337  0.00  0.00     0.147 HD
ATOM    141  H   VAL d   9       5.806  57.135 160.004  0.00  0.00     0.147 HD
BRANCH 139 142
ATOM    142 AHOC VAL d   9       5.223  56.221 160.206  0.00  0.00     0.126 HD
ATOM    143  H   VAL d   9       4.641  56.308 160.009  0.00  0.00     0.022 HD
ENDBRANCH 139 142
ENDBRANCH 135 139
ENDBRANCH 131 135
ENDBRANCH 125 131
ENDBRANCH 121 125
ENDBRANCH 120 121
BRANCH 120 144
ATOM    144  CB  GLN d   8      11.442  58.568 161.878  0.00  0.00     0.012 C 
BRANCH 144 145
ATOM    145  CG  GLN d   8      12.325  57.445 162.482  0.00  0.00     0.031 C 
BRANCH 145 146
ATOM    146  CD  GLN d   8      12.890  56.461 161.476  0.00  0.00     0.158 C 
BRANCH 146 147
ATOM    147  OE1 GLN d   8      12.257  55.432 161.289  0.00  0.00    -0.497 OA
ATOM    148  H   GLN d   8      12.572  56.235 160.847  0.00  0.00     0.172 HD
ATOM    149  H   GLN d   8      12.992  54.807 161.390  0.00  0.00     0.172 HD
ENDBRANCH 146 147
BRANCH 146 150
ATOM    150  NE2 GLN d   8      14.048  56.701 160.818  0.00  0.00    -0.417 N 
ATOM    151  H   GLN d   8      14.134  55.829 160.296  0.00  0.00     0.075 HD
ATOM    152  H   GLN d   8      13.931  56.494 161.809  0.00  0.00     0.075 HD
ATOM    153  H   GLN d   8      13.239  57.222 160.480  0.00  0.00     0.075 HD
BRANCH 150 154
ATOM    154 1HE2 GLN d   8      14.696  55.977 160.582  0.00  0.00     0.063 HD
ATOM    155  H   GLN d   8      14.740  55.432 160.291  0.00  0.00     0.013 HD
ENDBRANCH 150 154
BRANCH 150 156
ATOM    156 2HE2 GLN d   8      14.270  57.641 160.551  0.00  0.00     0.063 HD
ATOM    157  H   GLN d   8      14.485  57.101 160.336  0.00  0.00     0.013 HD
ENDBRANCH 150 156
ENDBRANCH 146 150
ENDBRANCH 145 146
ENDBRANCH 144 145
ENDBRANCH 120 144
ENDBRANCH 114 120
ENDBRANCH 110 114
ENDBRANCH 101 110
ENDBRANCH  95 101
ENDBRANCH  91  95
ENDBRANCH  83  91
ENDBRANCH  77  83
ENDBRANCH  73  77
ENDBRANCH  68  73
ENDBRANCH  62  68
ENDBRANCH  58  62
ENDBRANCH  50  58
ENDBRANCH  44  50
ENDBRANCH  40  44
ENDBRANCH  32  40
ENDBRANCH  26  32
ENDBRANCH  22  26
ENDBRANCH  20  22
ENDBRANCH  14  20
ENDBRANCH  10  14
ENDBRANCH   9  10
BRANCH   9 158
ATOM    158  CB  LEU d   1       5.172  55.925 163.884  0.00  0.00     0.010 C 
BRANCH 158 159
ATOM    159  CG  LEU d   1       4.170  55.045 163.074  0.00  0.00    -0.010 C 
ATOM    160  CD2 LEU d   1       3.030  55.881 162.424  0.00  0.00    -0.003 C 
ATOM    161  CD1 LEU d   1       3.561  53.957 164.002  0.00  0.00    -0.003 C 
ENDBRANCH 158 159
ENDBRANCH   9 158
ENDBRANCH   3   9
ENDBRANCH   1   3
TORSDOF 71
ENDMDL
MODEL 2
REMARK VINA RESULT:      -8.9      3.021      4.493
REMARK WARNING: 32 MAX_TORS EXCEEDED!!!
REMARK  71 active torsions:
REMARK  status: ('A' for Active; 'I' for Inactive)
REMARK    1  A    between atoms: HNCA_1  and  N_2 
REMARK    2  A    between atoms: N_2  and  H_10 
REMARK    3  A    between atoms: N_2  and  CA_3 
REMARK    4  A    between atoms: CA_3  and  C_4 
REMARK    5  A    between atoms: CA_3  and  CB_6 
REMARK    6  A    between atoms: C_4  and  O_5 
REMARK    7  A    between atoms: C_4  and  N_11 
REMARK    8  A    between atoms: CG_7  and  CB_6 
REMARK    9  A    between atoms: N_11  and  H_16 
REMARK   10  A    between atoms: N_11  and  CA_12 
REMARK   11  A    between atoms: CA_12  and  C_13 
REMARK   12  A    between atoms: O_14  and  C_13 
REMARK   13  A    between atoms: C_13  and  N_17 
REMARK   14  A    between atoms: N_17  and  H_28 
REMARK   15  A    between atoms: N_17  and  CA_18 
REMARK   16  A    between atoms: CA_18  and  CB_21 
REMARK   17  A    between atoms: CA_18  and  C_19 
REMARK   18  A    between atoms: C_19  and  O_20 
REMARK   19  A    between atoms: C_19  and  N_29 
REMARK   20  A    between atoms: CG_22  and  CB_21 
REMARK   21  A    between atoms: N_29  and  H_36 
REMARK   22  A    between atoms: N_29  and  CA_30 
REMARK   23  A    between atoms: CA_30  and  CB_33 
REMARK   24  A    between atoms: CA_30  and  C_31 
REMARK   25  A    between atoms: C_31  and  O_32 
REMARK   26  A    between atoms: C_31  and  N_38 
REMARK   27  A    between atoms: OG1_34  and  CB_33 
REMARK   28  A    between atoms: OG1_34  and  HG1_37 
REMARK   29  A    between atoms: N_38  and  H_46 
REMARK   30  A    between atoms: N_38  and  CA_39 
REMARK   31  A    between atoms: CA_39  and  CB_42 
REMARK   32  A    between atoms: CA_39  and  C_40 
REMARK   33  A    between atoms: C_40  and  O_41 
REMARK   34  A    between atoms: C_40  and  N_47 
REMARK   35  A    between atoms: CG1_43  and  CB_42 
REMARK   36  A    between atoms: N_47  and  H_54 
REMARK   37  A    between atoms: N_47  and  CA_48 
REMARK   38  A    between atoms: CA_48  and  CB_51 
REMARK   39  A    between atoms: CA_48  and  C_49 
REMARK   40  A    between atoms: C_49  and  O_50 
REMARK   41  A    between atoms: C_49  and  N_56 
REMARK   42  A    between atoms: OG1_52  and  CB_51 
REMARK   43  A    between atoms: OG1_52  and  HG1_55 
REMARK   44  A    between atoms: N_56  and  H_64 
REMARK   45  A    between atoms: N_56  and  CA_57 
REMARK   46  A    between atoms: CA_57  and  CB_60 
REMARK   47  A    between atoms: CA_57  and  C_58 
REMARK   48  A    between atoms: C_58  and  O_59 
REMARK   49  A    between atoms: C_58  and  N_65 
REMARK   50  A    between atoms: CB_60  and  CG_61 
REMARK   51  A    between atoms: OD1_62  and  CG_61 
REMARK   52  A    between atoms: CG_61  and  OD2_63 
REMARK   53  A    between atoms: N_65  and  H_74 
REMARK   54  A    between atoms: N_65  and  CA_66 
REMARK   55  A    between atoms: CA_66  and  C_67 
REMARK   56  A    between atoms: CA_66  and  CB_69 
REMARK   57  A    between atoms: O_68  and  C_67 
REMARK   58  A    between atoms: C_67  and  N_77 
REMARK   59  A    between atoms: CG_70  and  CB_69 
REMARK   60  A    between atoms: CG_70  and  CD_71 
REMARK   61  A    between atoms: OE1_72  and  CD_71 
REMARK   62  A    between atoms: CD_71  and  NE2_73 
REMARK   63  A    between atoms: NE2_73  and  HE21_75 
REMARK   64  A    between atoms: NE2_73  and  HE22_76 
REMARK   65  A    between atoms: N_77  and  H_84 
REMARK   66  A    between atoms: N_77  and  CA_78 
REMARK   67  A    between atoms: CA_78  and  CB_81 
REMARK   68  A    between atoms: CA_78  and  C_79 
REMARK   69  A    between atoms: C_79  and  O_80 
REMARK   70  A    between atoms: C_79  and  OXT_85 
REMARK   71  A    between atoms: OXT_85  and  HOCA_86 
ROOT
ATOM      1 AHNC LEU d   1       7.095  57.534 162.653  0.00  0.00     0.061 HD
ATOM      2  H   LEU d   1       6.593  57.541 162.289  0.00  0.00     0.013 HD
ENDROOT
BRANCH   1   3
ATOM      3  N   LEU d   1       6.201  57.864 162.345  0.00  0.00    -0.429 N 
ATOM      4  H   LEU d   1       5.314  57.802 161.844  0.00  0.00     0.073 HD
ATOM      5  H   LEU d   1       6.699  58.705 162.051  0.00  0.00     0.073 HD
ATOM      6  H   LEU d   1       6.768  57.042 162.136  0.00  0.00     0.073 HD
BRANCH   3   7
ATOM      7  H   LEU d   1       6.887  58.044 163.052  0.00  0.00     0.061 HD
ATOM      8  H   LEU d   1       6.354  58.034 162.734  0.00  0.00     0.013 HD
ENDBRANCH   3   7
BRANCH   3   9
ATOM      9  CA  LEU d   1       4.982  57.141 162.699  0.00  0.00     0.069 C 
BRANCH   9  10
ATOM     10  C   LEU d   1       4.086  58.078 163.479  0.00  0.00     0.168 C 
BRANCH  10  11
ATOM     11  O   LEU d   1       2.877  57.960 163.377  0.00  0.00    -0.496 OA
ATOM     12  H   LEU d   1       1.940  58.030 163.135  0.00  0.00     0.172 HD
ATOM     13  H   LEU d   1       3.424  58.290 162.648  0.00  0.00     0.172 HD
ENDBRANCH  10  11
BRANCH  10  14
ATOM     14  N   ALA d   2       4.630  59.081 164.258  0.00  0.00    -0.414 N 
ATOM     15  H   ALA d   2       3.760  59.426 163.853  0.00  0.00     0.077 HD
ATOM     16  H   ALA d   2       5.364  59.776 164.130  0.00  0.00     0.077 HD
ATOM     17  H   ALA d   2       4.899  58.212 163.795  0.00  0.00     0.077 HD
BRANCH  14  18
ATOM     18  H   ALA d   2       5.541  58.987 164.660  0.00  0.00     0.065 HD
ATOM     19  H   ALA d   2       4.968  59.168 164.507  0.00  0.00     0.013 HD
ENDBRANCH  14  18
BRANCH  14  20
ATOM     20  CA  ALA d   2       3.869  60.300 164.506  0.00  0.00     0.071 C 
ATOM     21  CB  ALA d   2       3.698  60.591 166.022  0.00  0.00     0.010 C 
BRANCH  20  22
ATOM     22  C   ALA d   2       4.584  61.460 163.858  0.00  0.00     0.169 C 
BRANCH  22  23
ATOM     23  O   ALA d   2       5.136  61.285 162.784  0.00  0.00    -0.496 OA
ATOM     24  H   ALA d   2       5.676  60.989 162.034  0.00  0.00     0.172 HD
ATOM     25  H   ALA d   2       5.702  61.406 163.562  0.00  0.00     0.172 HD
ENDBRANCH  22  23
BRANCH  22  26
ATOM     26  N   PHE d   3       4.612  62.655 164.536  0.00  0.00    -0.414 N 
ATOM     27  H   PHE d   3       4.021  62.725 163.707  0.00  0.00     0.077 HD
ATOM     28  H   PHE d   3       4.116  63.039 165.340  0.00  0.00     0.077 HD
ATOM     29  H   PHE d   3       5.472  63.182 164.385  0.00  0.00     0.077 HD
BRANCH  26  30
ATOM     30  H   PHE d   3       5.685  62.777 164.491  0.00  0.00     0.065 HD
ATOM     31  H   PHE d   3       5.297  63.148 164.181  0.00  0.00     0.013 HD
ENDBRANCH  26  30
BRANCH  26  32
ATOM     32  CA  PHE d   3       3.707  63.454 163.713  0.00  0.00     0.072 C 
BRANCH  32  33
ATOM     33  CB  PHE d   3       2.514  63.968 164.575  0.00  0.00     0.013 C 
BRANCH  33  34
ATOM     34  CG  PHE d   3       1.127  63.410 164.228  0.00  0.00    -0.007 A 
ATOM     35  CD2 PHE d   3       0.217  64.165 163.484  0.00  0.00    -0.001 A 
ATOM     36  CE2 PHE d   3      -1.009  63.621 163.119  0.00  0.00    -0.002 A 
ATOM     37  CZ  PHE d   3      -1.332  62.314 163.488  0.00  0.00    -0.003 A 
ATOM     38  CE1 PHE d   3      -0.429  61.556 164.230  0.00  0.00    -0.002 A 
ATOM     39  CD1 PHE d   3       0.792  62.106 164.609  0.00  0.00    -0.001 A 
ENDBRANCH  33  34
ENDBRANCH  32  33
BRANCH  32  40
ATOM     40  C   PHE d   3       4.425  64.639 163.112  0.00  0.00     0.169 C 
BRANCH  40  41
ATOM     41  O   PHE d   3       5.021  65.492 163.826  0.00  0.00    -0.496 OA
ATOM     42  H   PHE d   3       5.024  65.453 162.857  0.00  0.00     0.172 HD
ATOM     43  H   PHE d   3       4.176  65.154 164.160  0.00  0.00     0.172 HD
ENDBRANCH  40  41
BRANCH  40  44
ATOM     44  N   THR d   4       5.483  64.983 163.462  0.00  0.00    -0.413 N 
ATOM     45  H   THR d   4       5.827  64.453 162.661  0.00  0.00     0.077 HD
ATOM     46  H   THR d   4       4.466  65.057 163.410  0.00  0.00     0.077 HD
ATOM     47  H   THR d   4       5.892  65.916 163.454  0.00  0.00     0.077 HD
BRANCH  44  48
ATOM     48  H   THR d   4       5.553  64.527 164.439  0.00  0.00     0.065 HD
ATOM     49  H   THR d   4       5.055  64.397 164.092  0.00  0.00     0.013 HD
ENDBRANCH  44  48
BRANCH  44  50
ATOM     50  CA  THR d   4       6.527  64.819 162.455  0.00  0.00     0.090 C 
BRANCH  50  51
ATOM     51  CB  THR d   4       7.084  66.212 162.009  0.00  0.00     0.104 C 
ATOM     52  CG2 THR d   4       8.621  66.345 161.942  0.00  0.00     0.017 C 
BRANCH  51  53
ATOM     53  OG1 THR d   4       6.643  66.527 160.694  0.00  0.00    -0.575 OA
ATOM     54  H   THR d   4       6.697  67.410 161.093  0.00  0.00     0.146 HD
ATOM     55  H   THR d   4       6.949  66.570 159.773  0.00  0.00     0.146 HD
BRANCH  53  56
ATOM     56  HG1 THR d   4       5.690  66.404 160.692  0.00  0.00     0.124 HD
ATOM     57  H   THR d   4       5.874  65.815 160.754  0.00  0.00     0.022 HD
ENDBRANCH  53  56
ENDBRANCH  51  53
ENDBRANCH  50  51
BRANCH  50  58
ATOM     58  C   THR d   4       7.642  63.940 162.970  0.00  0.00     0.170 C 
BRANCH  58  59
ATOM     59  O   THR d   4       7.481  62.754 163.182  0.00  0.00    -0.496 OA
ATOM     60  H   THR d   4       8.069  63.075 162.481  0.00  0.00     0.172 HD
ATOM     61  H   THR d   4       6.558  62.895 162.919  0.00  0.00     0.172 HD
ENDBRANCH  58  59
BRANCH  58  62
ATOM     62  N   ILE d   5       7.803  62.812 162.726  0.00  0.00    -0.414 N 
ATOM     63  H   ILE d   5       7.989  63.189 161.796  0.00  0.00     0.077 HD
ATOM     64  H   ILE d   5       6.801  62.651 162.832  0.00  0.00     0.077 HD
ATOM     65  H   ILE d   5       8.118  63.477 163.432  0.00  0.00     0.077 HD
BRANCH  62  66
ATOM     66  H   ILE d   5       6.872  62.332 162.988  0.00  0.00     0.065 HD
ATOM     67  H   ILE d   5       7.295  62.499 163.409  0.00  0.00     0.013 HD
ENDBRANCH  62  66
BRANCH  62  68
ATOM     68  CA  ILE d   5       8.413  62.646 161.410  0.00  0.00     0.073 C 
BRANCH  68  69
ATOM     69  CB  ILE d   5       9.863  62.023 161.522  0.00  0.00     0.003 C 
ATOM     70  CG2 ILE d   5      10.542  61.811 160.132  0.00  0.00    -0.002 C 
BRANCH  69  71
ATOM     71  CG1 ILE d   5      10.852  62.824 162.427  0.00  0.00    -0.004 C 
ATOM     72  CD1 ILE d   5      11.539  64.038 161.765  0.00  0.00    -0.004 C 
ENDBRANCH  69  71
ENDBRANCH  68  69
BRANCH  68  73
ATOM     73  C   ILE d   5       7.523  61.838 160.497  0.00  0.00     0.169 C 
BRANCH  73  74
ATOM     74  O   ILE d   5       6.257  62.420 160.177  0.00  0.00    -0.496 OA
ATOM     75  H   ILE d   5       5.573  62.573 159.506  0.00  0.00     0.172 HD
ATOM     76  H   ILE d   5       7.019  62.992 159.997  0.00  0.00     0.172 HD
ENDBRANCH  73  74
BRANCH  73  77
ATOM     77  N   THR d   6       7.343  60.696 160.658  0.00  0.00    -0.413 N 
ATOM     78  H   THR d   6       7.422  60.614 159.645  0.00  0.00     0.077 HD
ATOM     79  H   THR d   6       7.347  59.765 161.076  0.00  0.00     0.077 HD
ATOM     80  H   THR d   6       6.470  61.170 160.894  0.00  0.00     0.077 HD
BRANCH  77  81
ATOM     81  H   THR d   6       6.353  60.682 161.093  0.00  0.00     0.065 HD
ATOM     82  H   THR d   6       6.543  60.179 160.784  0.00  0.00     0.013 HD
ENDBRANCH  77  81
BRANCH  77  83
ATOM     83  CA  THR d   6       7.699  59.856 159.519  0.00  0.00     0.090 C 
BRANCH  83  84
ATOM     84  CB  THR d   6       8.404  58.544 160.001  0.00  0.00     0.104 C 
ATOM     85  CG2 THR d   6       9.633  58.087 159.183  0.00  0.00     0.017 C 
BRANCH  84  86
ATOM     86  OG1 THR d   6       8.900  58.703 161.326  0.00  0.00    -0.575 OA
ATOM     87  H   THR d   6       8.682  57.756 161.316  0.00  0.00     0.146 HD
ATOM     88  H   THR d   6       8.104  59.219 161.125  0.00  0.00     0.146 HD
BRANCH  86  89
ATOM     89  HG1 THR d   6       8.166  59.035 161.849  0.00  0.00     0.124 HD
ATOM     90  H   THR d   6       8.273  59.529 161.490  0.00  0.00     0.022 HD
ENDBRANCH  86  89
ENDBRANCH  84  86
ENDBRANCH  83  84
BRANCH  83  91
ATOM     91  C   THR d   6       6.484  59.531 158.684  0.00  0.00     0.170 C 
BRANCH  91  92
ATOM     92  O   THR d   6       6.398  59.862 157.518  0.00  0.00    -0.496 OA
ATOM     93  H   THR d   6       7.041  60.268 158.122  0.00  0.00     0.172 HD
ATOM     94  H   THR d   6       6.785  59.067 157.120  0.00  0.00     0.172 HD
ENDBRANCH  91  92
BRANCH  91  95
ATOM     95  N   ASP d   7       6.470  59.305 157.541  0.00  0.00    -0.414 N 
ATOM     96  H   ASP d   7       5.921  58.504 157.853  0.00  0.00     0.077 HD
ATOM     97  H   ASP d   7       5.906  60.151 157.609  0.00  0.00     0.077 HD
ATOM     98  H   ASP d   7       6.756  59.164 156.571  0.00  0.00     0.077 HD
BRANCH  95  99
ATOM     99  H   ASP d   7       7.404  59.119 157.203  0.00  0.00     0.065 HD
ATOM    100  H   ASP d   7       6.962  59.207 156.778  0.00  0.00     0.013 HD
ENDBRANCH  95  99
BRANCH  95 101
ATOM    101  CA  ASP d   7       5.557  58.178 157.215  0.00  0.00     0.076 C 
BRANCH 101 102
ATOM    102  CB  ASP d   7       5.201  58.386 155.730  0.00  0.00     0.055 C 
BRANCH 102 103
ATOM    103  CG  ASP d   7       3.757  58.872 155.433  0.00  0.00     0.240 C 
BRANCH 103 104
ATOM    104  OD1 ASP d   7       3.613  59.589 154.439  0.00  0.00    -0.489 OA
ATOM    105  H   ASP d   7       3.677  59.648 153.473  0.00  0.00     0.172 HD
ATOM    106  H   ASP d   7       4.421  59.183 154.793  0.00  0.00     0.172 HD
ENDBRANCH 103 104
BRANCH 103 107
ATOM    107  OD2 ASP d   7       2.911  58.463 156.229  0.00  0.00    -0.489 OA
ATOM    108  H   ASP d   7       2.273  58.779 155.571  0.00  0.00     0.172 HD
ATOM    109  H   ASP d   7       2.680  57.559 156.496  0.00  0.00     0.172 HD
ENDBRANCH 103 107
ENDBRANCH 102 103
ENDBRANCH 101 102
BRANCH 101 110
ATOM    110  C   ASP d   7       6.025  56.712 157.526  0.00  0.00     0.169 C 
BRANCH 110 111
ATOM    111  O   ASP d   7       5.905  56.161 158.596  0.00  0.00    -0.496 OA
ATOM    112  H   ASP d   7       6.657  55.999 158.006  0.00  0.00     0.172 HD
ATOM    113  H   ASP d   7       5.310  56.812 158.191  0.00  0.00     0.172 HD
ENDBRANCH 110 111
BRANCH 110 114
ATOM    114  N   GLN d   8       5.130  56.167 158.152  0.00  0.00    -0.414 N 
ATOM    115  H   GLN d   8       5.019  55.669 157.268  0.00  0.00     0.077 HD
ATOM    116  H   GLN d   8       5.353  57.145 157.966  0.00  0.00     0.077 HD
ATOM    117  H   GLN d   8       5.884  55.742 158.690  0.00  0.00     0.077 HD
BRANCH 114 118
ATOM    118  H   GLN d   8       5.135  56.510 159.089  0.00  0.00     0.065 HD
ATOM    119  H   GLN d   8       5.026  56.251 158.537  0.00  0.00     0.013 HD
ENDBRANCH 114 118
BRANCH 114 120
ATOM    120  CA  GLN d   8       4.704  54.791 157.904  0.00  0.00     0.072 C 
BRANCH 120 121
ATOM    121  C   GLN d   8       3.841  54.756 156.666  0.00  0.00     0.169 C 
BRANCH 121 122
ATOM    122  O   GLN d   8       2.880  55.507 156.592  0.00  0.00    -0.496 OA
ATOM    123  H   GLN d   8       2.227  56.185 156.358  0.00  0.00     0.172 HD
ATOM    124  H   GLN d   8       2.928  54.845 155.884  0.00  0.00     0.172 HD
ENDBRANCH 121 122
BRANCH 121 125
ATOM    125  N   VAL d   9       4.159  53.860 155.707  0.00  0.00    -0.413 N 
ATOM    126  H   VAL d   9       4.308  54.810 155.366  0.00  0.00     0.077 HD
ATOM    127  H   VAL d   9       3.354  53.450 155.234  0.00  0.00     0.077 HD
ATOM    128  H   VAL d   9       3.987  53.883 156.713  0.00  0.00     0.077 HD
BRANCH 125 129
ATOM    129  H   VAL d   9       3.191  53.383 155.668  0.00  0.00     0.065 HD
ATOM    130  H   VAL d   9       3.303  53.867 156.038  0.00  0.00     0.013 HD
ENDBRANCH 125 129
BRANCH 125 131
ATOM    131  CA  VAL d   9       4.631  54.742 154.643  0.00  0.00     0.083 C 
BRANCH 131 132
ATOM    132  CB  VAL d   9       6.097  54.334 154.219  0.00  0.00     0.002 C 
ATOM    133  CG1 VAL d   9       7.108  55.508 154.243  0.00  0.00    -0.002 C 
ATOM    134  CG2 VAL d   9       6.254  53.684 152.815  0.00  0.00    -0.002 C 
ENDBRANCH 131 132
BRANCH 131 135
ATOM    135  C   VAL d   9       3.697  54.705 153.456  0.00  0.00     0.226 C 
BRANCH 135 136
ATOM    136  O   VAL d   9       2.471  54.616 153.589  0.00  0.00    -0.490 OA
ATOM    137  H   VAL d   9       3.060  55.180 154.114  0.00  0.00     0.172 HD
ATOM    138  H   VAL d   9       1.589  55.019 153.547  0.00  0.00     0.172 HD
ENDBRANCH 135 136
BRANCH 135 139
ATOM    139  OXT VAL d   9       2.822  55.233 153.372  0.00  0.00    -0.560 OA
ATOM    140  H   VAL d   9       3.237  55.686 152.620  0.00  0.00     0.147 HD
ATOM    141  H   VAL d   9       1.929  54.946 153.124  0.00  0.00     0.147 HD
BRANCH 139 142
ATOM    142 AHOC VAL d   9       2.525  55.717 152.607  0.00  0.00     0.126 HD
ATOM    143  H   VAL d   9       1.986  55.941 152.398  0.00  0.00     0.022 HD
ENDBRANCH 139 142
ENDBRANCH 135 139
ENDBRANCH 131 135
ENDBRANCH 125 131
ENDBRANCH 121 125
ENDBRANCH 120 121
BRANCH 120 144
ATOM    144  CB  GLN d   8       3.896  54.179 159.083  0.00  0.00     0.012 C 
BRANCH 144 145
ATOM    145  CG  GLN d   8       4.569  52.924 159.698  0.00  0.00     0.031 C 
BRANCH 145 146
ATOM    146  CD  GLN d   8       3.628  51.774 160.000  0.00  0.00     0.158 C 
BRANCH 146 147
ATOM    147  OE1 GLN d   8       3.246  51.656 161.156  0.00  0.00    -0.497 OA
ATOM    148  H   GLN d   8       3.700  51.184 160.441  0.00  0.00     0.172 HD
ATOM    149  H   GLN d   8       3.854  52.296 161.559  0.00  0.00     0.172 HD
ENDBRANCH 146 147
BRANCH 146 150
ATOM    150  NE2 GLN d   8       3.233  50.905 159.039  0.00  0.00    -0.417 N 
ATOM    151  H   GLN d   8       2.258  51.189 158.941  0.00  0.00     0.075 HD
ATOM    152  H   GLN d   8       3.431  50.698 160.018  0.00  0.00     0.075 HD
ATOM    153  H   GLN d   8       3.841  51.661 158.722  0.00  0.00     0.075 HD
BRANCH 150 154
ATOM    154 1HE2 GLN d   8       2.303  50.544 158.986  0.00  0.00     0.063 HD
ATOM    155  H   GLN d   8       1.708  50.700 159.067  0.00  0.00     0.013 HD
ENDBRANCH 150 154
BRANCH 150 156
ATOM    156 2HE2 GLN d   8       3.896  50.612 158.348  0.00  0.00     0.063 HD
ATOM    157  H   GLN d   8       3.915  50.570 158.966  0.00  0.00     0.013 HD
ENDBRANCH 150 156
ENDBRANCH 146 150
ENDBRANCH 145 146
ENDBRANCH 144 145
ENDBRANCH 120 144
ENDBRANCH 114 120
ENDBRANCH 110 114
ENDBRANCH 101 110
ENDBRANCH  95 101
ENDBRANCH  91  95
ENDBRANCH  83  91
ENDBRANCH  77  83
ENDBRANCH  73  77
ENDBRANCH  68  73
ENDBRANCH  62  68
ENDBRANCH  58  62
ENDBRANCH  50  58
ENDBRANCH  44  50
ENDBRANCH  40  44
ENDBRANCH  32  40
ENDBRANCH  26  32
ENDBRANCH  22  26
ENDBRANCH  20  22
ENDBRANCH  14  20
ENDBRANCH  10  14
ENDBRANCH   9  10
BRANCH   9 158
ATOM    158  CB  LEU d   1       5.249  55.870 163.554  0.00  0.00     0.010 C 
BRANCH 158 159
ATOM    159  CG  LEU d   1       4.610  54.560 162.996  0.00  0.00    -0.010 C 
ATOM    160  CD2 LEU d   1       3.092  54.450 163.319  0.00  0.00    -0.003 C 
ATOM    161  CD1 LEU d   1       5.361  53.327 163.571  0.00  0.00    -0.003 C 
ENDBRANCH 158 159
ENDBRANCH   9 158
ENDBRANCH   3   9
ENDBRANCH   1   3
TORSDOF 71
ENDMDL
MODEL 3
REMARK VINA RESULT:      -8.8      2.379      4.058
REMARK WARNING: 32 MAX_TORS EXCEEDED!!!
REMARK  71 active torsions:
REMARK  status: ('A' for Active; 'I' for Inactive)
REMARK    1  A    between atoms: HNCA_1  and  N_2 
REMARK    2  A    between atoms: N_2  and  H_10 
REMARK    3  A    between atoms: N_2  and  CA_3 
REMARK    4  A    between atoms: CA_3  and  C_4 
REMARK    5  A    between atoms: CA_3  and  CB_6 
REMARK    6  A    between atoms: C_4  and  O_5 
REMARK    7  A    between atoms: C_4  and  N_11 
REMARK    8  A    between atoms: CG_7  and  CB_6 
REMARK    9  A    between atoms: N_11  and  H_16 
REMARK   10  A    between atoms: N_11  and  CA_12 
REMARK   11  A    between atoms: CA_12  and  C_13 
REMARK   12  A    between atoms: O_14  and  C_13 
REMARK   13  A    between atoms: C_13  and  N_17 
REMARK   14  A    between atoms: N_17  and  H_28 
REMARK   15  A    between atoms: N_17  and  CA_18 
REMARK   16  A    between atoms: CA_18  and  CB_21 
REMARK   17  A    between atoms: CA_18  and  C_19 
REMARK   18  A    between atoms: C_19  and  O_20 
REMARK   19  A    between atoms: C_19  and  N_29 
REMARK   20  A    between atoms: CG_22  and  CB_21 
REMARK   21  A    between atoms: N_29  and  H_36 
REMARK   22  A    between atoms: N_29  and  CA_30 
REMARK   23  A    between atoms: CA_30  and  CB_33 
REMARK   24  A    between atoms: CA_30  and  C_31 
REMARK   25  A    between atoms: C_31  and  O_32 
REMARK   26  A    between atoms: C_31  and  N_38 
REMARK   27  A    between atoms: OG1_34  and  CB_33 
REMARK   28  A    between atoms: OG1_34  and  HG1_37 
REMARK   29  A    between atoms: N_38  and  H_46 
REMARK   30  A    between atoms: N_38  and  CA_39 
REMARK   31  A    between atoms: CA_39  and  CB_42 
REMARK   32  A    between atoms: CA_39  and  C_40 
REMARK   33  A    between atoms: C_40  and  O_41 
REMARK   34  A    between atoms: C_40  and  N_47 
REMARK   35  A    between atoms: CG1_43  and  CB_42 
REMARK   36  A    between atoms: N_47  and  H_54 
REMARK   37  A    between atoms: N_47  and  CA_48 
REMARK   38  A    between atoms: CA_48  and  CB_51 
REMARK   39  A    between atoms: CA_48  and  C_49 
REMARK   40  A    between atoms: C_49  and  O_50 
REMARK   41  A    between atoms: C_49  and  N_56 
REMARK   42  A    between atoms: OG1_52  and  CB_51 
REMARK   43  A    between atoms: OG1_52  and  HG1_55 
REMARK   44  A    between atoms: N_56  and  H_64 
REMARK   45  A    between atoms: N_56  and  CA_57 
REMARK   46  A    between atoms: CA_57  and  CB_60 
REMARK   47  A    between atoms: CA_57  and  C_58 
REMARK   48  A    between atoms: C_58  and  O_59 
REMARK   49  A    between atoms: C_58  and  N_65 
REMARK   50  A    between atoms: CB_60  and  CG_61 
REMARK   51  A    between atoms: OD1_62  and  CG_61 
REMARK   52  A    between atoms: CG_61  and  OD2_63 
REMARK   53  A    between atoms: N_65  and  H_74 
REMARK   54  A    between atoms: N_65  and  CA_66 
REMARK   55  A    between atoms: CA_66  and  C_67 
REMARK   56  A    between atoms: CA_66  and  CB_69 
REMARK   57  A    between atoms: O_68  and  C_67 
REMARK   58  A    between atoms: C_67  and  N_77 
REMARK   59  A    between atoms: CG_70  and  CB_69 
REMARK   60  A    between atoms: CG_70  and  CD_71 
REMARK   61  A    between atoms: OE1_72  and  CD_71 
REMARK   62  A    between atoms: CD_71  and  NE2_73 
REMARK   63  A    between atoms: NE2_73  and  HE21_75 
REMARK   64  A    between atoms: NE2_73  and  HE22_76 
REMARK   65  A    between atoms: N_77  and  H_84 
REMARK   66  A    between atoms: N_77  and  CA_78 
REMARK   67  A    between atoms: CA_78  and  CB_81 
REMARK   68  A    between atoms: CA_78  and  C_79 
REMARK   69  A    between atoms: C_79  and  O_80 
REMARK   70  A    between atoms: C_79  and  OXT_85 
REMARK   71  A    between atoms: OXT_85  and  HOCA_86 
ROOT
ATOM      1 AHNC LEU d   1       6.581  56.368 162.652  0.00  0.00     0.061 HD
ATOM      2  H   LEU d   1       6.450  56.741 163.130  0.00  0.00     0.013 HD
ENDROOT
BRANCH   1   3
ATOM      3  N   LEU d   1       6.267  56.580 163.580  0.00  0.00    -0.429 N 
ATOM      4  H   LEU d   1       6.008  57.197 164.349  0.00  0.00     0.073 HD
ATOM      5  H   LEU d   1       6.994  55.935 163.890  0.00  0.00     0.073 HD
ATOM      6  H   LEU d   1       6.618  57.138 162.800  0.00  0.00     0.073 HD
BRANCH   3   7
ATOM      7  H   LEU d   1       6.271  55.825 162.922  0.00  0.00     0.061 HD
ATOM      8  H   LEU d   1       6.133  56.185 163.408  0.00  0.00     0.013 HD
ENDBRANCH   3   7
BRANCH   3   9
ATOM      9  CA  LEU d   1       5.037  57.340 163.789  0.00  0.00     0.069 C 
BRANCH   9  10
ATOM     10  C   LEU d   1       5.074  57.924 165.184  0.00  0.00     0.168 C 
BRANCH  10  11
ATOM     11  O   LEU d   1       5.020  57.170 166.141  0.00  0.00    -0.496 OA
ATOM     12  H   LEU d   1       5.020  56.409 166.742  0.00  0.00     0.172 HD
ATOM     13  H   LEU d   1       5.521  56.949 165.340  0.00  0.00     0.172 HD
ENDBRANCH  10  11
BRANCH  10  14
ATOM     14  N   ALA d   2       5.121  59.292 165.371  0.00  0.00    -0.414 N 
ATOM     15  H   ALA d   2       4.276  59.070 164.845  0.00  0.00     0.077 HD
ATOM     16  H   ALA d   2       5.609  60.065 164.920  0.00  0.00     0.077 HD
ATOM     17  H   ALA d   2       5.731  58.474 165.396  0.00  0.00     0.077 HD
BRANCH  14  18
ATOM     18  H   ALA d   2       5.926  59.731 165.771  0.00  0.00     0.065 HD
ATOM     19  H   ALA d   2       5.358  59.592 165.566  0.00  0.00     0.013 HD
ENDBRANCH  14  18
BRANCH  14  20
ATOM     20  CA  ALA d   2       3.983  60.117 164.984  0.00  0.00     0.071 C 
ATOM     21  CB  ALA d   2       3.300  60.789 166.207  0.00  0.00     0.010 C 
BRANCH  20  22
ATOM     22  C   ALA d   2       4.458  61.188 164.034  0.00  0.00     0.169 C 
BRANCH  22  23
ATOM     23  O   ALA d   2       4.854  60.859 162.928  0.00  0.00    -0.496 OA
ATOM     24  H   ALA d   2       5.356  60.569 162.149  0.00  0.00     0.172 HD
ATOM     25  H   ALA d   2       5.347  61.554 163.390  0.00  0.00     0.172 HD
ENDBRANCH  22  23
BRANCH  22  26
ATOM     26  N   PHE d   3       4.458  62.488 164.480  0.00  0.00    -0.414 N 
ATOM     27  H   PHE d   3       3.820  62.378 163.693  0.00  0.00     0.077 HD
ATOM     28  H   PHE d   3       3.987  62.991 165.232  0.00  0.00     0.077 HD
ATOM     29  H   PHE d   3       5.279  63.015 164.182  0.00  0.00     0.077 HD
BRANCH  26  30
ATOM     30  H   PHE d   3       5.519  62.645 164.346  0.00  0.00     0.065 HD
ATOM     31  H   PHE d   3       5.277  62.081 164.432  0.00  0.00     0.013 HD
ENDBRANCH  26  30
BRANCH  26  32
ATOM     32  CA  PHE d   3       3.467  63.081 163.586  0.00  0.00     0.072 C 
BRANCH  32  33
ATOM     33  CB  PHE d   3       2.305  63.706 164.416  0.00  0.00     0.013 C 
BRANCH  33  34
ATOM     34  CG  PHE d   3       0.889  63.207 164.095  0.00  0.00    -0.007 A 
ATOM     35  CD2 PHE d   3      -0.013  64.013 163.395  0.00  0.00    -0.001 A 
ATOM     36  CE2 PHE d   3      -1.268  63.523 163.053  0.00  0.00    -0.002 A 
ATOM     37  CZ  PHE d   3      -1.628  62.220 163.400  0.00  0.00    -0.003 A 
ATOM     38  CE1 PHE d   3      -0.733  61.411 164.098  0.00  0.00    -0.002 A 
ATOM     39  CD1 PHE d   3       0.516  61.907 164.455  0.00  0.00    -0.001 A 
ENDBRANCH  33  34
ENDBRANCH  32  33
BRANCH  32  40
ATOM     40  C   PHE d   3       4.090  64.155 162.726  0.00  0.00     0.169 C 
BRANCH  40  41
ATOM     41  O   PHE d   3       4.904  64.998 163.193  0.00  0.00    -0.496 OA
ATOM     42  H   PHE d   3       4.794  64.765 162.258  0.00  0.00     0.172 HD
ATOM     43  H   PHE d   3       4.053  64.910 163.650  0.00  0.00     0.172 HD
ENDBRANCH  40  41
BRANCH  40  44
ATOM     44  N   THR d   4       5.222  64.427 162.772  0.00  0.00    -0.413 N 
ATOM     45  H   THR d   4       5.329  63.746 162.021  0.00  0.00     0.077 HD
ATOM     46  H   THR d   4       4.230  64.607 162.930  0.00  0.00     0.077 HD
ATOM     47  H   THR d   4       5.687  65.297 162.513  0.00  0.00     0.077 HD
BRANCH  44  48
ATOM     48  H   THR d   4       5.483  64.121 163.775  0.00  0.00     0.065 HD
ATOM     49  H   THR d   4       5.404  64.727 163.667  0.00  0.00     0.013 HD
ENDBRANCH  44  48
BRANCH  44  50
ATOM     50  CA  THR d   4       5.988  63.995 161.607  0.00  0.00     0.090 C 
BRANCH  50  51
ATOM     51  CB  THR d   4       6.378  65.223 160.719  0.00  0.00     0.104 C 
ATOM     52  CG2 THR d   4       7.593  66.051 161.191  0.00  0.00     0.017 C 
BRANCH  51  53
ATOM     53  OG1 THR d   4       6.727  64.798 159.406  0.00  0.00    -0.575 OA
ATOM     54  H   THR d   4       5.832  65.144 159.263  0.00  0.00     0.146 HD
ATOM     55  H   THR d   4       7.289  65.032 158.650  0.00  0.00     0.146 HD
BRANCH  53  56
ATOM     56  HG1 THR d   4       6.547  63.855 159.372  0.00  0.00     0.124 HD
ATOM     57  H   THR d   4       6.932  63.873 159.858  0.00  0.00     0.022 HD
ENDBRANCH  53  56
ENDBRANCH  51  53
ENDBRANCH  50  51
BRANCH  50  58
ATOM     58  C   THR d   4       7.220  63.227 162.024  0.00  0.00     0.170 C 
BRANCH  58  59
ATOM     59  O   THR d   4       7.198  62.025 162.205  0.00  0.00    -0.496 OA
ATOM     60  H   THR d   4       7.029  62.655 162.923  0.00  0.00     0.172 HD
ATOM     61  H   THR d   4       8.142  62.037 161.981  0.00  0.00     0.172 HD
ENDBRANCH  58  59
BRANCH  58  62
ATOM     62  N   ILE d   5       7.482  62.130 161.732  0.00  0.00    -0.414 N 
ATOM     63  H   ILE d   5       7.946  62.601 160.955  0.00  0.00     0.077 HD
ATOM     64  H   ILE d   5       6.504  61.964 161.495  0.00  0.00     0.077 HD
ATOM     65  H   ILE d   5       7.536  62.715 162.565  0.00  0.00     0.077 HD
BRANCH  62  66
ATOM     66  H   ILE d   5       6.531  61.630 161.632  0.00  0.00     0.065 HD
ATOM     67  H   ILE d   5       6.929  61.694 161.161  0.00  0.00     0.013 HD
ENDBRANCH  62  66
BRANCH  62  68
ATOM     68  CA  ILE d   5       8.486  62.099 160.672  0.00  0.00     0.073 C 
BRANCH  68  69
ATOM     69  CB  ILE d   5       9.850  61.483 161.188  0.00  0.00     0.003 C 
ATOM     70  CG2 ILE d   5      10.662  60.777 160.058  0.00  0.00    -0.002 C 
BRANCH  69  71
ATOM     71  CG1 ILE d   5      10.796  62.498 161.904  0.00  0.00    -0.004 C 
ATOM     72  CD1 ILE d   5      10.813  63.929 161.325  0.00  0.00    -0.004 C 
ENDBRANCH  69  71
ENDBRANCH  68  69
BRANCH  68  73
ATOM     73  C   ILE d   5       7.967  61.373 159.454  0.00  0.00     0.169 C 
BRANCH  73  74
ATOM     74  O   ILE d   5       7.836  62.156 158.265  0.00  0.00    -0.496 OA
ATOM     75  H   ILE d   5       7.514  62.209 157.352  0.00  0.00     0.172 HD
ATOM     76  H   ILE d   5       8.631  61.601 158.295  0.00  0.00     0.172 HD
ENDBRANCH  73  74
BRANCH  73  77
ATOM     77  N   THR d   6       7.039  60.667 159.502  0.00  0.00    -0.413 N 
ATOM     78  H   THR d   6       7.624  59.986 159.018  0.00  0.00     0.077 HD
ATOM     79  H   THR d   6       6.184  60.213 159.824  0.00  0.00     0.077 HD
ATOM     80  H   THR d   6       6.801  61.425 158.862  0.00  0.00     0.077 HD
BRANCH  77  81
ATOM     81  H   THR d   6       6.309  61.212 158.922  0.00  0.00     0.065 HD
ATOM     82  H   THR d   6       6.831  61.034 158.639  0.00  0.00     0.013 HD
ENDBRANCH  77  81
BRANCH  77  83
ATOM     83  CA  THR d   6       7.332  59.260 159.251  0.00  0.00     0.090 C 
BRANCH  83  84
ATOM     84  CB  THR d   6       7.283  58.440 160.584  0.00  0.00     0.104 C 
ATOM     85  CG2 THR d   6       8.645  58.010 161.174  0.00  0.00     0.017 C 
BRANCH  84  86
ATOM     86  OG1 THR d   6       6.676  59.207 161.618  0.00  0.00    -0.575 OA
ATOM     87  H   THR d   6       7.361  59.819 161.305  0.00  0.00     0.146 HD
ATOM     88  H   THR d   6       7.090  58.382 161.914  0.00  0.00     0.146 HD
BRANCH  86  89
ATOM     89  HG1 THR d   6       7.078  58.915 162.440  0.00  0.00     0.124 HD
ATOM     90  H   THR d   6       6.533  58.623 162.479  0.00  0.00     0.022 HD
ENDBRANCH  86  89
ENDBRANCH  84  86
ENDBRANCH  83  84
BRANCH  83  91
ATOM     91  C   THR d   6       6.377  58.679 158.236  0.00  0.00     0.170 C 
BRANCH  91  92
ATOM     92  O   THR d   6       6.674  58.570 157.062  0.00  0.00    -0.496 OA
ATOM     93  H   THR d   6       7.285  58.951 157.714  0.00  0.00     0.172 HD
ATOM     94  H   THR d   6       6.787  57.607 157.039  0.00  0.00     0.172 HD
ENDBRANCH  91  92
BRANCH  91  95
ATOM     95  N   ASP d   7       6.663  58.057 157.293  0.00  0.00    -0.414 N 
ATOM     96  H   ASP d   7       6.317  57.291 157.872  0.00  0.00     0.077 HD
ATOM     97  H   ASP d   7       5.876  58.616 156.963  0.00  0.00     0.077 HD
ATOM     98  H   ASP d   7       7.168  57.676 156.493  0.00  0.00     0.077 HD
BRANCH  95  99
ATOM     99  H   ASP d   7       7.658  58.096 157.129  0.00  0.00     0.065 HD
ATOM    100  H   ASP d   7       7.289  58.319 156.683  0.00  0.00     0.013 HD
ENDBRANCH  95  99
BRANCH  95 101
ATOM    101  CA  ASP d   7       6.201  56.648 157.405  0.00  0.00     0.076 C 
BRANCH 101 102
ATOM    102  CB  ASP d   7       5.415  56.395 156.103  0.00  0.00     0.055 C 
BRANCH 102 103
ATOM    103  CG  ASP d   7       3.902  56.746 156.137  0.00  0.00     0.240 C 
BRANCH 103 104
ATOM    104  OD1 ASP d   7       3.118  55.796 156.064  0.00  0.00    -0.489 OA
ATOM    105  H   ASP d   7       2.973  54.856 156.251  0.00  0.00     0.172 HD
ATOM    106  H   ASP d   7       3.983  55.913 155.639  0.00  0.00     0.172 HD
ENDBRANCH 103 104
BRANCH 103 107
ATOM    107  OD2 ASP d   7       3.664  57.949 156.250  0.00  0.00    -0.489 OA
ATOM    108  H   ASP d   7       4.477  57.965 156.780  0.00  0.00     0.172 HD
ATOM    109  H   ASP d   7       3.690  58.663 155.594  0.00  0.00     0.172 HD
ENDBRANCH 103 107
ENDBRANCH 102 103
ENDBRANCH 101 102
BRANCH 101 110
ATOM    110  C   ASP d   7       7.260  55.527 157.700  0.00  0.00     0.169 C 
BRANCH 110 111
ATOM    111  O   ASP d   7       8.010  55.520 158.649  0.00  0.00    -0.496 OA
ATOM    112  H   ASP d   7       7.453  56.283 158.429  0.00  0.00     0.172 HD
ATOM    113  H   ASP d   7       7.856  54.810 158.006  0.00  0.00     0.172 HD
ENDBRANCH 110 111
BRANCH 110 114
ATOM    114  N   GLN d   8       7.190  55.263 158.890  0.00  0.00    -0.414 N 
ATOM    115  H   GLN d   8       6.306  54.850 158.593  0.00  0.00     0.077 HD
ATOM    116  H   GLN d   8       7.349  56.131 158.378  0.00  0.00     0.077 HD
ATOM    117  H   GLN d   8       7.950  54.612 158.700  0.00  0.00     0.077 HD
BRANCH 114 118
ATOM    118  H   GLN d   8       8.031  55.560 159.338  0.00  0.00     0.065 HD
ATOM    119  H   GLN d   8       7.552  55.266 159.075  0.00  0.00     0.013 HD
ENDBRANCH 114 118
BRANCH 114 120
ATOM    120  CA  GLN d   8       6.488  54.091 159.408  0.00  0.00     0.072 C 
BRANCH 120 121
ATOM    121  C   GLN d   8       6.873  53.884 160.854  0.00  0.00     0.169 C 
BRANCH 121 122
ATOM    122  O   GLN d   8       7.371  54.810 161.474  0.00  0.00    -0.496 OA
ATOM    123  H   GLN d   8       7.955  55.477 161.868  0.00  0.00     0.172 HD
ATOM    124  H   GLN d   8       7.321  54.950 160.515  0.00  0.00     0.172 HD
ENDBRANCH 121 122
BRANCH 121 125
ATOM    125  N   VAL d   9       6.676  52.657 161.383  0.00  0.00    -0.413 N 
ATOM    126  H   VAL d   9       5.917  53.282 161.652  0.00  0.00     0.077 HD
ATOM    127  H   VAL d   9       7.255  52.455 162.198  0.00  0.00     0.077 HD
ATOM    128  H   VAL d   9       7.245  53.102 160.663  0.00  0.00     0.077 HD
BRANCH 125 129
ATOM    129  H   VAL d   9       7.606  52.616 161.932  0.00  0.00     0.065 HD
ATOM    130  H   VAL d   9       7.339  52.107 161.699  0.00  0.00     0.013 HD
ENDBRANCH 125 129
BRANCH 125 131
ATOM    131  CA  VAL d   9       5.391  52.840 162.051  0.00  0.00     0.083 C 
BRANCH 131 132
ATOM    132  CB  VAL d   9       4.368  51.743 161.557  0.00  0.00     0.002 C 
ATOM    133  CG1 VAL d   9       3.173  51.519 162.519  0.00  0.00    -0.002 C 
ATOM    134  CG2 VAL d   9       4.952  50.327 161.289  0.00  0.00    -0.002 C 
ENDBRANCH 131 132
BRANCH 131 135
ATOM    135  C   VAL d   9       5.549  52.792 163.552  0.00  0.00     0.226 C 
BRANCH 135 136
ATOM    136  O   VAL d   9       6.158  53.670 164.176  0.00  0.00    -0.490 OA
ATOM    137  H   VAL d   9       5.488  53.820 163.491  0.00  0.00     0.172 HD
ATOM    138  H   VAL d   9       6.155  54.413 164.800  0.00  0.00     0.172 HD
ENDBRANCH 135 136
BRANCH 135 139
ATOM    139  OXT VAL d   9       5.420  53.585 164.189  0.00  0.00    -0.560 OA
ATOM    140  H   VAL d   9       5.792  54.137 163.484  0.00  0.00     0.147 HD
ATOM    141  H   VAL d   9       4.612  53.999 164.533  0.00  0.00     0.147 HD
BRANCH 139 142
ATOM    142 AHOC VAL d   9       5.399  54.506 163.949  0.00  0.00     0.126 HD
ATOM    143  H   VAL d   9       5.586  54.850 163.468  0.00  0.00     0.022 HD
ENDBRANCH 139 142
ENDBRANCH 135 139
ENDBRANCH 131 135
ENDBRANCH 125 131
ENDBRANCH 121 125
ENDBRANCH 120 121
BRANCH 120 144
ATOM    144  CB  GLN d   8       6.810  52.788 158.624  0.00  0.00     0.012 C 
BRANCH 144 145
ATOM    145  CG  GLN d   8       5.545  52.075 158.077  0.00  0.00     0.031 C 
BRANCH 145 146
ATOM    146  CD  GLN d   8       4.479  52.998 157.518  0.00  0.00     0.158 C 
BRANCH 146 147
ATOM    147  OE1 GLN d   8       4.414  53.099 156.301  0.00  0.00    -0.497 OA
ATOM    148  H   GLN d   8       5.030  53.152 157.049  0.00  0.00     0.172 HD
ATOM    149  H   GLN d   8       4.224  52.168 156.103  0.00  0.00     0.172 HD
ENDBRANCH 146 147
BRANCH 146 150
ATOM    150  NE2 GLN d   8       3.640  53.689 158.325  0.00  0.00    -0.417 N 
ATOM    151  H   GLN d   8       3.827  53.218 159.211  0.00  0.00     0.075 HD
ATOM    152  H   GLN d   8       3.390  52.998 157.618  0.00  0.00     0.075 HD
ATOM    153  H   GLN d   8       4.475  54.195 158.027  0.00  0.00     0.075 HD
BRANCH 150 154
ATOM    154 1HE2 GLN d   8       3.188  53.276 159.116  0.00  0.00     0.063 HD
ATOM    155  H   GLN d   8       2.752  52.865 159.274  0.00  0.00     0.013 HD
ENDBRANCH 150 154
BRANCH 150 156
ATOM    156 2HE2 GLN d   8       3.464  54.655 158.129  0.00  0.00     0.063 HD
ATOM    157  H   GLN d   8       3.696  54.384 158.636  0.00  0.00     0.013 HD
ENDBRANCH 150 156
ENDBRANCH 146 150
ENDBRANCH 145 146
ENDBRANCH 144 145
ENDBRANCH 120 144
ENDBRANCH 114 120
ENDBRANCH 110 114
ENDBRANCH 101 110
ENDBRANCH  95 101
ENDBRANCH  91  95
ENDBRANCH  83  91
ENDBRANCH  77  83
ENDBRANCH  73  77
ENDBRANCH  68  73
ENDBRANCH  62  68
ENDBRANCH  58  62
ENDBRANCH  50  58
ENDBRANCH  44  50
ENDBRANCH  40  44
ENDBRANCH  32  40
ENDBRANCH  26  32
ENDBRANCH  22  26
ENDBRANCH  20  22
ENDBRANCH  14  20
ENDBRANCH  10  14
ENDBRANCH   9  10
BRANCH   9 158
ATOM    158  CB  LEU d   1       3.751  56.479 163.637  0.00  0.00     0.010 C 
BRANCH 158 159
ATOM    159  CG  LEU d   1       3.238  56.324 162.172  0.00  0.00    -0.010 C 
ATOM    160  CD2 LEU d   1       2.485  54.982 161.939  0.00  0.00    -0.003 C 
ATOM    161  CD1 LEU d   1       4.434  56.433 161.185  0.00  0.00    -0.003 C 
ENDBRANCH 158 159
ENDBRANCH   9 158
ENDBRANCH   3   9
ENDBRANCH   1   3
TORSDOF 71
ENDMDL
MODEL 4
REMARK VINA RESULT:      -8.8      4.625      9.843
REMARK WARNING: 32 MAX_TORS EXCEEDED!!!
REMARK  71 active torsions:
REMARK  status: ('A' for Active; 'I' for Inactive)
REMARK    1  A    between atoms: HNCA_1  and  N_2 
REMARK    2  A    between atoms: N_2  and  H_10 
REMARK    3  A    between atoms: N_2  and  CA_3 
REMARK    4  A    between atoms: CA_3  and  C_4 
REMARK    5  A    between atoms: CA_3  and  CB_6 
REMARK    6  A    between atoms: C_4  and  O_5 
REMARK    7  A    between atoms: C_4  and  N_11 
REMARK    8  A    between atoms: CG_7  and  CB_6 
REMARK    9  A    between atoms: N_11  and  H_16 
REMARK   10  A    between atoms: N_11  and  CA_12 
REMARK   11  A    between atoms: CA_12  and  C_13 
REMARK   12  A    between atoms: O_14  and  C_13 
REMARK   13  A    between atoms: C_13  and  N_17 
REMARK   14  A    between atoms: N_17  and  H_28 
REMARK   15  A    between atoms: N_17  and  CA_18 
REMARK   16  A    between atoms: CA_18  and  CB_21 
REMARK   17  A    between atoms: CA_18  and  C_19 
REMARK   18  A    between atoms: C_19  and  O_20 
REMARK   19  A    between atoms: C_19  and  N_29 
REMARK   20  A    between atoms: CG_22  and  CB_21 
REMARK   21  A    between atoms: N_29  and  H_36 
REMARK   22  A    between atoms: N_29  and  CA_30 
REMARK   23  A    between atoms: CA_30  and  CB_33 
REMARK   24  A    between atoms: CA_30  and  C_31 
REMARK   25  A    between atoms: C_31  and  O_32 
REMARK   26  A    between atoms: C_31  and  N_38 
REMARK   27  A    between atoms: OG1_34  and  CB_33 
REMARK   28  A    between atoms: OG1_34  and  HG1_37 
REMARK   29  A    between atoms: N_38  and  H_46 
REMARK   30  A    between atoms: N_38  and  CA_39 
REMARK   31  A    between atoms: CA_39  and  CB_42 
REMARK   32  A    between atoms: CA_39  and  C_40 
REMARK   33  A    between atoms: C_40  and  O_41 
REMARK   34  A    between atoms: C_40  and  N_47 
REMARK   35  A    between atoms: CG1_43  and  CB_42 
REMARK   36  A    between atoms: N_47  and  H_54 
REMARK   37  A    between atoms: N_47  and  CA_48 
REMARK   38  A    between atoms: CA_48  and  CB_51 
REMARK   39  A    between atoms: CA_48  and  C_49 
REMARK   40  A    between atoms: C_49  and  O_50 
REMARK   41  A    between atoms: C_49  and  N_56 
REMARK   42  A    between atoms: OG1_52  and  CB_51 
REMARK   43  A    between atoms: OG1_52  and  HG1_55 
REMARK   44  A    between atoms: N_56  and  H_64 
REMARK   45  A    between atoms: N_56  and  CA_57 
REMARK   46  A    between atoms: CA_57  and  CB_60 
REMARK   47  A    between atoms: CA_57  and  C_58 
REMARK   48  A    between atoms: C_58  and  O_59 
REMARK   49  A    between atoms: C_58  and  N_65 
REMARK   50  A    between atoms: CB_60  and  CG_61 
REMARK   51  A    between atoms: OD1_62  and  CG_61 
REMARK   52  A    between atoms: CG_61  and  OD2_63 
REMARK   53  A    between atoms: N_65  and  H_74 
REMARK   54  A    between atoms: N_65  and  CA_66 
REMARK   55  A    between atoms: CA_66  and  C_67 
REMARK   56  A    between atoms: CA_66  and  CB_69 
REMARK   57  A    between atoms: O_68  and  C_67 
REMARK   58  A    between atoms: C_67  and  N_77 
REMARK   59  A    between atoms: CG_70  and  CB_69 
REMARK   60  A    between atoms: CG_70  and  CD_71 
REMARK   61  A    between atoms: OE1_72  and  CD_71 
REMARK   62  A    between atoms: CD_71  and  NE2_73 
REMARK   63  A    between atoms: NE2_73  and  HE21_75 
REMARK   64  A    between atoms: NE2_73  and  HE22_76 
REMARK   65  A    between atoms: N_77  and  H_84 
REMARK   66  A    between atoms: N_77  and  CA_78 
REMARK   67  A    between atoms: CA_78  and  CB_81 
REMARK   68  A    between atoms: CA_78  and  C_79 
REMARK   69  A    between atoms: C_79  and  O_80 
REMARK   70  A    between atoms: C_79  and  OXT_85 
REMARK   71  A    between atoms: OXT_85  and  HOCA_86 
ROOT
ATOM      1 AHNC LEU d   1       6.772  59.017 162.336  0.00  0.00     0.061 HD
ATOM      2  H   LEU d   1       6.317  59.134 161.930  0.00  0.00     0.013 HD
ENDROOT
BRANCH   1   3
ATOM      3  N   LEU d   1       5.966  58.792 161.784  0.00  0.00    -0.429 N 
ATOM      4  H   LEU d   1       5.386  58.194 161.196  0.00  0.00     0.073 HD
ATOM      5  H   LEU d   1       6.146  59.672 161.302  0.00  0.00     0.073 HD
ATOM      6  H   LEU d   1       6.851  58.322 161.978  0.00  0.00     0.073 HD
BRANCH   3   7
ATOM      7  H   LEU d   1       6.262  59.441 162.487  0.00  0.00     0.061 HD
ATOM      8  H   LEU d   1       5.988  59.194 161.989  0.00  0.00     0.013 HD
ENDBRANCH   3   7
BRANCH   3   9
ATOM      9  CA  LEU d   1       5.100  57.676 162.160  0.00  0.00     0.069 C 
BRANCH   9  10
ATOM     10  C   LEU d   1       4.141  58.161 163.225  0.00  0.00     0.168 C 
BRANCH  10  11
ATOM     11  O   LEU d   1       3.011  57.702 163.254  0.00  0.00    -0.496 OA
ATOM     12  H   LEU d   1       2.218  57.159 163.378  0.00  0.00     0.172 HD
ATOM     13  H   LEU d   1       3.694  57.426 163.884  0.00  0.00     0.172 HD
ENDBRANCH  10  11
BRANCH  10  14
ATOM     14  N   ALA d   2       4.523  59.142 164.119  0.00  0.00    -0.414 N 
ATOM     15  H   ALA d   2       3.680  59.457 163.639  0.00  0.00     0.077 HD
ATOM     16  H   ALA d   2       5.216  59.889 164.118  0.00  0.00     0.077 HD
ATOM     17  H   ALA d   2       4.902  58.325 163.639  0.00  0.00     0.077 HD
BRANCH  14  18
ATOM     18  H   ALA d   2       5.389  59.079 164.616  0.00  0.00     0.065 HD
ATOM     19  H   ALA d   2       4.918  59.246 164.249  0.00  0.00     0.013 HD
ENDBRANCH  14  18
BRANCH  14  20
ATOM     20  CA  ALA d   2       3.655  60.291 164.351  0.00  0.00     0.071 C 
ATOM     21  CB  ALA d   2       3.250  60.432 165.844  0.00  0.00     0.010 C 
BRANCH  20  22
ATOM     22  C   ALA d   2       4.378  61.541 163.915  0.00  0.00     0.169 C 
BRANCH  22  23
ATOM     23  O   ALA d   2       5.060  61.505 162.905  0.00  0.00    -0.496 OA
ATOM     24  H   ALA d   2       5.658  61.674 162.160  0.00  0.00     0.172 HD
ATOM     25  H   ALA d   2       4.449  62.251 163.004  0.00  0.00     0.172 HD
ENDBRANCH  22  23
BRANCH  22  26
ATOM     26  N   PHE d   3       4.260  62.659 164.708  0.00  0.00    -0.414 N 
ATOM     27  H   PHE d   3       3.722  62.769 163.848  0.00  0.00     0.077 HD
ATOM     28  H   PHE d   3       3.681  62.917 165.507  0.00  0.00     0.077 HD
ATOM     29  H   PHE d   3       5.082  63.262 164.675  0.00  0.00     0.077 HD
BRANCH  26  30
ATOM     30  H   PHE d   3       5.320  62.865 164.756  0.00  0.00     0.065 HD
ATOM     31  H   PHE d   3       4.997  62.677 165.250  0.00  0.00     0.013 HD
ENDBRANCH  26  30
BRANCH  26  32
ATOM     32  CA  PHE d   3       3.349  63.468 163.902  0.00  0.00     0.072 C 
BRANCH  32  33
ATOM     33  CB  PHE d   3       2.054  63.780 164.711  0.00  0.00     0.013 C 
BRANCH  33  34
ATOM     34  CG  PHE d   3       0.749  63.175 164.176  0.00  0.00    -0.007 A 
ATOM     35  CD2 PHE d   3       0.385  61.864 164.493  0.00  0.00    -0.001 A 
ATOM     36  CE2 PHE d   3      -0.832  61.352 164.057  0.00  0.00    -0.002 A 
ATOM     37  CZ  PHE d   3      -1.699  62.149 163.308  0.00  0.00    -0.003 A 
ATOM     38  CE1 PHE d   3      -1.341  63.458 162.988  0.00  0.00    -0.002 A 
ATOM     39  CD1 PHE d   3      -0.117  63.965 163.411  0.00  0.00    -0.001 A 
ENDBRANCH  33  34
ENDBRANCH  32  33
BRANCH  32  40
ATOM     40  C   PHE d   3       3.998  64.768 163.493  0.00  0.00     0.169 C 
BRANCH  40  41
ATOM     41  O   PHE d   3       4.415  65.603 164.341  0.00  0.00    -0.496 OA
ATOM     42  H   PHE d   3       4.727  64.691 164.235  0.00  0.00     0.172 HD
ATOM     43  H   PHE d   3       4.140  65.953 163.480  0.00  0.00     0.172 HD
ENDBRANCH  40  41
BRANCH  40  44
ATOM     44  N   THR d   4       4.967  65.179 163.995  0.00  0.00    -0.413 N 
ATOM     45  H   THR d   4       5.407  65.006 163.092  0.00  0.00     0.077 HD
ATOM     46  H   THR d   4       3.956  65.070 163.907  0.00  0.00     0.077 HD
ATOM     47  H   THR d   4       5.181  66.127 164.302  0.00  0.00     0.077 HD
BRANCH  44  48
ATOM     48  H   THR d   4       5.129  64.459 164.784  0.00  0.00     0.065 HD
ATOM     49  H   THR d   4       5.273  64.293 164.205  0.00  0.00     0.013 HD
ENDBRANCH  44  48
BRANCH  44  50
ATOM     50  CA  THR d   4       6.019  65.544 163.052  0.00  0.00     0.090 C 
BRANCH  50  51
ATOM     51  CB  THR d   4       7.002  66.577 163.698  0.00  0.00     0.104 C 
ATOM     52  CG2 THR d   4       8.468  66.118 163.861  0.00  0.00     0.017 C 
BRANCH  51  53
ATOM     53  OG1 THR d   4       7.085  67.753 162.901  0.00  0.00    -0.575 OA
ATOM     54  H   THR d   4       7.397  67.078 162.278  0.00  0.00     0.146 HD
ATOM     55  H   THR d   4       6.535  68.398 162.429  0.00  0.00     0.146 HD
BRANCH  53  56
ATOM     56  HG1 THR d   4       7.921  68.171 163.125  0.00  0.00     0.124 HD
ATOM     57  H   THR d   4       7.979  67.640 163.440  0.00  0.00     0.022 HD
ENDBRANCH  53  56
ENDBRANCH  51  53
ENDBRANCH  50  51
BRANCH  50  58
ATOM     58  C   THR d   4       6.769  64.322 162.577  0.00  0.00     0.170 C 
BRANCH  58  59
ATOM     59  O   THR d   4       6.406  63.680 161.611  0.00  0.00    -0.496 OA
ATOM     60  H   THR d   4       5.907  64.447 161.934  0.00  0.00     0.172 HD
ATOM     61  H   THR d   4       6.291  62.938 162.224  0.00  0.00     0.172 HD
ENDBRANCH  58  59
BRANCH  58  62
ATOM     62  N   ILE d   5       6.874  63.961 161.475  0.00  0.00    -0.414 N 
ATOM     63  H   ILE d   5       7.585  64.691 161.456  0.00  0.00     0.077 HD
ATOM     64  H   ILE d   5       5.963  64.367 161.260  0.00  0.00     0.077 HD
ATOM     65  H   ILE d   5       6.847  63.537 162.401  0.00  0.00     0.077 HD
BRANCH  62  66
ATOM     66  H   ILE d   5       5.892  64.085 161.043  0.00  0.00     0.065 HD
ATOM     67  H   ILE d   5       6.001  64.131 161.652  0.00  0.00     0.013 HD
ENDBRANCH  62  66
BRANCH  62  68
ATOM     68  CA  ILE d   5       8.069  64.525 160.854  0.00  0.00     0.073 C 
BRANCH  68  69
ATOM     69  CB  ILE d   5       8.955  63.399 160.181  0.00  0.00     0.003 C 
ATOM     70  CG2 ILE d   5       9.970  62.752 161.175  0.00  0.00    -0.002 C 
BRANCH  69  71
ATOM     71  CG1 ILE d   5       8.146  62.251 159.499  0.00  0.00    -0.004 C 
ATOM     72  CD1 ILE d   5       8.385  62.064 157.986  0.00  0.00    -0.004 C 
ENDBRANCH  69  71
ENDBRANCH  68  69
BRANCH  68  73
ATOM     73  C   ILE d   5       7.707  65.615 159.874  0.00  0.00     0.169 C 
BRANCH  73  74
ATOM     74  O   ILE d   5       6.915  65.215 158.753  0.00  0.00    -0.496 OA
ATOM     75  H   ILE d   5       6.385  64.521 158.332  0.00  0.00     0.172 HD
ATOM     76  H   ILE d   5       7.856  64.990 158.681  0.00  0.00     0.172 HD
ENDBRANCH  73  74
BRANCH  73  77
ATOM     77  N   THR d   6       8.495  66.381 159.480  0.00  0.00    -0.413 N 
ATOM     78  H   THR d   6       7.836  67.101 159.777  0.00  0.00     0.077 HD
ATOM     79  H   THR d   6       9.386  66.815 159.238  0.00  0.00     0.077 HD
ATOM     80  H   THR d   6       8.121  65.894 158.664  0.00  0.00     0.077 HD
BRANCH  77  81
ATOM     81  H   THR d   6       8.541  66.138 158.428  0.00  0.00     0.065 HD
ATOM     82  H   THR d   6       8.434  66.728 158.586  0.00  0.00     0.013 HD
ENDBRANCH  77  81
BRANCH  77  83
ATOM     83  CA  THR d   6       8.301  67.749 159.950  0.00  0.00     0.090 C 
BRANCH  83  84
ATOM     84  CB  THR d   6       9.662  68.372 160.408  0.00  0.00     0.104 C 
ATOM     85  CG2 THR d   6      10.177  69.574 159.585  0.00  0.00     0.017 C 
BRANCH  84  86
ATOM     86  OG1 THR d   6       9.560  68.870 161.737  0.00  0.00    -0.575 OA
ATOM     87  H   THR d   6       8.703  68.425 161.634  0.00  0.00     0.146 HD
ATOM     88  H   THR d   6       9.654  69.552 161.055  0.00  0.00     0.146 HD
BRANCH  86  89
ATOM     89  HG1 THR d   6       9.281  69.786 161.660  0.00  0.00     0.124 HD
ATOM     90  H   THR d   6       8.955  69.535 161.196  0.00  0.00     0.022 HD
ENDBRANCH  86  89
ENDBRANCH  84  86
ENDBRANCH  83  84
BRANCH  83  91
ATOM     91  C   THR d   6       7.659  68.603 158.883  0.00  0.00     0.170 C 
BRANCH  91  92
ATOM     92  O   THR d   6       6.485  68.488 158.587  0.00  0.00    -0.496 OA
ATOM     93  H   THR d   6       7.194  68.376 157.933  0.00  0.00     0.172 HD
ATOM     94  H   THR d   6       6.316  67.641 159.028  0.00  0.00     0.172 HD
ENDBRANCH  91  92
BRANCH  91  95
ATOM     95  N   ASP d   7       6.554  68.973 158.864  0.00  0.00    -0.414 N 
ATOM     96  H   ASP d   7       6.970  69.785 159.320  0.00  0.00     0.077 HD
ATOM     97  H   ASP d   7       6.806  68.971 157.877  0.00  0.00     0.077 HD
ATOM     98  H   ASP d   7       5.538  69.015 158.955  0.00  0.00     0.077 HD
BRANCH  95  99
ATOM     99  H   ASP d   7       5.969  68.376 159.431  0.00  0.00     0.065 HD
ATOM    100  H   ASP d   7       5.726  68.590 158.903  0.00  0.00     0.013 HD
ENDBRANCH  95  99
BRANCH  95 101
ATOM    101  CA  ASP d   7       6.442  70.390 159.299  0.00  0.00     0.076 C 
BRANCH 101 102
ATOM    102  CB  ASP d   7       5.264  70.953 158.481  0.00  0.00     0.055 C 
BRANCH 102 103
ATOM    103  CG  ASP d   7       5.136  72.500 158.438  0.00  0.00     0.240 C 
BRANCH 103 104
ATOM    104  OD1 ASP d   7       5.633  73.064 157.459  0.00  0.00    -0.489 OA
ATOM    105  H   ASP d   7       6.037  72.952 156.584  0.00  0.00     0.172 HD
ATOM    106  H   ASP d   7       6.043  72.448 158.087  0.00  0.00     0.172 HD
ENDBRANCH 103 104
BRANCH 103 107
ATOM    107  OD2 ASP d   7       4.530  72.985 159.394  0.00  0.00    -0.489 OA
ATOM    108  H   ASP d   7       4.621  72.100 159.781  0.00  0.00     0.172 HD
ATOM    109  H   ASP d   7       4.802  73.652 160.043  0.00  0.00     0.172 HD
ENDBRANCH 103 107
ENDBRANCH 102 103
ENDBRANCH 101 102
BRANCH 101 110
ATOM    110  C   ASP d   7       6.318  70.702 160.833  0.00  0.00     0.169 C 
BRANCH 110 111
ATOM    111  O   ASP d   7       7.198  70.534 161.645  0.00  0.00    -0.496 OA
ATOM    112  H   ASP d   7       7.363  70.905 160.764  0.00  0.00     0.172 HD
ATOM    113  H   ASP d   7       6.252  70.342 161.744  0.00  0.00     0.172 HD
ENDBRANCH 110 111
BRANCH 110 114
ATOM    114  N   GLN d   8       7.338  71.279 161.172  0.00  0.00    -0.414 N 
ATOM    115  H   GLN d   8       6.663  71.985 161.465  0.00  0.00     0.077 HD
ATOM    116  H   GLN d   8       7.035  70.862 160.292  0.00  0.00     0.077 HD
ATOM    117  H   GLN d   8       7.405  70.556 161.887  0.00  0.00     0.077 HD
BRANCH 114 118
ATOM    118  H   GLN d   8       8.120  70.682 161.001  0.00  0.00     0.065 HD
ATOM    119  H   GLN d   8       7.573  70.970 161.049  0.00  0.00     0.013 HD
ENDBRANCH 114 118
BRANCH 114 120
ATOM    120  CA  GLN d   8       7.393  72.213 162.295  0.00  0.00     0.072 C 
BRANCH 120 121
ATOM    121  C   GLN d   8       7.041  73.597 161.805  0.00  0.00     0.169 C 
BRANCH 121 122
ATOM    122  O   GLN d   8       5.869  73.940 161.789  0.00  0.00    -0.496 OA
ATOM    123  H   GLN d   8       4.969  74.237 161.996  0.00  0.00     0.172 HD
ATOM    124  H   GLN d   8       6.495  74.660 161.964  0.00  0.00     0.172 HD
ENDBRANCH 121 122
BRANCH 121 125
ATOM    125  N   VAL d   9       8.051  74.381 161.369  0.00  0.00    -0.413 N 
ATOM    126  H   VAL d   9       7.414  74.166 160.601  0.00  0.00     0.077 HD
ATOM    127  H   VAL d   9       8.932  73.888 161.228  0.00  0.00     0.077 HD
ATOM    128  H   VAL d   9       7.632  74.084 162.251  0.00  0.00     0.077 HD
BRANCH 125 129
ATOM    129  H   VAL d   9       8.849  73.711 161.654  0.00  0.00     0.065 HD
ATOM    130  H   VAL d   9       8.264  73.516 161.590  0.00  0.00     0.013 HD
ENDBRANCH 125 129
BRANCH 125 131
ATOM    131  CA  VAL d   9       7.670  74.581 159.973  0.00  0.00     0.083 C 
BRANCH 131 132
ATOM    132  CB  VAL d   9       7.523  76.125 159.674  0.00  0.00     0.002 C 
ATOM    133  CG1 VAL d   9       6.194  76.506 158.975  0.00  0.00    -0.002 C 
ATOM    134  CG2 VAL d   9       8.643  76.770 158.808  0.00  0.00    -0.002 C 
ENDBRANCH 131 132
BRANCH 131 135
ATOM    135  C   VAL d   9       8.675  73.945 159.042  0.00  0.00     0.226 C 
BRANCH 135 136
ATOM    136  O   VAL d   9       9.035  72.769 159.170  0.00  0.00    -0.490 OA
ATOM    137  H   VAL d   9       8.633  73.318 159.860  0.00  0.00     0.172 HD
ATOM    138  H   VAL d   9       8.819  71.836 159.331  0.00  0.00     0.172 HD
ENDBRANCH 135 136
BRANCH 135 139
ATOM    139  OXT VAL d   9       8.592  73.012 158.625  0.00  0.00    -0.560 OA
ATOM    140  H   VAL d   9       8.198  73.454 157.857  0.00  0.00     0.147 HD
ATOM    141  H   VAL d   9       9.271  72.387 158.326  0.00  0.00     0.147 HD
BRANCH 139 142
ATOM    142 AHOC VAL d   9       8.468  72.814 157.702  0.00  0.00     0.126 HD
ATOM    143  H   VAL d   9       8.820  72.610 157.234  0.00  0.00     0.022 HD
ENDBRANCH 139 142
ENDBRANCH 135 139
ENDBRANCH 131 135
ENDBRANCH 125 131
ENDBRANCH 121 125
ENDBRANCH 120 121
BRANCH 120 144
ATOM    144  CB  GLN d   8       8.791  72.274 162.973  0.00  0.00     0.012 C 
BRANCH 144 145
ATOM    145  CG  GLN d   8       8.734  72.077 164.510  0.00  0.00     0.031 C 
BRANCH 145 146
ATOM    146  CD  GLN d   8       9.083  70.682 164.992  0.00  0.00     0.158 C 
BRANCH 146 147
ATOM    147  OE1 GLN d   8       8.540  69.745 164.424  0.00  0.00    -0.497 OA
ATOM    148  H   GLN d   8       8.868  70.039 165.288  0.00  0.00     0.172 HD
ATOM    149  H   GLN d   8       7.695  70.182 164.232  0.00  0.00     0.172 HD
ENDBRANCH 146 147
BRANCH 146 150
ATOM    150  NE2 GLN d   8       9.948  70.477 166.013  0.00  0.00    -0.417 N 
ATOM    151  H   GLN d   8       9.370  69.888 166.613  0.00  0.00     0.075 HD
ATOM    152  H   GLN d   8       9.444  71.335 165.792  0.00  0.00     0.075 HD
ATOM    153  H   GLN d   8      10.164  69.976 165.151  0.00  0.00     0.075 HD
BRANCH 150 154
ATOM    154 1HE2 GLN d   8       9.649  70.358 166.960  0.00  0.00     0.063 HD
ATOM    155  H   GLN d   8       9.854  70.211 167.526  0.00  0.00     0.013 HD
ENDBRANCH 150 154
BRANCH 150 156
ATOM    156 2HE2 GLN d   8      10.930  70.439 165.818  0.00  0.00     0.063 HD
ATOM    157  H   GLN d   8      10.614  70.787 166.221  0.00  0.00     0.013 HD
ENDBRANCH 150 156
ENDBRANCH 146 150
ENDBRANCH 145 146
ENDBRANCH 144 145
ENDBRANCH 120 144
ENDBRANCH 114 120
ENDBRANCH 110 114
ENDBRANCH 101 110
ENDBRANCH  95 101
ENDBRANCH  91  95
ENDBRANCH  83  91
ENDBRANCH  77  83
ENDBRANCH  73  77
ENDBRANCH  68  73
ENDBRANCH  62  68
ENDBRANCH  58  62
ENDBRANCH  50  58
ENDBRANCH  44  50
ENDBRANCH  40  44
ENDBRANCH  32  40
ENDBRANCH  26  32
ENDBRANCH  22  26
ENDBRANCH  20  22
ENDBRANCH  14  20
ENDBRANCH  10  14
ENDBRANCH   9  10
BRANCH   9 158
ATOM    158  CB  LEU d   1       5.884  56.450 162.708  0.00  0.00     0.010 C 
BRANCH 158 159
ATOM    159  CG  LEU d   1       5.514  55.088 162.042  0.00  0.00    -0.010 C 
ATOM    160  CD2 LEU d   1       4.356  55.219 161.011  0.00  0.00    -0.003 C 
ATOM    161  CD1 LEU d   1       5.127  54.057 163.139  0.00  0.00    -0.003 C 
ENDBRANCH 158 159
ENDBRANCH   9 158
ENDBRANCH   3   9
ENDBRANCH   1   3
TORSDOF 71
ENDMDL
MODEL 5
REMARK VINA RESULT:      -8.7      4.308      9.328
REMARK WARNING: 32 MAX_TORS EXCEEDED!!!
REMARK  71 active torsions:
REMARK  status: ('A' for Active; 'I' for Inactive)
REMARK    1  A    between atoms: HNCA_1  and  N_2 
REMARK    2  A    between atoms: N_2  and  H_10 
REMARK    3  A    between atoms: N_2  and  CA_3 
REMARK    4  A    between atoms: CA_3  and  C_4 
REMARK    5  A    between atoms: CA_3  and  CB_6 
REMARK    6  A    between atoms: C_4  and  O_5 
REMARK    7  A    between atoms: C_4  and  N_11 
REMARK    8  A    between atoms: CG_7  and  CB_6 
REMARK    9  A    between atoms: N_11  and  H_16 
REMARK   10  A    between atoms: N_11  and  CA_12 
REMARK   11  A    between atoms: CA_12  and  C_13 
REMARK   12  A    between atoms: O_14  and  C_13 
REMARK   13  A    between atoms: C_13  and  N_17 
REMARK   14  A    between atoms: N_17  and  H_28 
REMARK   15  A    between atoms: N_17  and  CA_18 
REMARK   16  A    between atoms: CA_18  and  CB_21 
REMARK   17  A    between atoms: CA_18  and  C_19 
REMARK   18  A    between atoms: C_19  and  O_20 
REMARK   19  A    between atoms: C_19  and  N_29 
REMARK   20  A    between atoms: CG_22  and  CB_21 
REMARK   21  A    between atoms: N_29  and  H_36 
REMARK   22  A    between atoms: N_29  and  CA_30 
REMARK   23  A    between atoms: CA_30  and  CB_33 
REMARK   24  A    between atoms: CA_30  and  C_31 
REMARK   25  A    between atoms: C_31  and  O_32 
REMARK   26  A    between atoms: C_31  and  N_38 
REMARK   27  A    between atoms: OG1_34  and  CB_33 
REMARK   28  A    between atoms: OG1_34  and  HG1_37 
REMARK   29  A    between atoms: N_38  and  H_46 
REMARK   30  A    between atoms: N_38  and  CA_39 
REMARK   31  A    between atoms: CA_39  and  CB_42 
REMARK   32  A    between atoms: CA_39  and  C_40 
REMARK   33  A    between atoms: C_40  and  O_41 
REMARK   34  A    between atoms: C_40  and  N_47 
REMARK   35  A    between atoms: CG1_43  and  CB_42 
REMARK   36  A    between atoms: N_47  and  H_54 
REMARK   37  A    between atoms: N_47  and  CA_48 
REMARK   38  A    between atoms: CA_48  and  CB_51 
REMARK   39  A    between atoms: CA_48  and  C_49 
REMARK   40  A    between atoms: C_49  and  O_50 
REMARK   41  A    between atoms: C_49  and  N_56 
REMARK   42  A    between atoms: OG1_52  and  CB_51 
REMARK   43  A    between atoms: OG1_52  and  HG1_55 
REMARK   44  A    between atoms: N_56  and  H_64 
REMARK   45  A    between atoms: N_56  and  CA_57 
REMARK   46  A    between atoms: CA_57  and  CB_60 
REMARK   47  A    between atoms: CA_57  and  C_58 
REMARK   48  A    between atoms: C_58  and  O_59 
REMARK   49  A    between atoms: C_58  and  N_65 
REMARK   50  A    between atoms: CB_60  and  CG_61 
REMARK   51  A    between atoms: OD1_62  and  CG_61 
REMARK   52  A    between atoms: CG_61  and  OD2_63 
REMARK   53  A    between atoms: N_65  and  H_74 
REMARK   54  A    between atoms: N_65  and  CA_66 
REMARK   55  A    between atoms: CA_66  and  C_67 
REMARK   56  A    between atoms: CA_66  and  CB_69 
REMARK   57  A    between atoms: O_68  and  C_67 
REMARK   58  A    between atoms: C_67  and  N_77 
REMARK   59  A    between atoms: CG_70  and  CB_69 
REMARK   60  A    between atoms: CG_70  and  CD_71 
REMARK   61  A    between atoms: OE1_72  and  CD_71 
REMARK   62  A    between atoms: CD_71  and  NE2_73 
REMARK   63  A    between atoms: NE2_73  and  HE21_75 
REMARK   64  A    between atoms: NE2_73  and  HE22_76 
REMARK   65  A    between atoms: N_77  and  H_84 
REMARK   66  A    between atoms: N_77  and  CA_78 
REMARK   67  A    between atoms: CA_78  and  CB_81 
REMARK   68  A    between atoms: CA_78  and  C_79 
REMARK   69  A    between atoms: C_79  and  O_80 
REMARK   70  A    between atoms: C_79  and  OXT_85 
REMARK   71  A    between atoms: OXT_85  and  HOCA_86 
ROOT
ATOM      1 AHNC LEU d   1       6.815  58.924 162.212  0.00  0.00     0.061 HD
ATOM      2  H   LEU d   1       6.302  59.120 161.925  0.00  0.00     0.013 HD
ENDROOT
BRANCH   1   3
ATOM      3  N   LEU d   1       5.897  58.824 161.824  0.00  0.00    -0.429 N 
ATOM      4  H   LEU d   1       5.167  58.359 161.285  0.00  0.00     0.073 HD
ATOM      5  H   LEU d   1       6.023  59.775 161.478  0.00  0.00     0.073 HD
ATOM      6  H   LEU d   1       6.772  58.307 161.728  0.00  0.00     0.073 HD
BRANCH   3   7
ATOM      7  H   LEU d   1       6.378  59.324 162.546  0.00  0.00     0.061 HD
ATOM      8  H   LEU d   1       6.131  59.168 161.999  0.00  0.00     0.013 HD
ENDBRANCH   3   7
BRANCH   3   9
ATOM      9  CA  LEU d   1       5.065  57.677 162.180  0.00  0.00     0.069 C 
BRANCH   9  10
ATOM     10  C   LEU d   1       4.080  58.119 163.241  0.00  0.00     0.168 C 
BRANCH  10  11
ATOM     11  O   LEU d   1       2.979  57.597 163.278  0.00  0.00    -0.496 OA
ATOM     12  H   LEU d   1       2.126  57.213 163.535  0.00  0.00     0.172 HD
ATOM     13  H   LEU d   1       3.286  58.197 163.974  0.00  0.00     0.172 HD
ENDBRANCH  10  11
BRANCH  10  14
ATOM     14  N   ALA d   2       4.406  59.132 164.122  0.00  0.00    -0.414 N 
ATOM     15  H   ALA d   2       3.524  59.373 163.669  0.00  0.00     0.077 HD
ATOM     16  H   ALA d   2       5.032  59.936 164.097  0.00  0.00     0.077 HD
ATOM     17  H   ALA d   2       4.838  58.349 163.630  0.00  0.00     0.077 HD
BRANCH  14  18
ATOM     18  H   ALA d   2       5.290  59.144 164.590  0.00  0.00     0.065 HD
ATOM     19  H   ALA d   2       4.832  59.148 164.173  0.00  0.00     0.013 HD
ENDBRANCH  14  18
BRANCH  14  20
ATOM     20  CA  ALA d   2       3.452  60.203 164.382  0.00  0.00     0.071 C 
ATOM     21  CB  ALA d   2       2.974  60.222 165.860  0.00  0.00     0.010 C 
BRANCH  20  22
ATOM     22  C   ALA d   2       4.103  61.524 164.056  0.00  0.00     0.169 C 
BRANCH  22  23
ATOM     23  O   ALA d   2       4.889  61.579 163.124  0.00  0.00    -0.496 OA
ATOM     24  H   ALA d   2       5.536  61.827 162.446  0.00  0.00     0.172 HD
ATOM     25  H   ALA d   2       4.176  62.235 163.146  0.00  0.00     0.172 HD
ENDBRANCH  22  23
BRANCH  22  26
ATOM     26  N   PHE d   3       3.804  62.601 164.856  0.00  0.00    -0.414 N 
ATOM     27  H   PHE d   3       3.468  62.756 163.906  0.00  0.00     0.077 HD
ATOM     28  H   PHE d   3       3.060  62.821 165.519  0.00  0.00     0.077 HD
ATOM     29  H   PHE d   3       4.607  63.203 165.035  0.00  0.00     0.077 HD
BRANCH  26  30
ATOM     30  H   PHE d   3       4.825  62.802 165.148  0.00  0.00     0.065 HD
ATOM     31  H   PHE d   3       4.342  62.971 165.497  0.00  0.00     0.013 HD
ENDBRANCH  26  30
BRANCH  26  32
ATOM     32  CA  PHE d   3       3.086  63.452 163.910  0.00  0.00     0.072 C 
BRANCH  32  33
ATOM     33  CB  PHE d   3       1.730  63.911 164.526  0.00  0.00     0.013 C 
BRANCH  33  34
ATOM     34  CG  PHE d   3       0.474  63.170 164.047  0.00  0.00    -0.007 A 
ATOM     35  CD2 PHE d   3       0.242  61.842 164.414  0.00  0.00    -0.001 A 
ATOM     36  CE2 PHE d   3      -0.932  61.206 164.028  0.00  0.00    -0.002 A 
ATOM     37  CZ  PHE d   3      -1.888  61.894 163.280  0.00  0.00    -0.003 A 
ATOM     38  CE1 PHE d   3      -1.662  63.218 162.910  0.00  0.00    -0.002 A 
ATOM     39  CD1 PHE d   3      -0.480  63.851 163.282  0.00  0.00    -0.001 A 
ENDBRANCH  33  34
ENDBRANCH  32  33
BRANCH  32  40
ATOM     40  C   PHE d   3       3.902  64.671 163.553  0.00  0.00     0.169 C 
BRANCH  40  41
ATOM     41  O   PHE d   3       4.456  65.387 164.433  0.00  0.00    -0.496 OA
ATOM     42  H   PHE d   3       3.819  65.689 163.766  0.00  0.00     0.172 HD
ATOM     43  H   PHE d   3       4.259  64.468 164.674  0.00  0.00     0.172 HD
ENDBRANCH  40  41
BRANCH  40  44
ATOM     44  N   THR d   4       4.932  64.911 164.044  0.00  0.00    -0.413 N 
ATOM     45  H   THR d   4       5.301  64.855 163.095  0.00  0.00     0.077 HD
ATOM     46  H   THR d   4       3.912  64.903 164.013  0.00  0.00     0.077 HD
ATOM     47  H   THR d   4       5.251  65.774 164.483  0.00  0.00     0.077 HD
BRANCH  44  48
ATOM     48  H   THR d   4       5.071  64.060 164.694  0.00  0.00     0.065 HD
ATOM     49  H   THR d   4       5.563  64.417 164.573  0.00  0.00     0.013 HD
ENDBRANCH  44  48
BRANCH  44  50
ATOM     50  CA  THR d   4       5.958  65.339 163.098  0.00  0.00     0.090 C 
BRANCH  50  51
ATOM     51  CB  THR d   4       7.045  66.203 163.820  0.00  0.00     0.104 C 
ATOM     52  CG2 THR d   4       8.399  65.512 164.095  0.00  0.00     0.017 C 
BRANCH  51  53
ATOM     53  OG1 THR d   4       7.381  67.341 163.034  0.00  0.00    -0.575 OA
ATOM     54  H   THR d   4       7.986  67.444 163.786  0.00  0.00     0.146 HD
ATOM     55  H   THR d   4       7.836  67.599 162.217  0.00  0.00     0.146 HD
BRANCH  53  56
ATOM     56  HG1 THR d   4       6.733  68.017 163.249  0.00  0.00     0.124 HD
ATOM     57  H   THR d   4       6.615  67.609 163.700  0.00  0.00     0.022 HD
ENDBRANCH  53  56
ENDBRANCH  51  53
ENDBRANCH  50  51
BRANCH  50  58
ATOM     58  C   THR d   4       6.591  64.152 162.413  0.00  0.00     0.170 C 
BRANCH  58  59
ATOM     59  O   THR d   4       6.148  63.695 161.377  0.00  0.00    -0.496 OA
ATOM     60  H   THR d   4       6.258  63.151 162.173  0.00  0.00     0.172 HD
ATOM     61  H   THR d   4       7.018  63.885 160.993  0.00  0.00     0.172 HD
ENDBRANCH  58  59
BRANCH  58  62
ATOM     62  N   ILE d   5       6.632  63.957 161.265  0.00  0.00    -0.414 N 
ATOM     63  H   ILE d   5       7.506  64.476 161.354  0.00  0.00     0.077 HD
ATOM     64  H   ILE d   5       5.860  64.610 161.131  0.00  0.00     0.077 HD
ATOM     65  H   ILE d   5       6.473  63.411 162.111  0.00  0.00     0.077 HD
BRANCH  62  66
ATOM     66  H   ILE d   5       5.726  64.395 160.873  0.00  0.00     0.065 HD
ATOM     67  H   ILE d   5       6.268  64.414 160.572  0.00  0.00     0.013 HD
ENDBRANCH  62  66
BRANCH  62  68
ATOM     68  CA  ILE d   5       7.947  64.290 160.726  0.00  0.00     0.073 C 
BRANCH  68  69
ATOM     69  CB  ILE d   5       8.592  63.055 159.975  0.00  0.00     0.003 C 
ATOM     70  CG2 ILE d   5       9.658  63.478 158.916  0.00  0.00    -0.002 C 
BRANCH  69  71
ATOM     71  CG1 ILE d   5       9.237  61.985 160.911  0.00  0.00    -0.004 C 
ATOM     72  CD1 ILE d   5      10.074  62.533 162.086  0.00  0.00    -0.004 C 
ENDBRANCH  69  71
ENDBRANCH  68  69
BRANCH  68  73
ATOM     73  C   ILE d   5       7.878  65.512 159.842  0.00  0.00     0.169 C 
BRANCH  73  74
ATOM     74  O   ILE d   5       6.915  65.469 158.786  0.00  0.00    -0.496 OA
ATOM     75  H   ILE d   5       6.731  65.273 157.854  0.00  0.00     0.172 HD
ATOM     76  H   ILE d   5       7.403  66.304 158.850  0.00  0.00     0.172 HD
ENDBRANCH  73  74
BRANCH  73  77
ATOM     77  N   THR d   6       8.835  66.020 159.410  0.00  0.00    -0.413 N 
ATOM     78  H   THR d   6       8.347  66.903 159.564  0.00  0.00     0.077 HD
ATOM     79  H   THR d   6       9.812  66.207 159.179  0.00  0.00     0.077 HD
ATOM     80  H   THR d   6       8.394  65.518 158.639  0.00  0.00     0.077 HD
BRANCH  77  81
ATOM     81  H   THR d   6       8.868  65.626 158.405  0.00  0.00     0.065 HD
ATOM     82  H   THR d   6       9.161  65.311 158.851  0.00  0.00     0.013 HD
ENDBRANCH  77  81
BRANCH  77  83
ATOM     83  CA  THR d   6       8.942  67.450 159.685  0.00  0.00     0.090 C 
BRANCH  83  84
ATOM     84  CB  THR d   6      10.217  67.753 160.540  0.00  0.00     0.104 C 
ATOM     85  CG2 THR d   6      10.879  69.132 160.318  0.00  0.00     0.017 C 
BRANCH  84  86
ATOM     86  OG1 THR d   6       9.903  67.730 161.928  0.00  0.00    -0.575 OA
ATOM     87  H   THR d   6      10.524  68.475 161.886  0.00  0.00     0.146 HD
ATOM     88  H   THR d   6      10.337  66.929 161.597  0.00  0.00     0.146 HD
BRANCH  86  89
ATOM     89  HG1 THR d   6      10.472  67.063 162.321  0.00  0.00     0.124 HD
ATOM     90  H   THR d   6      10.206  66.726 161.874  0.00  0.00     0.022 HD
ENDBRANCH  86  89
ENDBRANCH  84  86
ENDBRANCH  83  84
BRANCH  83  91
ATOM     91  C   THR d   6       8.960  68.248 158.403  0.00  0.00     0.170 C 
BRANCH  91  92
ATOM     92  O   THR d   6       7.993  68.305 157.668  0.00  0.00    -0.496 OA
ATOM     93  H   THR d   6       8.572  67.526 157.696  0.00  0.00     0.172 HD
ATOM     94  H   THR d   6       7.302  68.218 158.343  0.00  0.00     0.172 HD
ENDBRANCH  91  92
BRANCH  91  95
ATOM     95  N   ASP d   7       8.055  68.804 157.921  0.00  0.00    -0.414 N 
ATOM     96  H   ASP d   7       8.416  69.575 158.483  0.00  0.00     0.077 HD
ATOM     97  H   ASP d   7       8.672  68.646 157.125  0.00  0.00     0.077 HD
ATOM     98  H   ASP d   7       7.120  69.035 157.585  0.00  0.00     0.077 HD
BRANCH  95  99
ATOM     99  H   ASP d   7       7.184  68.387 158.215  0.00  0.00     0.065 HD
ATOM    100  H   ASP d   7       7.396  68.232 157.654  0.00  0.00     0.013 HD
ENDBRANCH  95  99
BRANCH  95 101
ATOM    101  CA  ASP d   7       8.078  70.258 158.229  0.00  0.00     0.076 C 
BRANCH 101 102
ATOM    102  CB  ASP d   7       8.859  70.888 157.060  0.00  0.00     0.055 C 
BRANCH 102 103
ATOM    103  CG  ASP d   7       8.049  71.169 155.765  0.00  0.00     0.240 C 
BRANCH 103 104
ATOM    104  OD1 ASP d   7       7.925  72.353 155.442  0.00  0.00    -0.489 OA
ATOM    105  H   ASP d   7       7.317  73.103 155.350  0.00  0.00     0.172 HD
ATOM    106  H   ASP d   7       7.528  71.563 155.043  0.00  0.00     0.172 HD
ENDBRANCH 103 104
BRANCH 103 107
ATOM    107  OD2 ASP d   7       7.634  70.157 155.199  0.00  0.00    -0.489 OA
ATOM    108  H   ASP d   7       8.106  69.682 155.900  0.00  0.00     0.172 HD
ATOM    109  H   ASP d   7       6.734  69.803 155.117  0.00  0.00     0.172 HD
ENDBRANCH 103 107
ENDBRANCH 102 103
ENDBRANCH 101 102
BRANCH 101 110
ATOM    110  C   ASP d   7       6.718  70.990 158.513  0.00  0.00     0.169 C 
BRANCH 110 111
ATOM    111  O   ASP d   7       5.812  70.532 159.169  0.00  0.00    -0.496 OA
ATOM    112  H   ASP d   7       5.947  70.307 158.236  0.00  0.00     0.172 HD
ATOM    113  H   ASP d   7       6.502  71.151 159.457  0.00  0.00     0.172 HD
ENDBRANCH 110 111
BRANCH 110 114
ATOM    114  N   GLN d   8       6.463  70.841 159.697  0.00  0.00    -0.414 N 
ATOM    115  H   GLN d   8       7.372  71.294 159.796  0.00  0.00     0.077 HD
ATOM    116  H   GLN d   8       6.487  70.200 158.904  0.00  0.00     0.077 HD
ATOM    117  H   GLN d   8       5.746  71.548 159.541  0.00  0.00     0.077 HD
BRANCH 114 118
ATOM    118  H   GLN d   8       5.550  70.446 159.784  0.00  0.00     0.065 HD
ATOM    119  H   GLN d   8       6.070  70.784 159.787  0.00  0.00     0.013 HD
ENDBRANCH 114 118
BRANCH 114 120
ATOM    120  CA  GLN d   8       6.946  71.745 160.739  0.00  0.00     0.072 C 
BRANCH 120 121
ATOM    121  C   GLN d   8       7.540  70.931 161.863  0.00  0.00     0.169 C 
BRANCH 121 122
ATOM    122  O   GLN d   8       7.563  69.714 161.766  0.00  0.00    -0.496 OA
ATOM    123  H   GLN d   8       7.703  68.790 161.507  0.00  0.00     0.172 HD
ATOM    124  H   GLN d   8       8.411  70.113 162.016  0.00  0.00     0.172 HD
ENDBRANCH 121 122
BRANCH 121 125
ATOM    125  N   VAL d   9       7.988  71.598 162.949  0.00  0.00    -0.413 N 
ATOM    126  H   VAL d   9       8.721  70.991 162.581  0.00  0.00     0.077 HD
ATOM    127  H   VAL d   9       7.653  71.227 163.837  0.00  0.00     0.077 HD
ATOM    128  H   VAL d   9       7.216  71.641 162.283  0.00  0.00     0.077 HD
BRANCH 125 129
ATOM    129  H   VAL d   9       7.232  71.235 163.629  0.00  0.00     0.065 HD
ATOM    130  H   VAL d   9       7.603  70.851 163.315  0.00  0.00     0.013 HD
ENDBRANCH 125 129
BRANCH 125 131
ATOM    131  CA  VAL d   9       9.373  71.136 163.012  0.00  0.00     0.083 C 
BRANCH 131 132
ATOM    132  CB  VAL d   9      10.352  72.375 163.022  0.00  0.00     0.002 C 
ATOM    133  CG1 VAL d   9      11.107  72.591 161.686  0.00  0.00    -0.002 C 
ATOM    134  CG2 VAL d   9      11.451  72.377 164.122  0.00  0.00    -0.002 C 
ENDBRANCH 131 132
BRANCH 131 135
ATOM    135  C   VAL d   9       9.597  70.263 164.223  0.00  0.00     0.226 C 
BRANCH 135 136
ATOM    136  O   VAL d   9       8.899  69.267 164.452  0.00  0.00    -0.490 OA
ATOM    137  H   VAL d   9       8.724  69.941 163.777  0.00  0.00     0.172 HD
ATOM    138  H   VAL d   9       8.526  68.418 164.167  0.00  0.00     0.172 HD
ENDBRANCH 135 136
BRANCH 135 139
ATOM    139  OXT VAL d   9       9.605  69.237 164.223  0.00  0.00    -0.560 OA
ATOM    140  H   VAL d   9       9.382  69.294 163.281  0.00  0.00     0.147 HD
ATOM    141  H   VAL d   9      10.333  68.608 164.347  0.00  0.00     0.147 HD
BRANCH 139 142
ATOM    142 AHOC VAL d   9       9.679  68.672 163.460  0.00  0.00     0.126 HD
ATOM    143  H   VAL d   9       9.401  68.159 163.252  0.00  0.00     0.022 HD
ENDBRANCH 139 142
ENDBRANCH 135 139
ENDBRANCH 131 135
ENDBRANCH 125 131
ENDBRANCH 121 125
ENDBRANCH 120 121
BRANCH 120 144
ATOM    144  CB  GLN d   8       5.828  72.652 161.328  0.00  0.00     0.012 C 
BRANCH 144 145
ATOM    145  CG  GLN d   8       5.910  74.120 160.834  0.00  0.00     0.031 C 
BRANCH 145 146
ATOM    146  CD  GLN d   8       4.773  74.559 159.932  0.00  0.00     0.158 C 
BRANCH 146 147
ATOM    147  OE1 GLN d   8       3.870  75.202 160.447  0.00  0.00    -0.497 OA
ATOM    148  H   GLN d   8       4.335  74.352 160.491  0.00  0.00     0.172 HD
ATOM    149  H   GLN d   8       4.418  75.893 160.852  0.00  0.00     0.172 HD
ENDBRANCH 146 147
BRANCH 146 150
ATOM    150  NE2 GLN d   8       4.748  74.245 158.615  0.00  0.00    -0.417 N 
ATOM    151  H   GLN d   8       4.965  73.250 158.671  0.00  0.00     0.075 HD
ATOM    152  H   GLN d   8       5.462  74.778 159.111  0.00  0.00     0.075 HD
ATOM    153  H   GLN d   8       3.837  74.419 159.040  0.00  0.00     0.075 HD
BRANCH 150 154
ATOM    154 1HE2 GLN d   8       5.329  73.536 158.217  0.00  0.00     0.063 HD
ATOM    155  H   GLN d   8       5.669  73.401 157.716  0.00  0.00     0.013 HD
ENDBRANCH 150 154
BRANCH 150 156
ATOM    156 2HE2 GLN d   8       4.122  74.739 158.010  0.00  0.00     0.063 HD
ATOM    157  H   GLN d   8       4.245  74.819 158.612  0.00  0.00     0.013 HD
ENDBRANCH 150 156
ENDBRANCH 146 150
ENDBRANCH 145 146
ENDBRANCH 144 145
ENDBRANCH 120 144
ENDBRANCH 114 120
ENDBRANCH 110 114
ENDBRANCH 101 110
ENDBRANCH  95 101
ENDBRANCH  91  95
ENDBRANCH  83  91
ENDBRANCH  77  83
ENDBRANCH  73  77
ENDBRANCH  68  73
ENDBRANCH  62  68
ENDBRANCH  58  62
ENDBRANCH  50  58
ENDBRANCH  44  50
ENDBRANCH  40  44
ENDBRANCH  32  40
ENDBRANCH  26  32
ENDBRANCH  22  26
ENDBRANCH  20  22
ENDBRANCH  14  20
ENDBRANCH  10  14
ENDBRANCH   9  10
BRANCH   9 158
ATOM    158  CB  LEU d   1       5.882  56.471 162.724  0.00  0.00     0.010 C 
BRANCH 158 159
ATOM    159  CG  LEU d   1       5.514  55.093 162.090  0.00  0.00    -0.010 C 
ATOM    160  CD2 LEU d   1       4.399  55.208 161.012  0.00  0.00    -0.003 C 
ATOM    161  CD1 LEU d   1       5.069  54.107 163.205  0.00  0.00    -0.003 C 
ENDBRANCH 158 159
ENDBRANCH   9 158
ENDBRANCH   3   9
ENDBRANCH   1   3
TORSDOF 71
ENDMDL
MODEL 6
REMARK VINA RESULT:      -8.6      1.823      3.389
REMARK WARNING: 32 MAX_TORS EXCEEDED!!!
REMARK  71 active torsions:
REMARK  status: ('A' for Active; 'I' for Inactive)
REMARK    1  A    between atoms: HNCA_1  and  N_2 
REMARK    2  A    between atoms: N_2  and  H_10 
REMARK    3  A    between atoms: N_2  and  CA_3 
REMARK    4  A    between atoms: CA_3  and  C_4 
REMARK    5  A    between atoms: CA_3  and  CB_6 
REMARK    6  A    between atoms: C_4  and  O_5 
REMARK    7  A    between atoms: C_4  and  N_11 
REMARK    8  A    between atoms: CG_7  and  CB_6 
REMARK    9  A    between atoms: N_11  and  H_16 
REMARK   10  A    between atoms: N_11  and  CA_12 
REMARK   11  A    between atoms: CA_12  and  C_13 
REMARK   12  A    between atoms: O_14  and  C_13 
REMARK   13  A    between atoms: C_13  and  N_17 
REMARK   14  A    between atoms: N_17  and  H_28 
REMARK   15  A    between atoms: N_17  and  CA_18 
REMARK   16  A    between atoms: CA_18  and  CB_21 
REMARK   17  A    between atoms: CA_18  and  C_19 
REMARK   18  A    between atoms: C_19  and  O_20 
REMARK   19  A    between atoms: C_19  and  N_29 
REMARK   20  A    between atoms: CG_22  and  CB_21 
REMARK   21  A    between atoms: N_29  and  H_36 
REMARK   22  A    between atoms: N_29  and  CA_30 
REMARK   23  A    between atoms: CA_30  and  CB_33 
REMARK   24  A    between atoms: CA_30  and  C_31 
REMARK   25  A    between atoms: C_31  and  O_32 
REMARK   26  A    between atoms: C_31  and  N_38 
REMARK   27  A    between atoms: OG1_34  and  CB_33 
REMARK   28  A    between atoms: OG1_34  and  HG1_37 
REMARK   29  A    between atoms: N_38  and  H_46 
REMARK   30  A    between atoms: N_38  and  CA_39 
REMARK   31  A    between atoms: CA_39  and  CB_42 
REMARK   32  A    between atoms: CA_39  and  C_40 
REMARK   33  A    between atoms: C_40  and  O_41 
REMARK   34  A    between atoms: C_40  and  N_47 
REMARK   35  A    between atoms: CG1_43  and  CB_42 
REMARK   36  A    between atoms: N_47  and  H_54 
REMARK   37  A    between atoms: N_47  and  CA_48 
REMARK   38  A    between atoms: CA_48  and  CB_51 
REMARK   39  A    between atoms: CA_48  and  C_49 
REMARK   40  A    between atoms: C_49  and  O_50 
REMARK   41  A    between atoms: C_49  and  N_56 
REMARK   42  A    between atoms: OG1_52  and  CB_51 
REMARK   43  A    between atoms: OG1_52  and  HG1_55 
REMARK   44  A    between atoms: N_56  and  H_64 
REMARK   45  A    between atoms: N_56  and  CA_57 
REMARK   46  A    between atoms: CA_57  and  CB_60 
REMARK   47  A    between atoms: CA_57  and  C_58 
REMARK   48  A    between atoms: C_58  and  O_59 
REMARK   49  A    between atoms: C_58  and  N_65 
REMARK   50  A    between atoms: CB_60  and  CG_61 
REMARK   51  A    between atoms: OD1_62  and  CG_61 
REMARK   52  A    between atoms: CG_61  and  OD2_63 
REMARK   53  A    between atoms: N_65  and  H_74 
REMARK   54  A    between atoms: N_65  and  CA_66 
REMARK   55  A    between atoms: CA_66  and  C_67 
REMARK   56  A    between atoms: CA_66  and  CB_69 
REMARK   57  A    between atoms: O_68  and  C_67 
REMARK   58  A    between atoms: C_67  and  N_77 
REMARK   59  A    between atoms: CG_70  and  CB_69 
REMARK   60  A    between atoms: CG_70  and  CD_71 
REMARK   61  A    between atoms: OE1_72  and  CD_71 
REMARK   62  A    between atoms: CD_71  and  NE2_73 
REMARK   63  A    between atoms: NE2_73  and  HE21_75 
REMARK   64  A    between atoms: NE2_73  and  HE22_76 
REMARK   65  A    between atoms: N_77  and  H_84 
REMARK   66  A    between atoms: N_77  and  CA_78 
REMARK   67  A    between atoms: CA_78  and  CB_81 
REMARK   68  A    between atoms: CA_78  and  C_79 
REMARK   69  A    between atoms: C_79  and  O_80 
REMARK   70  A    between atoms: C_79  and  OXT_85 
REMARK   71  A    between atoms: OXT_85  and  HOCA_86 
ROOT
ATOM      1 AHNC LEU d   1       6.892  56.830 162.405  0.00  0.00     0.061 HD
ATOM      2  H   LEU d   1       6.625  56.861 162.964  0.00  0.00     0.013 HD
ENDROOT
BRANCH   1   3
ATOM      3  N   LEU d   1       6.220  56.583 163.106  0.00  0.00    -0.429 N 
ATOM      4  H   LEU d   1       5.695  56.714 163.970  0.00  0.00     0.073 HD
ATOM      5  H   LEU d   1       6.693  55.679 163.130  0.00  0.00     0.073 HD
ATOM      6  H   LEU d   1       6.913  57.326 163.012  0.00  0.00     0.073 HD
BRANCH   3   7
ATOM      7  H   LEU d   1       6.459  56.366 162.158  0.00  0.00     0.061 HD
ATOM      8  H   LEU d   1       6.154  56.404 162.696  0.00  0.00     0.013 HD
ENDBRANCH   3   7
BRANCH   3   9
ATOM      9  CA  LEU d   1       5.077  57.452 163.375  0.00  0.00     0.069 C 
BRANCH   9  10
ATOM     10  C   LEU d   1       5.080  57.792 164.849  0.00  0.00     0.168 C 
BRANCH  10  11
ATOM     11  O   LEU d   1       5.046  56.885 165.664  0.00  0.00    -0.496 OA
ATOM     12  H   LEU d   1       4.896  56.316 166.435  0.00  0.00     0.172 HD
ATOM     13  H   LEU d   1       4.365  57.575 165.635  0.00  0.00     0.172 HD
ENDBRANCH  10  11
BRANCH  10  14
ATOM     14  N   ALA d   2       5.074  59.109 165.265  0.00  0.00    -0.414 N 
ATOM     15  H   ALA d   2       4.260  58.958 164.668  0.00  0.00     0.077 HD
ATOM     16  H   ALA d   2       5.555  59.959 164.976  0.00  0.00     0.077 HD
ATOM     17  H   ALA d   2       5.708  58.314 165.183  0.00  0.00     0.077 HD
BRANCH  14  18
ATOM     18  H   ALA d   2       5.845  59.494 165.773  0.00  0.00     0.065 HD
ATOM     19  H   ALA d   2       5.284  59.319 165.575  0.00  0.00     0.013 HD
ENDBRANCH  14  18
BRANCH  14  20
ATOM     20  CA  ALA d   2       3.927  59.959 164.967  0.00  0.00     0.071 C 
ATOM     21  CB  ALA d   2       3.214  60.461 166.252  0.00  0.00     0.010 C 
BRANCH  20  22
ATOM     22  C   ALA d   2       4.399  61.148 164.167  0.00  0.00     0.169 C 
BRANCH  22  23
ATOM     23  O   ALA d   2       4.777  60.973 163.020  0.00  0.00    -0.496 OA
ATOM     24  H   ALA d   2       5.170  60.660 162.191  0.00  0.00     0.172 HD
ATOM     25  H   ALA d   2       5.451  60.975 163.717  0.00  0.00     0.172 HD
ENDBRANCH  22  23
BRANCH  22  26
ATOM     26  N   PHE d   3       4.415  62.374 164.789  0.00  0.00    -0.414 N 
ATOM     27  H   PHE d   3       3.890  62.421 163.916  0.00  0.00     0.077 HD
ATOM     28  H   PHE d   3       3.873  62.810 165.535  0.00  0.00     0.077 HD
ATOM     29  H   PHE d   3       5.301  62.868 164.680  0.00  0.00     0.077 HD
BRANCH  26  30
ATOM     30  H   PHE d   3       5.492  62.461 164.821  0.00  0.00     0.065 HD
ATOM     31  H   PHE d   3       5.203  61.915 164.864  0.00  0.00     0.013 HD
ENDBRANCH  26  30
BRANCH  26  32
ATOM     32  CA  PHE d   3       3.600  63.158 163.864  0.00  0.00     0.072 C 
BRANCH  32  33
ATOM     33  CB  PHE d   3       2.346  63.718 164.600  0.00  0.00     0.013 C 
BRANCH  33  34
ATOM     34  CG  PHE d   3       0.983  63.185 164.135  0.00  0.00    -0.007 A 
ATOM     35  CD2 PHE d   3       0.571  61.891 164.464  0.00  0.00    -0.001 A 
ATOM     36  CE2 PHE d   3      -0.693  61.445 164.093  0.00  0.00    -0.002 A 
ATOM     37  CZ  PHE d   3      -1.557  62.292 163.398  0.00  0.00    -0.003 A 
ATOM     38  CE1 PHE d   3      -1.152  63.584 163.067  0.00  0.00    -0.002 A 
ATOM     39  CD1 PHE d   3       0.118  64.024 163.424  0.00  0.00    -0.001 A 
ENDBRANCH  33  34
ENDBRANCH  32  33
BRANCH  32  40
ATOM     40  C   PHE d   3       4.390  64.311 163.293  0.00  0.00     0.169 C 
BRANCH  40  41
ATOM     41  O   PHE d   3       4.915  65.192 164.028  0.00  0.00    -0.496 OA
ATOM     42  H   PHE d   3       5.214  64.933 163.142  0.00  0.00     0.172 HD
ATOM     43  H   PHE d   3       3.953  65.087 164.088  0.00  0.00     0.172 HD
ENDBRANCH  40  41
BRANCH  40  44
ATOM     44  N   THR d   4       5.408  64.665 163.738  0.00  0.00    -0.413 N 
ATOM     45  H   THR d   4       5.815  64.294 162.880  0.00  0.00     0.077 HD
ATOM     46  H   THR d   4       4.390  64.679 163.653  0.00  0.00     0.077 HD
ATOM     47  H   THR d   4       5.748  65.614 163.893  0.00  0.00     0.077 HD
BRANCH  44  48
ATOM     48  H   THR d   4       5.478  64.066 164.634  0.00  0.00     0.065 HD
ATOM     49  H   THR d   4       5.997  64.168 164.310  0.00  0.00     0.013 HD
ENDBRANCH  44  48
BRANCH  44  50
ATOM     50  CA  THR d   4       6.493  64.733 162.765  0.00  0.00     0.090 C 
BRANCH  50  51
ATOM     51  CB  THR d   4       7.401  65.978 163.039  0.00  0.00     0.104 C 
ATOM     52  CG2 THR d   4       8.396  66.360 161.921  0.00  0.00     0.017 C 
BRANCH  51  53
ATOM     53  OG1 THR d   4       6.607  67.145 163.219  0.00  0.00    -0.575 OA
ATOM     54  H   THR d   4       6.367  66.628 164.004  0.00  0.00     0.146 HD
ATOM     55  H   THR d   4       6.668  68.084 163.457  0.00  0.00     0.146 HD
BRANCH  53  56
ATOM     56  HG1 THR d   4       5.816  67.016 162.688  0.00  0.00     0.124 HD
ATOM     57  H   THR d   4       6.022  67.548 162.445  0.00  0.00     0.022 HD
ENDBRANCH  53  56
ENDBRANCH  51  53
ENDBRANCH  50  51
BRANCH  50  58
ATOM     58  C   THR d   4       7.313  63.464 162.779  0.00  0.00     0.170 C 
BRANCH  58  59
ATOM     59  O   THR d   4       6.915  62.435 162.269  0.00  0.00    -0.496 OA
ATOM     60  H   THR d   4       6.307  63.085 162.655  0.00  0.00     0.172 HD
ATOM     61  H   THR d   4       7.387  61.973 162.978  0.00  0.00     0.172 HD
ENDBRANCH  58  59
BRANCH  58  62
ATOM     62  N   ILE d   5       7.330  62.643 161.953  0.00  0.00    -0.414 N 
ATOM     63  H   ILE d   5       8.053  63.250 161.568  0.00  0.00     0.077 HD
ATOM     64  H   ILE d   5       6.415  62.956 161.629  0.00  0.00     0.077 HD
ATOM     65  H   ILE d   5       7.361  62.680 162.971  0.00  0.00     0.077 HD
BRANCH  62  66
ATOM     66  H   ILE d   5       6.322  62.612 161.566  0.00  0.00     0.065 HD
ATOM     67  H   ILE d   5       6.531  63.071 161.926  0.00  0.00     0.013 HD
ENDBRANCH  62  66
BRANCH  62  68
ATOM     68  CA  ILE d   5       8.488  62.808 161.079  0.00  0.00     0.073 C 
BRANCH  68  69
ATOM     69  CB  ILE d   5       9.804  62.244 161.755  0.00  0.00     0.003 C 
ATOM     70  CG2 ILE d   5      10.494  61.131 160.904  0.00  0.00    -0.002 C 
BRANCH  69  71
ATOM     71  CG1 ILE d   5      10.876  63.324 162.101  0.00  0.00    -0.004 C 
ATOM     72  CD1 ILE d   5      11.326  64.227 160.932  0.00  0.00    -0.004 C 
ENDBRANCH  69  71
ENDBRANCH  68  69
BRANCH  68  73
ATOM     73  C   ILE d   5       8.240  62.185 159.726  0.00  0.00     0.169 C 
BRANCH  73  74
ATOM     74  O   ILE d   5       8.594  62.982 158.594  0.00  0.00    -0.496 OA
ATOM     75  H   ILE d   5       8.940  63.009 157.688  0.00  0.00     0.172 HD
ATOM     76  H   ILE d   5       9.322  62.819 159.213  0.00  0.00     0.172 HD
ENDBRANCH  73  74
BRANCH  73  77
ATOM     77  N   THR d   6       7.238  61.647 159.466  0.00  0.00    -0.413 N 
ATOM     78  H   THR d   6       7.820  60.863 159.169  0.00  0.00     0.077 HD
ATOM     79  H   THR d   6       6.261  61.352 159.495  0.00  0.00     0.077 HD
ATOM     80  H   THR d   6       7.341  62.417 158.804  0.00  0.00     0.077 HD
BRANCH  77  81
ATOM     81  H   THR d   6       6.826  62.291 158.702  0.00  0.00     0.065 HD
ATOM     82  H   THR d   6       6.776  62.471 159.294  0.00  0.00     0.013 HD
ENDBRANCH  77  81
BRANCH  77  83
ATOM     83  CA  THR d   6       7.352  60.204 159.281  0.00  0.00     0.090 C 
BRANCH  83  84
ATOM     84  CB  THR d   6       6.694  59.441 160.479  0.00  0.00     0.104 C 
ATOM     85  CG2 THR d   6       5.856  58.194 160.119  0.00  0.00     0.017 C 
BRANCH  84  86
ATOM     86  OG1 THR d   6       7.693  58.952 161.367  0.00  0.00    -0.575 OA
ATOM     87  H   THR d   6       6.905  58.929 161.934  0.00  0.00     0.146 HD
ATOM     88  H   THR d   6       7.837  59.858 161.052  0.00  0.00     0.146 HD
BRANCH  86  89
ATOM     89  HG1 THR d   6       8.133  59.726 161.728  0.00  0.00     0.124 HD
ATOM     90  H   THR d   6       8.244  59.813 161.124  0.00  0.00     0.022 HD
ENDBRANCH  86  89
ENDBRANCH  84  86
ENDBRANCH  83  84
BRANCH  83  91
ATOM     91  C   THR d   6       6.732  59.774 157.973  0.00  0.00     0.170 C 
BRANCH  91  92
ATOM     92  O   THR d   6       7.393  59.641 156.961  0.00  0.00    -0.496 OA
ATOM     93  H   THR d   6       6.556  60.134 156.967  0.00  0.00     0.172 HD
ATOM     94  H   THR d   6       8.121  60.238 157.193  0.00  0.00     0.172 HD
ENDBRANCH  91  92
BRANCH  91  95
ATOM     95  N   ASP d   7       7.240  59.131 157.143  0.00  0.00    -0.414 N 
ATOM     96  H   ASP d   7       6.511  58.470 157.412  0.00  0.00     0.077 HD
ATOM     97  H   ASP d   7       6.827  59.897 156.612  0.00  0.00     0.077 HD
ATOM     98  H   ASP d   7       7.936  58.655 156.569  0.00  0.00     0.077 HD
BRANCH  95  99
ATOM     99  H   ASP d   7       8.188  58.900 157.403  0.00  0.00     0.065 HD
ATOM    100  H   ASP d   7       8.055  58.907 156.798  0.00  0.00     0.013 HD
ENDBRANCH  95  99
BRANCH  95 101
ATOM    101  CA  ASP d   7       6.459  57.902 156.847  0.00  0.00     0.076 C 
BRANCH 101 102
ATOM    102  CB  ASP d   7       5.500  58.318 155.715  0.00  0.00     0.055 C 
BRANCH 102 103
ATOM    103  CG  ASP d   7       3.997  57.996 155.937  0.00  0.00     0.240 C 
BRANCH 103 104
ATOM    104  OD1 ASP d   7       3.265  58.953 156.200  0.00  0.00    -0.489 OA
ATOM    105  H   ASP d   7       2.418  59.392 156.023  0.00  0.00     0.172 HD
ATOM    106  H   ASP d   7       3.690  58.718 155.360  0.00  0.00     0.172 HD
ENDBRANCH 103 104
BRANCH 103 107
ATOM    107  OD2 ASP d   7       3.710  56.806 155.805  0.00  0.00    -0.489 OA
ATOM    108  H   ASP d   7       3.260  56.915 156.657  0.00  0.00     0.172 HD
ATOM    109  H   ASP d   7       3.114  56.365 155.178  0.00  0.00     0.172 HD
ENDBRANCH 103 107
ENDBRANCH 102 103
ENDBRANCH 101 102
BRANCH 101 110
ATOM    110  C   ASP d   7       7.234  56.574 156.527  0.00  0.00     0.169 C 
BRANCH 110 111
ATOM    111  O   ASP d   7       8.429  56.428 156.641  0.00  0.00    -0.496 OA
ATOM    112  H   ASP d   7       8.018  57.297 156.515  0.00  0.00     0.172 HD
ATOM    113  H   ASP d   7       7.740  55.744 156.662  0.00  0.00     0.172 HD
ENDBRANCH 110 111
BRANCH 110 114
ATOM    114  N   GLN d   8       8.025  56.384 157.437  0.00  0.00    -0.414 N 
ATOM    115  H   GLN d   8       7.179  56.491 157.995  0.00  0.00     0.077 HD
ATOM    116  H   GLN d   8       8.005  57.043 156.658  0.00  0.00     0.077 HD
ATOM    117  H   GLN d   8       8.077  55.433 157.076  0.00  0.00     0.077 HD
BRANCH 114 118
ATOM    118  H   GLN d   8       8.926  56.200 157.048  0.00  0.00     0.065 HD
ATOM    119  H   GLN d   8       8.342  56.203 157.256  0.00  0.00     0.013 HD
ENDBRANCH 114 118
BRANCH 114 120
ATOM    120  CA  GLN d   8       7.655  55.748 158.699  0.00  0.00     0.072 C 
BRANCH 120 121
ATOM    121  C   GLN d   8       8.768  55.952 159.700  0.00  0.00     0.169 C 
BRANCH 121 122
ATOM    122  O   GLN d   8       8.491  56.035 160.886  0.00  0.00    -0.496 OA
ATOM    123  H   GLN d   8       8.465  55.997 161.855  0.00  0.00     0.172 HD
ATOM    124  H   GLN d   8       9.221  56.607 160.604  0.00  0.00     0.172 HD
ENDBRANCH 121 122
BRANCH 121 125
ATOM    125  N   VAL d   9      10.025  56.068 159.220  0.00  0.00    -0.413 N 
ATOM    126  H   VAL d   9       9.758  56.916 159.719  0.00  0.00     0.077 HD
ATOM    127  H   VAL d   9      10.076  56.263 158.220  0.00  0.00     0.077 HD
ATOM    128  H   VAL d   9       9.331  55.340 159.391  0.00  0.00     0.077 HD
BRANCH 125 129
ATOM    129  H   VAL d   9       9.769  55.910 158.183  0.00  0.00     0.065 HD
ATOM    130  H   VAL d   9       9.939  55.443 158.554  0.00  0.00     0.013 HD
ENDBRANCH 125 129
BRANCH 125 131
ATOM    131  CA  VAL d   9      10.402  57.383 159.733  0.00  0.00     0.083 C 
BRANCH 131 132
ATOM    132  CB  VAL d   9      11.606  57.239 160.744  0.00  0.00     0.002 C 
ATOM    133  CG1 VAL d   9      11.291  57.750 162.173  0.00  0.00    -0.002 C 
ATOM    134  CG2 VAL d   9      12.934  57.940 160.340  0.00  0.00    -0.002 C 
ENDBRANCH 131 132
BRANCH 131 135
ATOM    135  C   VAL d   9      10.755  58.322 158.605  0.00  0.00     0.226 C 
BRANCH 135 136
ATOM    136  O   VAL d   9      10.178  58.281 157.511  0.00  0.00    -0.490 OA
ATOM    137  H   VAL d   9      10.806  58.963 157.797  0.00  0.00     0.172 HD
ATOM    138  H   VAL d   9      10.212  58.193 156.545  0.00  0.00     0.172 HD
ENDBRANCH 135 136
BRANCH 135 139
ATOM    139  OXT VAL d   9      10.082  58.821 158.013  0.00  0.00    -0.560 OA
ATOM    140  H   VAL d   9      10.679  58.629 157.273  0.00  0.00     0.147 HD
ATOM    141  H   VAL d   9       9.172  58.598 157.760  0.00  0.00     0.147 HD
BRANCH 139 142
ATOM    142 AHOC VAL d   9      10.012  58.764 157.065  0.00  0.00     0.126 HD
ATOM    143  H   VAL d   9       9.875  59.151 156.600  0.00  0.00     0.022 HD
ENDBRANCH 139 142
ENDBRANCH 135 139
ENDBRANCH 131 135
ENDBRANCH 125 131
ENDBRANCH 121 125
ENDBRANCH 120 121
BRANCH 120 144
ATOM    144  CB  GLN d   8       7.393  54.222 158.561  0.00  0.00     0.012 C 
BRANCH 144 145
ATOM    145  CG  GLN d   8       5.934  53.819 158.898  0.00  0.00     0.031 C 
BRANCH 145 146
ATOM    146  CD  GLN d   8       4.876  54.420 157.992  0.00  0.00     0.158 C 
BRANCH 146 147
ATOM    147  OE1 GLN d   8       4.330  55.444 158.378  0.00  0.00    -0.497 OA
ATOM    148  H   GLN d   8       4.905  55.090 157.681  0.00  0.00     0.172 HD
ATOM    149  H   GLN d   8       3.414  55.173 158.211  0.00  0.00     0.172 HD
ENDBRANCH 146 147
BRANCH 146 150
ATOM    150  NE2 GLN d   8       4.540  53.846 156.813  0.00  0.00    -0.417 N 
ATOM    151  H   GLN d   8       5.235  54.281 156.206  0.00  0.00     0.075 HD
ATOM    152  H   GLN d   8       4.029  54.571 157.318  0.00  0.00     0.075 HD
ATOM    153  H   GLN d   8       5.007  53.231 157.480  0.00  0.00     0.075 HD
BRANCH 150 154
ATOM    154 1HE2 GLN d   8       4.647  54.313 155.935  0.00  0.00     0.063 HD
ATOM    155  H   GLN d   8       4.531  54.254 155.329  0.00  0.00     0.013 HD
ENDBRANCH 150 154
BRANCH 150 156
ATOM    156 2HE2 GLN d   8       4.170  52.916 156.814  0.00  0.00     0.063 HD
ATOM    157  H   GLN d   8       4.057  53.393 156.434  0.00  0.00     0.013 HD
ENDBRANCH 150 156
ENDBRANCH 146 150
ENDBRANCH 145 146
ENDBRANCH 144 145
ENDBRANCH 120 144
ENDBRANCH 114 120
ENDBRANCH 110 114
ENDBRANCH 101 110
ENDBRANCH  95 101
ENDBRANCH  91  95
ENDBRANCH  83  91
ENDBRANCH  77  83
ENDBRANCH  73  77
ENDBRANCH  68  73
ENDBRANCH  62  68
ENDBRANCH  58  62
ENDBRANCH  50  58
ENDBRANCH  44  50
ENDBRANCH  40  44
ENDBRANCH  32  40
ENDBRANCH  26  32
ENDBRANCH  22  26
ENDBRANCH  20  22
ENDBRANCH  14  20
ENDBRANCH  10  14
ENDBRANCH   9  10
BRANCH   9 158
ATOM    158  CB  LEU d   1       3.713  56.800 163.011  0.00  0.00     0.010 C 
BRANCH 158 159
ATOM    159  CG  LEU d   1       3.802  55.312 162.549  0.00  0.00    -0.010 C 
ATOM    160  CD2 LEU d   1       2.856  54.998 161.355  0.00  0.00    -0.003 C 
ATOM    161  CD1 LEU d   1       3.472  54.374 163.743  0.00  0.00    -0.003 C 
ENDBRANCH 158 159
ENDBRANCH   9 158
ENDBRANCH   3   9
ENDBRANCH   1   3
TORSDOF 71
ENDMDL
MODEL 7
REMARK VINA RESULT:      -8.5      1.386      2.806
REMARK WARNING: 32 MAX_TORS EXCEEDED!!!
REMARK  71 active torsions:
REMARK  status: ('A' for Active; 'I' for Inactive)
REMARK    1  A    between atoms: HNCA_1  and  N_2 
REMARK    2  A    between atoms: N_2  and  H_10 
REMARK    3  A    between atoms: N_2  and  CA_3 
REMARK    4  A    between atoms: CA_3  and  C_4 
REMARK    5  A    between atoms: CA_3  and  CB_6 
REMARK    6  A    between atoms: C_4  and  O_5 
REMARK    7  A    between atoms: C_4  and  N_11 
REMARK    8  A    between atoms: CG_7  and  CB_6 
REMARK    9  A    between atoms: N_11  and  H_16 
REMARK   10  A    between atoms: N_11  and  CA_12 
REMARK   11  A    between atoms: CA_12  and  C_13 
REMARK   12  A    between atoms: O_14  and  C_13 
REMARK   13  A    between atoms: C_13  and  N_17 
REMARK   14  A    between atoms: N_17  and  H_28 
REMARK   15  A    between atoms: N_17  and  CA_18 
REMARK   16  A    between atoms: CA_18  and  CB_21 
REMARK   17  A    between atoms: CA_18  and  C_19 
REMARK   18  A    between atoms: C_19  and  O_20 
REMARK   19  A    between atoms: C_19  and  N_29 
REMARK   20  A    between atoms: CG_22  and  CB_21 
REMARK   21  A    between atoms: N_29  and  H_36 
REMARK   22  A    between atoms: N_29  and  CA_30 
REMARK   23  A    between atoms: CA_30  and  CB_33 
REMARK   24  A    between atoms: CA_30  and  C_31 
REMARK   25  A    between atoms: C_31  and  O_32 
REMARK   26  A    between atoms: C_31  and  N_38 
REMARK   27  A    between atoms: OG1_34  and  CB_33 
REMARK   28  A    between atoms: OG1_34  and  HG1_37 
REMARK   29  A    between atoms: N_38  and  H_46 
REMARK   30  A    between atoms: N_38  and  CA_39 
REMARK   31  A    between atoms: CA_39  and  CB_42 
REMARK   32  A    between atoms: CA_39  and  C_40 
REMARK   33  A    between atoms: C_40  and  O_41 
REMARK   34  A    between atoms: C_40  and  N_47 
REMARK   35  A    between atoms: CG1_43  and  CB_42 
REMARK   36  A    between atoms: N_47  and  H_54 
REMARK   37  A    between atoms: N_47  and  CA_48 
REMARK   38  A    between atoms: CA_48  and  CB_51 
REMARK   39  A    between atoms: CA_48  and  C_49 
REMARK   40  A    between atoms: C_49  and  O_50 
REMARK   41  A    between atoms: C_49  and  N_56 
REMARK   42  A    between atoms: OG1_52  and  CB_51 
REMARK   43  A    between atoms: OG1_52  and  HG1_55 
REMARK   44  A    between atoms: N_56  and  H_64 
REMARK   45  A    between atoms: N_56  and  CA_57 
REMARK   46  A    between atoms: CA_57  and  CB_60 
REMARK   47  A    between atoms: CA_57  and  C_58 
REMARK   48  A    between atoms: C_58  and  O_59 
REMARK   49  A    between atoms: C_58  and  N_65 
REMARK   50  A    between atoms: CB_60  and  CG_61 
REMARK   51  A    between atoms: OD1_62  and  CG_61 
REMARK   52  A    between atoms: CG_61  and  OD2_63 
REMARK   53  A    between atoms: N_65  and  H_74 
REMARK   54  A    between atoms: N_65  and  CA_66 
REMARK   55  A    between atoms: CA_66  and  C_67 
REMARK   56  A    between atoms: CA_66  and  CB_69 
REMARK   57  A    between atoms: O_68  and  C_67 
REMARK   58  A    between atoms: C_67  and  N_77 
REMARK   59  A    between atoms: CG_70  and  CB_69 
REMARK   60  A    between atoms: CG_70  and  CD_71 
REMARK   61  A    between atoms: OE1_72  and  CD_71 
REMARK   62  A    between atoms: CD_71  and  NE2_73 
REMARK   63  A    between atoms: NE2_73  and  HE21_75 
REMARK   64  A    between atoms: NE2_73  and  HE22_76 
REMARK   65  A    between atoms: N_77  and  H_84 
REMARK   66  A    between atoms: N_77  and  CA_78 
REMARK   67  A    between atoms: CA_78  and  CB_81 
REMARK   68  A    between atoms: CA_78  and  C_79 
REMARK   69  A    between atoms: C_79  and  O_80 
REMARK   70  A    between atoms: C_79  and  OXT_85 
REMARK   71  A    between atoms: OXT_85  and  HOCA_86 
ROOT
ATOM      1 AHNC LEU d   1       6.606  58.638 162.921  0.00  0.00     0.061 HD
ATOM      2  H   LEU d   1       6.608  58.234 162.451  0.00  0.00     0.013 HD
ENDROOT
BRANCH   1   3
ATOM      3  N   LEU d   1       6.206  58.144 162.147  0.00  0.00    -0.429 N 
ATOM      4  H   LEU d   1       5.934  57.313 161.622  0.00  0.00     0.073 HD
ATOM      5  H   LEU d   1       6.795  58.737 161.563  0.00  0.00     0.073 HD
ATOM      6  H   LEU d   1       6.725  57.865 162.980  0.00  0.00     0.073 HD
BRANCH   3   7
ATOM      7  H   LEU d   1       6.196  59.052 162.569  0.00  0.00     0.061 HD
ATOM      8  H   LEU d   1       6.389  58.526 162.303  0.00  0.00     0.013 HD
ENDBRANCH   3   7
BRANCH   3   9
ATOM      9  CA  LEU d   1       5.070  57.247 162.349  0.00  0.00     0.069 C 
BRANCH   9  10
ATOM     10  C   LEU d   1       4.103  57.918 163.298  0.00  0.00     0.168 C 
BRANCH  10  11
ATOM     11  O   LEU d   1       2.923  57.611 163.253  0.00  0.00    -0.496 OA
ATOM     12  H   LEU d   1       1.958  57.564 163.334  0.00  0.00     0.172 HD
ATOM     13  H   LEU d   1       3.211  58.532 163.350  0.00  0.00     0.172 HD
ENDBRANCH  10  11
BRANCH  10  14
ATOM     14  N   ALA d   2       4.539  58.897 164.169  0.00  0.00    -0.414 N 
ATOM     15  H   ALA d   2       3.707  59.243 163.691  0.00  0.00     0.077 HD
ATOM     16  H   ALA d   2       5.266  59.611 164.147  0.00  0.00     0.077 HD
ATOM     17  H   ALA d   2       4.875  58.055 163.702  0.00  0.00     0.077 HD
BRANCH  14  18
ATOM     18  H   ALA d   2       5.406  58.803 164.660  0.00  0.00     0.065 HD
ATOM     19  H   ALA d   2       4.826  58.936 164.486  0.00  0.00     0.013 HD
ENDBRANCH  14  18
BRANCH  14  20
ATOM     20  CA  ALA d   2       3.729  60.090 164.387  0.00  0.00     0.071 C 
ATOM     21  CB  ALA d   2       3.360  60.288 165.882  0.00  0.00     0.010 C 
BRANCH  20  22
ATOM     22  C   ALA d   2       4.498  61.295 163.904  0.00  0.00     0.169 C 
BRANCH  22  23
ATOM     23  O   ALA d   2       5.185  61.191 162.901  0.00  0.00    -0.496 OA
ATOM     24  H   ALA d   2       5.734  61.323 162.113  0.00  0.00     0.172 HD
ATOM     25  H   ALA d   2       4.403  61.763 162.850  0.00  0.00     0.172 HD
ENDBRANCH  22  23
BRANCH  22  26
ATOM     26  N   PHE d   3       4.414  62.448 164.647  0.00  0.00    -0.414 N 
ATOM     27  H   PHE d   3       3.891  62.543 163.777  0.00  0.00     0.077 HD
ATOM     28  H   PHE d   3       3.836  62.763 165.427  0.00  0.00     0.077 HD
ATOM     29  H   PHE d   3       5.259  63.018 164.600  0.00  0.00     0.077 HD
BRANCH  26  30
ATOM     30  H   PHE d   3       5.481  62.616 164.701  0.00  0.00     0.065 HD
ATOM     31  H   PHE d   3       5.238  62.049 164.637  0.00  0.00     0.013 HD
ENDBRANCH  26  30
BRANCH  26  32
ATOM     32  CA  PHE d   3       3.545  63.257 163.796  0.00  0.00     0.072 C 
BRANCH  32  33
ATOM     33  CB  PHE d   3       2.293  63.722 164.600  0.00  0.00     0.013 C 
BRANCH  33  34
ATOM     34  CG  PHE d   3       0.938  63.166 164.138  0.00  0.00    -0.007 A 
ATOM     35  CD2 PHE d   3       0.551  61.863 164.460  0.00  0.00    -0.001 A 
ATOM     36  CE2 PHE d   3      -0.707  61.397 164.094  0.00  0.00    -0.002 A 
ATOM     37  CZ  PHE d   3      -1.590  62.233 163.410  0.00  0.00    -0.003 A 
ATOM     38  CE1 PHE d   3      -1.210  63.534 163.085  0.00  0.00    -0.002 A 
ATOM     39  CD1 PHE d   3       0.054  63.995 163.438  0.00  0.00    -0.001 A 
ENDBRANCH  33  34
ENDBRANCH  32  33
BRANCH  32  40
ATOM     40  C   PHE d   3       4.275  64.473 163.278  0.00  0.00     0.169 C 
BRANCH  40  41
ATOM     41  O   PHE d   3       4.738  65.355 164.051  0.00  0.00    -0.496 OA
ATOM     42  H   PHE d   3       3.935  64.831 164.196  0.00  0.00     0.172 HD
ATOM     43  H   PHE d   3       5.381  64.831 163.550  0.00  0.00     0.172 HD
ENDBRANCH  40  41
BRANCH  40  44
ATOM     44  N   THR d   4       5.264  64.868 163.751  0.00  0.00    -0.413 N 
ATOM     45  H   THR d   4       5.722  64.430 162.952  0.00  0.00     0.077 HD
ATOM     46  H   THR d   4       4.254  64.869 163.606  0.00  0.00     0.077 HD
ATOM     47  H   THR d   4       5.594  65.828 163.847  0.00  0.00     0.077 HD
BRANCH  44  48
ATOM     48  H   THR d   4       5.282  64.346 164.696  0.00  0.00     0.065 HD
ATOM     49  H   THR d   4       5.033  64.913 164.682  0.00  0.00     0.013 HD
ENDBRANCH  44  48
BRANCH  44  50
ATOM     50  CA  THR d   4       6.405  64.862 162.841  0.00  0.00     0.090 C 
BRANCH  50  51
ATOM     51  CB  THR d   4       6.999  66.302 162.693  0.00  0.00     0.104 C 
ATOM     52  CG2 THR d   4       8.281  66.601 163.502  0.00  0.00     0.017 C 
BRANCH  51  53
ATOM     53  OG1 THR d   4       7.366  66.555 161.342  0.00  0.00    -0.575 OA
ATOM     54  H   THR d   4       7.006  67.416 161.606  0.00  0.00     0.146 HD
ATOM     55  H   THR d   4       8.139  66.690 160.771  0.00  0.00     0.146 HD
BRANCH  53  56
ATOM     56  HG1 THR d   4       6.640  66.230 160.801  0.00  0.00     0.124 HD
ATOM     57  H   THR d   4       6.424  66.794 160.944  0.00  0.00     0.022 HD
ENDBRANCH  53  56
ENDBRANCH  51  53
ENDBRANCH  50  51
BRANCH  50  58
ATOM     58  C   THR d   4       7.466  63.895 163.310  0.00  0.00     0.170 C 
BRANCH  58  59
ATOM     59  O   THR d   4       7.527  62.755 162.893  0.00  0.00    -0.496 OA
ATOM     60  H   THR d   4       7.604  62.960 163.838  0.00  0.00     0.172 HD
ATOM     61  H   THR d   4       8.336  63.031 162.435  0.00  0.00     0.172 HD
ENDBRANCH  58  59
BRANCH  58  62
ATOM     62  N   ILE d   5       7.956  63.047 162.679  0.00  0.00    -0.414 N 
ATOM     63  H   ILE d   5       8.529  63.823 162.347  0.00  0.00     0.077 HD
ATOM     64  H   ILE d   5       7.109  62.984 162.114  0.00  0.00     0.077 HD
ATOM     65  H   ILE d   5       7.704  63.203 163.654  0.00  0.00     0.077 HD
BRANCH  62  66
ATOM     66  H   ILE d   5       7.148  62.624 162.100  0.00  0.00     0.065 HD
ATOM     67  H   ILE d   5       7.202  63.232 162.210  0.00  0.00     0.013 HD
ENDBRANCH  62  66
BRANCH  62  68
ATOM     68  CA  ILE d   5       9.193  63.510 162.056  0.00  0.00     0.073 C 
BRANCH  68  69
ATOM     69  CB  ILE d   5      10.431  62.637 162.516  0.00  0.00     0.003 C 
ATOM     70  CG2 ILE d   5      11.253  62.071 161.316  0.00  0.00    -0.002 C 
BRANCH  69  71
ATOM     71  CG1 ILE d   5      11.420  63.363 163.482  0.00  0.00    -0.004 C 
ATOM     72  CD1 ILE d   5      10.816  63.869 164.810  0.00  0.00    -0.004 C 
ENDBRANCH  69  71
ENDBRANCH  68  69
BRANCH  68  73
ATOM     73  C   ILE d   5       9.061  63.550 160.553  0.00  0.00     0.169 C 
BRANCH  73  74
ATOM     74  O   ILE d   5       9.544  64.732 159.911  0.00  0.00    -0.496 OA
ATOM     75  H   ILE d   5       9.348  65.624 159.583  0.00  0.00     0.172 HD
ATOM     76  H   ILE d   5       9.163  64.075 159.308  0.00  0.00     0.172 HD
ENDBRANCH  73  74
BRANCH  73  77
ATOM     77  N   THR d   6       8.075  63.244 160.008  0.00  0.00    -0.413 N 
ATOM     78  H   THR d   6       8.645  62.555 159.517  0.00  0.00     0.077 HD
ATOM     79  H   THR d   6       7.088  63.063 159.822  0.00  0.00     0.077 HD
ATOM     80  H   THR d   6       8.316  64.180 159.681  0.00  0.00     0.077 HD
BRANCH  77  81
ATOM     81  H   THR d   6       7.814  64.153 159.485  0.00  0.00     0.065 HD
ATOM     82  H   THR d   6       8.406  63.971 159.474  0.00  0.00     0.013 HD
ENDBRANCH  77  81
BRANCH  77  83
ATOM     83  CA  THR d   6       8.127  61.951 159.333  0.00  0.00     0.090 C 
BRANCH  83  84
ATOM     84  CB  THR d   6       7.110  60.951 159.979  0.00  0.00     0.104 C 
ATOM     85  CG2 THR d   6       6.604  59.808 159.071  0.00  0.00     0.017 C 
BRANCH  84  86
ATOM     86  OG1 THR d   6       7.702  60.287 161.090  0.00  0.00    -0.575 OA
ATOM     87  H   THR d   6       7.341  59.537 160.590  0.00  0.00     0.146 HD
ATOM     88  H   THR d   6       6.985  60.899 161.318  0.00  0.00     0.146 HD
BRANCH  86  89
ATOM     89  HG1 THR d   6       7.060  60.334 161.803  0.00  0.00     0.124 HD
ATOM     90  H   THR d   6       6.931  59.770 161.581  0.00  0.00     0.022 HD
ENDBRANCH  86  89
ENDBRANCH  84  86
ENDBRANCH  83  84
BRANCH  83  91
ATOM     91  C   THR d   6       7.860  62.100 157.855  0.00  0.00     0.170 C 
BRANCH  91  92
ATOM     92  O   THR d   6       8.757  62.276 157.054  0.00  0.00    -0.496 OA
ATOM     93  H   THR d   6       8.803  62.619 157.961  0.00  0.00     0.172 HD
ATOM     94  H   THR d   6       9.102  61.369 157.034  0.00  0.00     0.172 HD
ENDBRANCH  91  92
BRANCH  91  95
ATOM     95  N   ASP d   7       8.557  61.754 156.987  0.00  0.00    -0.414 N 
ATOM     96  H   ASP d   7       7.780  61.116 156.811  0.00  0.00     0.077 HD
ATOM     97  H   ASP d   7       8.294  62.697 156.702  0.00  0.00     0.077 HD
ATOM     98  H   ASP d   7       9.372  61.452 156.453  0.00  0.00     0.077 HD
BRANCH  95  99
ATOM     99  H   ASP d   7       9.408  61.353 157.353  0.00  0.00     0.065 HD
ATOM    100  H   ASP d   7       8.891  61.016 157.407  0.00  0.00     0.013 HD
ENDBRANCH  95  99
BRANCH  95 101
ATOM    101  CA  ASP d   7       7.869  60.798 156.079  0.00  0.00     0.076 C 
BRANCH 101 102
ATOM    102  CB  ASP d   7       7.510  61.637 154.837  0.00  0.00     0.055 C 
BRANCH 102 103
ATOM    103  CG  ASP d   7       8.691  62.022 153.905  0.00  0.00     0.240 C 
BRANCH 103 104
ATOM    104  OD1 ASP d   7       9.229  63.111 154.124  0.00  0.00    -0.489 OA
ATOM    105  H   ASP d   7      10.005  63.671 153.967  0.00  0.00     0.172 HD
ATOM    106  H   ASP d   7       9.518  62.221 154.379  0.00  0.00     0.172 HD
ENDBRANCH 103 104
BRANCH 103 107
ATOM    107  OD2 ASP d   7       8.964  61.173 153.056  0.00  0.00    -0.489 OA
ATOM    108  H   ASP d   7       9.734  60.992 153.618  0.00  0.00     0.172 HD
ATOM    109  H   ASP d   7       8.523  60.338 152.833  0.00  0.00     0.172 HD
ENDBRANCH 103 107
ENDBRANCH 102 103
ENDBRANCH 101 102
BRANCH 101 110
ATOM    110  C   ASP d   7       8.590  59.452 155.714  0.00  0.00     0.169 C 
BRANCH 110 111
ATOM    111  O   ASP d   7       9.788  59.316 155.614  0.00  0.00    -0.496 OA
ATOM    112  H   ASP d   7       9.295  59.989 155.119  0.00  0.00     0.172 HD
ATOM    113  H   ASP d   7       9.175  58.810 156.172  0.00  0.00     0.172 HD
ENDBRANCH 110 111
BRANCH 110 114
ATOM    114  N   GLN d   8       9.539  59.329 156.472  0.00  0.00    -0.414 N 
ATOM    115  H   GLN d   8       8.788  59.198 157.150  0.00  0.00     0.077 HD
ATOM    116  H   GLN d   8       9.272  60.051 155.804  0.00  0.00     0.077 HD
ATOM    117  H   GLN d   8       9.707  58.453 155.977  0.00  0.00     0.077 HD
BRANCH 114 118
ATOM    118  H   GLN d   8      10.384  59.376 155.943  0.00  0.00     0.065 HD
ATOM    119  H   GLN d   8       9.821  59.430 156.196  0.00  0.00     0.013 HD
ENDBRANCH 114 118
BRANCH 114 120
ATOM    120  CA  GLN d   8       9.501  58.494 157.671  0.00  0.00     0.072 C 
BRANCH 120 121
ATOM    121  C   GLN d   8      10.666  58.854 158.561  0.00  0.00     0.169 C 
BRANCH 121 122
ATOM    122  O   GLN d   8      11.795  58.839 158.095  0.00  0.00    -0.496 OA
ATOM    123  H   GLN d   8      12.606  58.672 157.590  0.00  0.00     0.172 HD
ATOM    124  H   GLN d   8      11.126  59.230 157.512  0.00  0.00     0.172 HD
ENDBRANCH 121 122
BRANCH 121 125
ATOM    125  N   VAL d   9      10.400  59.143 159.853  0.00  0.00    -0.413 N 
ATOM    126  H   VAL d   9      10.835  58.224 159.780  0.00  0.00     0.077 HD
ATOM    127  H   VAL d   9       9.419  59.036 160.112  0.00  0.00     0.077 HD
ATOM    128  H   VAL d   9      10.464  59.622 158.954  0.00  0.00     0.077 HD
BRANCH 125 129
ATOM    129  H   VAL d   9       9.337  59.285 159.723  0.00  0.00     0.065 HD
ATOM    130  H   VAL d   9       9.616  59.377 160.269  0.00  0.00     0.013 HD
ENDBRANCH 125 129
BRANCH 125 131
ATOM    131  CA  VAL d   9      10.947  57.967 160.524  0.00  0.00     0.083 C 
BRANCH 131 132
ATOM    132  CB  VAL d   9      12.440  58.244 160.958  0.00  0.00     0.002 C 
ATOM    133  CG1 VAL d   9      13.429  57.118 160.560  0.00  0.00    -0.002 C 
ATOM    134  CG2 VAL d   9      12.684  58.490 162.474  0.00  0.00    -0.002 C 
ENDBRANCH 131 132
BRANCH 131 135
ATOM    135  C   VAL d   9      10.103  57.582 161.715  0.00  0.00     0.226 C 
BRANCH 135 136
ATOM    136  O   VAL d   9       8.874  57.463 161.637  0.00  0.00    -0.490 OA
ATOM    137  H   VAL d   9       9.502  56.751 161.838  0.00  0.00     0.172 HD
ATOM    138  H   VAL d   9       8.020  57.268 162.055  0.00  0.00     0.172 HD
ENDBRANCH 135 136
BRANCH 135 139
ATOM    139  OXT VAL d   9       9.344  56.892 161.708  0.00  0.00    -0.560 OA
ATOM    140  H   VAL d   9       9.464  56.857 160.746  0.00  0.00     0.147 HD
ATOM    141  H   VAL d   9       9.303  55.989 162.062  0.00  0.00     0.147 HD
BRANCH 139 142
ATOM    142 AHOC VAL d   9       9.146  56.276 161.008  0.00  0.00     0.126 HD
ATOM    143  H   VAL d   9       8.998  56.311 160.407  0.00  0.00     0.022 HD
ENDBRANCH 139 142
ENDBRANCH 135 139
ENDBRANCH 131 135
ENDBRANCH 125 131
ENDBRANCH 121 125
ENDBRANCH 120 121
BRANCH 120 144
ATOM    144  CB  GLN d   8       9.573  56.972 157.360  0.00  0.00     0.012 C 
BRANCH 144 145
ATOM    145  CG  GLN d   8       8.224  56.239 157.577  0.00  0.00     0.031 C 
BRANCH 145 146
ATOM    146  CD  GLN d   8       7.942  55.823 159.007  0.00  0.00     0.158 C 
BRANCH 146 147
ATOM    147  OE1 GLN d   8       7.069  56.438 159.604  0.00  0.00    -0.497 OA
ATOM    148  H   GLN d   8       7.311  55.554 159.285  0.00  0.00     0.172 HD
ATOM    149  H   GLN d   8       7.580  56.645 160.403  0.00  0.00     0.172 HD
ENDBRANCH 146 147
BRANCH 146 150
ATOM    150  NE2 GLN d   8       8.629  54.822 159.606  0.00  0.00    -0.417 N 
ATOM    151  H   GLN d   8       9.374  54.691 158.922  0.00  0.00     0.075 HD
ATOM    152  H   GLN d   8       7.724  54.759 159.140  0.00  0.00     0.075 HD
ATOM    153  H   GLN d   8       8.725  55.739 160.042  0.00  0.00     0.075 HD
BRANCH 150 154
ATOM    154 1HE2 GLN d   8       9.120  54.119 159.092  0.00  0.00     0.063 HD
ATOM    155  H   GLN d   8       9.066  53.542 158.872  0.00  0.00     0.013 HD
ENDBRANCH 150 154
BRANCH 150 156
ATOM    156 2HE2 GLN d   8       8.653  54.780 160.607  0.00  0.00     0.063 HD
ATOM    157  H   GLN d   8       8.339  55.158 160.227  0.00  0.00     0.013 HD
ENDBRANCH 150 156
ENDBRANCH 146 150
ENDBRANCH 145 146
ENDBRANCH 144 145
ENDBRANCH 120 144
ENDBRANCH 114 120
ENDBRANCH 110 114
ENDBRANCH 101 110
ENDBRANCH  95 101
ENDBRANCH  91  95
ENDBRANCH  83  91
ENDBRANCH  77  83
ENDBRANCH  73  77
ENDBRANCH  68  73
ENDBRANCH  62  68
ENDBRANCH  58  62
ENDBRANCH  50  58
ENDBRANCH  44  50
ENDBRANCH  40  44
ENDBRANCH  32  40
ENDBRANCH  26  32
ENDBRANCH  22  26
ENDBRANCH  20  22
ENDBRANCH  14  20
ENDBRANCH  10  14
ENDBRANCH   9  10
BRANCH   9 158
ATOM    158  CB  LEU d   1       5.477  55.866 162.936  0.00  0.00     0.010 C 
BRANCH 158 159
ATOM    159  CG  LEU d   1       4.882  54.635 162.183  0.00  0.00    -0.010 C 
ATOM    160  CD2 LEU d   1       5.971  53.608 161.760  0.00  0.00    -0.003 C 
ATOM    161  CD1 LEU d   1       4.100  55.118 160.929  0.00  0.00    -0.003 C 
ENDBRANCH 158 159
ENDBRANCH   9 158
ENDBRANCH   3   9
ENDBRANCH   1   3
TORSDOF 71
ENDMDL
MODEL 8
REMARK VINA RESULT:      -8.4      5.186     10.970
REMARK WARNING: 32 MAX_TORS EXCEEDED!!!
REMARK  71 active torsions:
REMARK  status: ('A' for Active; 'I' for Inactive)
REMARK    1  A    between atoms: HNCA_1  and  N_2 
REMARK    2  A    between atoms: N_2  and  H_10 
REMARK    3  A    between atoms: N_2  and  CA_3 
REMARK    4  A    between atoms: CA_3  and  C_4 
REMARK    5  A    between atoms: CA_3  and  CB_6 
REMARK    6  A    between atoms: C_4  and  O_5 
REMARK    7  A    between atoms: C_4  and  N_11 
REMARK    8  A    between atoms: CG_7  and  CB_6 
REMARK    9  A    between atoms: N_11  and  H_16 
REMARK   10  A    between atoms: N_11  and  CA_12 
REMARK   11  A    between atoms: CA_12  and  C_13 
REMARK   12  A    between atoms: O_14  and  C_13 
REMARK   13  A    between atoms: C_13  and  N_17 
REMARK   14  A    between atoms: N_17  and  H_28 
REMARK   15  A    between atoms: N_17  and  CA_18 
REMARK   16  A    between atoms: CA_18  and  CB_21 
REMARK   17  A    between atoms: CA_18  and  C_19 
REMARK   18  A    between atoms: C_19  and  O_20 
REMARK   19  A    between atoms: C_19  and  N_29 
REMARK   20  A    between atoms: CG_22  and  CB_21 
REMARK   21  A    between atoms: N_29  and  H_36 
REMARK   22  A    between atoms: N_29  and  CA_30 
REMARK   23  A    between atoms: CA_30  and  CB_33 
REMARK   24  A    between atoms: CA_30  and  C_31 
REMARK   25  A    between atoms: C_31  and  O_32 
REMARK   26  A    between atoms: C_31  and  N_38 
REMARK   27  A    between atoms: OG1_34  and  CB_33 
REMARK   28  A    between atoms: OG1_34  and  HG1_37 
REMARK   29  A    between atoms: N_38  and  H_46 
REMARK   30  A    between atoms: N_38  and  CA_39 
REMARK   31  A    between atoms: CA_39  and  CB_42 
REMARK   32  A    between atoms: CA_39  and  C_40 
REMARK   33  A    between atoms: C_40  and  O_41 
REMARK   34  A    between atoms: C_40  and  N_47 
REMARK   35  A    between atoms: CG1_43  and  CB_42 
REMARK   36  A    between atoms: N_47  and  H_54 
REMARK   37  A    between atoms: N_47  and  CA_48 
REMARK   38  A    between atoms: CA_48  and  CB_51 
REMARK   39  A    between atoms: CA_48  and  C_49 
REMARK   40  A    between atoms: C_49  and  O_50 
REMARK   41  A    between atoms: C_49  and  N_56 
REMARK   42  A    between atoms: OG1_52  and  CB_51 
REMARK   43  A    between atoms: OG1_52  and  HG1_55 
REMARK   44  A    between atoms: N_56  and  H_64 
REMARK   45  A    between atoms: N_56  and  CA_57 
REMARK   46  A    between atoms: CA_57  and  CB_60 
REMARK   47  A    between atoms: CA_57  and  C_58 
REMARK   48  A    between atoms: C_58  and  O_59 
REMARK   49  A    between atoms: C_58  and  N_65 
REMARK   50  A    between atoms: CB_60  and  CG_61 
REMARK   51  A    between atoms: OD1_62  and  CG_61 
REMARK   52  A    between atoms: CG_61  and  OD2_63 
REMARK   53  A    between atoms: N_65  and  H_74 
REMARK   54  A    between atoms: N_65  and  CA_66 
REMARK   55  A    between atoms: CA_66  and  C_67 
REMARK   56  A    between atoms: CA_66  and  CB_69 
REMARK   57  A    between atoms: O_68  and  C_67 
REMARK   58  A    between atoms: C_67  and  N_77 
REMARK   59  A    between atoms: CG_70  and  CB_69 
REMARK   60  A    between atoms: CG_70  and  CD_71 
REMARK   61  A    between atoms: OE1_72  and  CD_71 
REMARK   62  A    between atoms: CD_71  and  NE2_73 
REMARK   63  A    between atoms: NE2_73  and  HE21_75 
REMARK   64  A    between atoms: NE2_73  and  HE22_76 
REMARK   65  A    between atoms: N_77  and  H_84 
REMARK   66  A    between atoms: N_77  and  CA_78 
REMARK   67  A    between atoms: CA_78  and  CB_81 
REMARK   68  A    between atoms: CA_78  and  C_79 
REMARK   69  A    between atoms: C_79  and  O_80 
REMARK   70  A    between atoms: C_79  and  OXT_85 
REMARK   71  A    between atoms: OXT_85  and  HOCA_86 
ROOT
ATOM      1 AHNC LEU d   1       2.670  67.668 164.218  0.00  0.00     0.061 HD
ATOM      2  H   LEU d   1       2.453  67.139 164.458  0.00  0.00     0.013 HD
ENDROOT
BRANCH   1   3
ATOM      3  N   LEU d   1       1.957  67.017 164.484  0.00  0.00    -0.429 N 
ATOM      4  H   LEU d   1       1.327  66.228 164.344  0.00  0.00     0.073 HD
ATOM      5  H   LEU d   1       1.419  67.838 164.761  0.00  0.00     0.073 HD
ATOM      6  H   LEU d   1       2.455  67.213 163.616  0.00  0.00     0.073 HD
BRANCH   3   7
ATOM      7  H   LEU d   1       2.610  67.655 164.896  0.00  0.00     0.061 HD
ATOM      8  H   LEU d   1       2.088  67.406 164.673  0.00  0.00     0.013 HD
ENDBRANCH   3   7
BRANCH   3   9
ATOM      9  CA  LEU d   1       2.240  65.584 164.518  0.00  0.00     0.069 C 
BRANCH   9  10
ATOM     10  C   LEU d   1       3.666  65.373 164.059  0.00  0.00     0.168 C 
BRANCH  10  11
ATOM     11  O   LEU d   1       4.557  66.015 164.588  0.00  0.00    -0.496 OA
ATOM     12  H   LEU d   1       5.377  66.324 165.004  0.00  0.00     0.172 HD
ATOM     13  H   LEU d   1       4.738  65.215 164.072  0.00  0.00     0.172 HD
ENDBRANCH  10  11
BRANCH  10  14
ATOM     14  N   ALA d   2       3.948  64.502 163.024  0.00  0.00    -0.414 N 
ATOM     15  H   ALA d   2       4.814  64.691 163.530  0.00  0.00     0.077 HD
ATOM     16  H   ALA d   2       4.111  64.600 162.023  0.00  0.00     0.077 HD
ATOM     17  H   ALA d   2       3.232  65.166 163.319  0.00  0.00     0.077 HD
BRANCH  14  18
ATOM     18  H   ALA d   2       3.257  64.273 162.338  0.00  0.00     0.065 HD
ATOM     19  H   ALA d   2       3.742  64.503 162.648  0.00  0.00     0.013 HD
ENDBRANCH  14  18
BRANCH  14  20
ATOM     20  CA  ALA d   2       5.273  63.900 162.923  0.00  0.00     0.071 C 
ATOM     21  CB  ALA d   2       5.239  62.361 163.130  0.00  0.00     0.010 C 
BRANCH  20  22
ATOM     22  C   ALA d   2       5.842  64.203 161.559  0.00  0.00     0.169 C 
BRANCH  22  23
ATOM     23  O   ALA d   2       5.617  65.292 161.056  0.00  0.00    -0.496 OA
ATOM     24  H   ALA d   2       5.234  66.095 160.672  0.00  0.00     0.172 HD
ATOM     25  H   ALA d   2       5.235  64.512 160.624  0.00  0.00     0.172 HD
ENDBRANCH  22  23
BRANCH  22  26
ATOM     26  N   PHE d   3       6.559  63.213 160.930  0.00  0.00    -0.414 N 
ATOM     27  H   PHE d   3       7.169  63.986 161.197  0.00  0.00     0.077 HD
ATOM     28  H   PHE d   3       6.979  62.331 161.223  0.00  0.00     0.077 HD
ATOM     29  H   PHE d   3       6.436  63.211 159.917  0.00  0.00     0.077 HD
BRANCH  26  30
ATOM     30  H   PHE d   3       5.977  63.226 160.019  0.00  0.00     0.065 HD
ATOM     31  H   PHE d   3       6.158  62.698 160.289  0.00  0.00     0.013 HD
ENDBRANCH  26  30
BRANCH  26  32
ATOM     32  CA  PHE d   3       7.907  63.772 160.995  0.00  0.00     0.072 C 
BRANCH  32  33
ATOM     33  CB  PHE d   3       8.873  62.758 161.681  0.00  0.00     0.013 C 
BRANCH  33  34
ATOM     34  CG  PHE d   3       9.710  63.293 162.851  0.00  0.00    -0.007 A 
ATOM     35  CD2 PHE d   3       9.096  63.871 163.965  0.00  0.00    -0.001 A 
ATOM     36  CE2 PHE d   3       9.863  64.289 165.047  0.00  0.00    -0.002 A 
ATOM     37  CZ  PHE d   3      11.248  64.125 165.027  0.00  0.00    -0.003 A 
ATOM     38  CE1 PHE d   3      11.867  63.550 163.919  0.00  0.00    -0.002 A 
ATOM     39  CD1 PHE d   3      11.101  63.146 162.830  0.00  0.00    -0.001 A 
ENDBRANCH  33  34
ENDBRANCH  32  33
BRANCH  32  40
ATOM     40  C   PHE d   3       8.428  64.090 159.615  0.00  0.00     0.169 C 
BRANCH  40  41
ATOM     41  O   PHE d   3       8.211  65.201 159.057  0.00  0.00    -0.496 OA
ATOM     42  H   PHE d   3       8.507  64.388 158.619  0.00  0.00     0.172 HD
ATOM     43  H   PHE d   3       7.650  64.974 159.815  0.00  0.00     0.172 HD
ENDBRANCH  40  41
BRANCH  40  44
ATOM     44  N   THR d   4       8.927  65.109 159.345  0.00  0.00    -0.413 N 
ATOM     45  H   THR d   4       9.694  64.794 159.940  0.00  0.00     0.077 HD
ATOM     46  H   THR d   4       8.279  64.336 159.187  0.00  0.00     0.077 HD
ATOM     47  H   THR d   4       9.299  65.427 158.451  0.00  0.00     0.077 HD
BRANCH  44  48
ATOM     48  H   THR d   4       8.223  65.817 159.757  0.00  0.00     0.065 HD
ATOM     49  H   THR d   4       8.736  66.039 159.488  0.00  0.00     0.013 HD
ENDBRANCH  44  48
BRANCH  44  50
ATOM     50  CA  THR d   4      10.354  65.172 159.645  0.00  0.00     0.090 C 
BRANCH  50  51
ATOM     51  CB  THR d   4      11.187  65.325 158.329  0.00  0.00     0.104 C 
ATOM     52  CG2 THR d   4      11.276  64.076 157.425  0.00  0.00     0.017 C 
BRANCH  51  53
ATOM     53  OG1 THR d   4      10.620  66.327 157.493  0.00  0.00    -0.575 OA
ATOM     54  H   THR d   4      10.418  65.522 156.990  0.00  0.00     0.146 HD
ATOM     55  H   THR d   4       9.870  66.941 157.434  0.00  0.00     0.146 HD
BRANCH  53  56
ATOM     56  HG1 THR d   4      11.342  66.676 156.964  0.00  0.00     0.124 HD
ATOM     57  H   THR d   4      10.889  67.065 156.796  0.00  0.00     0.022 HD
ENDBRANCH  53  56
ENDBRANCH  51  53
ENDBRANCH  50  51
BRANCH  50  58
ATOM     58  C   THR d   4      10.657  66.302 160.600  0.00  0.00     0.170 C 
BRANCH  58  59
ATOM     59  O   THR d   4      10.310  67.445 160.375  0.00  0.00    -0.496 OA
ATOM     60  H   THR d   4      10.552  67.149 161.266  0.00  0.00     0.172 HD
ATOM     61  H   THR d   4       9.449  67.071 160.132  0.00  0.00     0.172 HD
ENDBRANCH  58  59
BRANCH  58  62
ATOM     62  N   ILE d   5       9.994  67.241 160.792  0.00  0.00    -0.414 N 
ATOM     63  H   ILE d   5       9.769  66.729 161.644  0.00  0.00     0.077 HD
ATOM     64  H   ILE d   5       9.368  66.947 160.042  0.00  0.00     0.077 HD
ATOM     65  H   ILE d   5      10.959  67.049 160.525  0.00  0.00     0.077 HD
BRANCH  62  66
ATOM     66  H   ILE d   5       9.328  67.293 159.944  0.00  0.00     0.065 HD
ATOM     67  H   ILE d   5       9.443  66.767 160.251  0.00  0.00     0.013 HD
ENDBRANCH  62  66
BRANCH  62  68
ATOM     68  CA  ILE d   5       9.500  67.258 162.166  0.00  0.00     0.073 C 
BRANCH  68  69
ATOM     69  CB  ILE d   5      10.321  68.273 163.061  0.00  0.00     0.003 C 
ATOM     70  CG2 ILE d   5       9.408  69.278 163.830  0.00  0.00    -0.002 C 
BRANCH  69  71
ATOM     71  CG1 ILE d   5      11.283  67.604 164.093  0.00  0.00    -0.004 C 
ATOM     72  CD1 ILE d   5      12.686  67.235 163.566  0.00  0.00    -0.004 C 
ENDBRANCH  69  71
ENDBRANCH  68  69
BRANCH  68  73
ATOM     73  C   ILE d   5       8.018  67.545 162.206  0.00  0.00     0.169 C 
BRANCH  73  74
ATOM     74  O   ILE d   5       7.271  66.852 163.208  0.00  0.00    -0.496 OA
ATOM     75  H   ILE d   5       7.275  66.203 163.929  0.00  0.00     0.172 HD
ATOM     76  H   ILE d   5       7.327  66.390 162.358  0.00  0.00     0.172 HD
ENDBRANCH  73  74
BRANCH  73  77
ATOM     77  N   THR d   6       7.363  67.559 161.240  0.00  0.00    -0.413 N 
ATOM     78  H   THR d   6       7.504  68.569 161.247  0.00  0.00     0.077 HD
ATOM     79  H   THR d   6       6.936  67.281 160.355  0.00  0.00     0.077 HD
ATOM     80  H   THR d   6       6.748  67.296 162.011  0.00  0.00     0.077 HD
BRANCH  77  81
ATOM     81  H   THR d   6       6.419  67.175 161.600  0.00  0.00     0.065 HD
ATOM     82  H   THR d   6       6.423  67.479 161.060  0.00  0.00     0.013 HD
ENDBRANCH  77  81
BRANCH  77  83
ATOM     83  CA  THR d   6       7.450  68.791 160.462  0.00  0.00     0.090 C 
BRANCH  83  84
ATOM     84  CB  THR d   6       6.957  68.553 158.996  0.00  0.00     0.104 C 
ATOM     85  CG2 THR d   6       8.025  68.676 157.886  0.00  0.00     0.017 C 
BRANCH  84  86
ATOM     86  OG1 THR d   6       6.445  67.233 158.850  0.00  0.00    -0.575 OA
ATOM     87  H   THR d   6       7.074  67.114 159.579  0.00  0.00     0.146 HD
ATOM     88  H   THR d   6       6.912  67.575 158.073  0.00  0.00     0.146 HD
BRANCH  86  89
ATOM     89  HG1 THR d   6       6.942  66.830 158.134  0.00  0.00     0.124 HD
ATOM     90  H   THR d   6       6.723  66.320 158.413  0.00  0.00     0.022 HD
ENDBRANCH  86  89
ENDBRANCH  84  86
ENDBRANCH  83  84
BRANCH  83  91
ATOM     91  C   THR d   6       6.661  69.900 161.115  0.00  0.00     0.170 C 
BRANCH  91  92
ATOM     92  O   THR d   6       7.202  70.882 161.586  0.00  0.00    -0.496 OA
ATOM     93  H   THR d   6       6.749  70.228 162.142  0.00  0.00     0.172 HD
ATOM     94  H   THR d   6       8.123  70.610 161.451  0.00  0.00     0.172 HD
ENDBRANCH  91  92
BRANCH  91  95
ATOM     95  N   ASP d   7       6.932  71.034 161.116  0.00  0.00    -0.414 N 
ATOM     96  H   ASP d   7       6.540  70.980 160.176  0.00  0.00     0.077 HD
ATOM     97  H   ASP d   7       6.180  70.982 161.802  0.00  0.00     0.077 HD
ATOM     98  H   ASP d   7       7.432  71.917 161.226  0.00  0.00     0.077 HD
BRANCH  95  99
ATOM     99  H   ASP d   7       7.931  71.162 161.191  0.00  0.00     0.065 HD
ATOM    100  H   ASP d   7       7.593  71.659 161.041  0.00  0.00     0.013 HD
ENDBRANCH  95  99
BRANCH  95 101
ATOM    101  CA  ASP d   7       6.400  71.726 159.913  0.00  0.00     0.076 C 
BRANCH 101 102
ATOM    102  CB  ASP d   7       5.068  72.344 160.381  0.00  0.00     0.055 C 
BRANCH 102 103
ATOM    103  CG  ASP d   7       5.167  73.704 161.124  0.00  0.00     0.240 C 
BRANCH 103 104
ATOM    104  OD1 ASP d   7       5.995  73.771 162.037  0.00  0.00    -0.489 OA
ATOM    105  H   ASP d   7       6.369  73.335 162.818  0.00  0.00     0.172 HD
ATOM    106  H   ASP d   7       5.026  73.751 162.086  0.00  0.00     0.172 HD
ENDBRANCH 103 104
BRANCH 103 107
ATOM    107  OD2 ASP d   7       4.406  74.572 160.695  0.00  0.00    -0.489 OA
ATOM    108  H   ASP d   7       4.293  73.970 159.943  0.00  0.00     0.172 HD
ATOM    109  H   ASP d   7       3.535  74.862 161.012  0.00  0.00     0.172 HD
ENDBRANCH 103 107
ENDBRANCH 102 103
ENDBRANCH 101 102
BRANCH 101 110
ATOM    110  C   ASP d   7       7.318  72.759 159.167  0.00  0.00     0.169 C 
BRANCH 110 111
ATOM    111  O   ASP d   7       8.103  73.501 159.710  0.00  0.00    -0.496 OA
ATOM    112  H   ASP d   7       8.382  72.801 159.100  0.00  0.00     0.172 HD
ATOM    113  H   ASP d   7       7.136  73.495 159.791  0.00  0.00     0.172 HD
ENDBRANCH 110 111
BRANCH 110 114
ATOM    114  N   GLN d   8       8.434  72.673 159.654  0.00  0.00    -0.414 N 
ATOM    115  H   GLN d   8       8.329  71.705 159.349  0.00  0.00     0.077 HD
ATOM    116  H   GLN d   8       7.543  73.015 160.013  0.00  0.00     0.077 HD
ATOM    117  H   GLN d   8       8.726  73.249 158.865  0.00  0.00     0.077 HD
BRANCH 114 118
ATOM    118  H   GLN d   8       8.723  73.578 159.962  0.00  0.00     0.065 HD
ATOM    119  H   GLN d   8       8.441  73.043 159.825  0.00  0.00     0.013 HD
ENDBRANCH 114 118
BRANCH 114 120
ATOM    120  CA  GLN d   8       9.445  71.732 159.175  0.00  0.00     0.072 C 
BRANCH 120 121
ATOM    121  C   GLN d   8      10.454  71.491 160.273  0.00  0.00     0.169 C 
BRANCH 121 122
ATOM    122  O   GLN d   8      10.748  70.342 160.566  0.00  0.00    -0.496 OA
ATOM    123  H   GLN d   8      11.027  69.413 160.582  0.00  0.00     0.172 HD
ATOM    124  H   GLN d   8      11.505  70.904 160.338  0.00  0.00     0.172 HD
ENDBRANCH 121 122
BRANCH 121 125
ATOM    125  N   VAL d   9      10.959  72.572 160.905  0.00  0.00    -0.413 N 
ATOM    126  H   VAL d   9      10.608  71.898 161.585  0.00  0.00     0.077 HD
ATOM    127  H   VAL d   9      10.349  73.389 160.890  0.00  0.00     0.077 HD
ATOM    128  H   VAL d   9      10.978  72.143 159.980  0.00  0.00     0.077 HD
BRANCH 125 129
ATOM    129  H   VAL d   9      10.313  73.296 160.432  0.00  0.00     0.065 HD
ATOM    130  H   VAL d   9      10.537  72.806 160.125  0.00  0.00     0.013 HD
ENDBRANCH 125 129
BRANCH 125 131
ATOM    131  CA  VAL d   9      10.792  72.184 162.304  0.00  0.00     0.083 C 
BRANCH 131 132
ATOM    132  CB  VAL d   9      12.165  72.338 163.070  0.00  0.00     0.002 C 
ATOM    133  CG1 VAL d   9      12.696  71.016 163.679  0.00  0.00    -0.002 C 
ATOM    134  CG2 VAL d   9      12.194  73.369 164.234  0.00  0.00    -0.002 C 
ENDBRANCH 131 132
BRANCH 131 135
ATOM    135  C   VAL d   9       9.711  73.002 162.967  0.00  0.00     0.226 C 
BRANCH 135 136
ATOM    136  O   VAL d   9       8.709  73.387 162.352  0.00  0.00    -0.490 OA
ATOM    137  H   VAL d   9       9.585  73.226 161.968  0.00  0.00     0.172 HD
ATOM    138  H   VAL d   9       8.027  73.237 161.678  0.00  0.00     0.172 HD
ENDBRANCH 135 136
BRANCH 135 139
ATOM    139  OXT VAL d   9       8.702  72.849 162.864  0.00  0.00    -0.560 OA
ATOM    140  H   VAL d   9       8.884  72.667 161.929  0.00  0.00     0.147 HD
ATOM    141  H   VAL d   9       8.125  72.156 163.222  0.00  0.00     0.147 HD
BRANCH 139 142
ATOM    142 AHOC VAL d   9       8.270  72.386 162.153  0.00  0.00     0.126 HD
ATOM    143  H   VAL d   9       8.312  71.827 161.889  0.00  0.00     0.022 HD
ENDBRANCH 139 142
ENDBRANCH 135 139
ENDBRANCH 131 135
ENDBRANCH 125 131
ENDBRANCH 121 125
ENDBRANCH 120 121
BRANCH 120 144
ATOM    144  CB  GLN d   8      10.202  72.237 157.915  0.00  0.00     0.012 C 
BRANCH 144 145
ATOM    145  CG  GLN d   8      10.447  71.124 156.863  0.00  0.00     0.031 C 
BRANCH 145 146
ATOM    146  CD  GLN d   8      11.658  70.249 157.122  0.00  0.00     0.158 C 
BRANCH 146 147
ATOM    147  OE1 GLN d   8      12.715  70.599 156.615  0.00  0.00    -0.497 OA
ATOM    148  H   GLN d   8      12.292  70.412 157.468  0.00  0.00     0.172 HD
ATOM    149  H   GLN d   8      12.927  69.764 156.168  0.00  0.00     0.172 HD
ENDBRANCH 146 147
BRANCH 146 150
ATOM    150  NE2 GLN d   8      11.578  69.125 157.872  0.00  0.00    -0.417 N 
ATOM    151  H   GLN d   8      10.731  68.716 157.477  0.00  0.00     0.075 HD
ATOM    152  H   GLN d   8      11.387  70.082 158.168  0.00  0.00     0.075 HD
ATOM    153  H   GLN d   8      12.315  69.127 157.166  0.00  0.00     0.075 HD
BRANCH 150 154
ATOM    154 1HE2 GLN d   8      10.706  68.705 158.125  0.00  0.00     0.063 HD
ATOM    155  H   GLN d   8      10.413  68.424 158.593  0.00  0.00     0.013 HD
ENDBRANCH 150 154
BRANCH 150 156
ATOM    156 2HE2 GLN d   8      12.423  68.690 158.187  0.00  0.00     0.063 HD
ATOM    157  H   GLN d   8      12.087  68.591 157.675  0.00  0.00     0.013 HD
ENDBRANCH 150 156
ENDBRANCH 146 150
ENDBRANCH 145 146
ENDBRANCH 144 145
ENDBRANCH 120 144
ENDBRANCH 114 120
ENDBRANCH 110 114
ENDBRANCH 101 110
ENDBRANCH  95 101
ENDBRANCH  91  95
ENDBRANCH  83  91
ENDBRANCH  77  83
ENDBRANCH  73  77
ENDBRANCH  68  73
ENDBRANCH  62  68
ENDBRANCH  58  62
ENDBRANCH  50  58
ENDBRANCH  44  50
ENDBRANCH  40  44
ENDBRANCH  32  40
ENDBRANCH  26  32
ENDBRANCH  22  26
ENDBRANCH  20  22
ENDBRANCH  14  20
ENDBRANCH  10  14
ENDBRANCH   9  10
BRANCH   9 158
ATOM    158  CB  LEU d   1       1.290  64.751 163.611  0.00  0.00     0.010 C 
BRANCH 158 159
ATOM    159  CG  LEU d   1       0.563  63.574 164.333  0.00  0.00    -0.010 C 
ATOM    160  CD2 LEU d   1       1.477  62.330 164.522  0.00  0.00    -0.003 C 
ATOM    161  CD1 LEU d   1      -0.709  63.176 163.533  0.00  0.00    -0.003 C 
ENDBRANCH 158 159
ENDBRANCH   9 158
ENDBRANCH   3   9
ENDBRANCH   1   3
TORSDOF 71
ENDMDL
MODEL 9
REMARK VINA RESULT:      -8.3      4.976     10.744
REMARK WARNING: 32 MAX_TORS EXCEEDED!!!
REMARK  71 active torsions:
REMARK  status: ('A' for Active; 'I' for Inactive)
REMARK    1  A    between atoms: HNCA_1  and  N_2 
REMARK    2  A    between atoms: N_2  and  H_10 
REMARK    3  A    between atoms: N_2  and  CA_3 
REMARK    4  A    between atoms: CA_3  and  C_4 
REMARK    5  A    between atoms: CA_3  and  CB_6 
REMARK    6  A    between atoms: C_4  and  O_5 
REMARK    7  A    between atoms: C_4  and  N_11 
REMARK    8  A    between atoms: CG_7  and  CB_6 
REMARK    9  A    between atoms: N_11  and  H_16 
REMARK   10  A    between atoms: N_11  and  CA_12 
REMARK   11  A    between atoms: CA_12  and  C_13 
REMARK   12  A    between atoms: O_14  and  C_13 
REMARK   13  A    between atoms: C_13  and  N_17 
REMARK   14  A    between atoms: N_17  and  H_28 
REMARK   15  A    between atoms: N_17  and  CA_18 
REMARK   16  A    between atoms: CA_18  and  CB_21 
REMARK   17  A    between atoms: CA_18  and  C_19 
REMARK   18  A    between atoms: C_19  and  O_20 
REMARK   19  A    between atoms: C_19  and  N_29 
REMARK   20  A    between atoms: CG_22  and  CB_21 
REMARK   21  A    between atoms: N_29  and  H_36 
REMARK   22  A    between atoms: N_29  and  CA_30 
REMARK   23  A    between atoms: CA_30  and  CB_33 
REMARK   24  A    between atoms: CA_30  and  C_31 
REMARK   25  A    between atoms: C_31  and  O_32 
REMARK   26  A    between atoms: C_31  and  N_38 
REMARK   27  A    between atoms: OG1_34  and  CB_33 
REMARK   28  A    between atoms: OG1_34  and  HG1_37 
REMARK   29  A    between atoms: N_38  and  H_46 
REMARK   30  A    between atoms: N_38  and  CA_39 
REMARK   31  A    between atoms: CA_39  and  CB_42 
REMARK   32  A    between atoms: CA_39  and  C_40 
REMARK   33  A    between atoms: C_40  and  O_41 
REMARK   34  A    between atoms: C_40  and  N_47 
REMARK   35  A    between atoms: CG1_43  and  CB_42 
REMARK   36  A    between atoms: N_47  and  H_54 
REMARK   37  A    between atoms: N_47  and  CA_48 
REMARK   38  A    between atoms: CA_48  and  CB_51 
REMARK   39  A    between atoms: CA_48  and  C_49 
REMARK   40  A    between atoms: C_49  and  O_50 
REMARK   41  A    between atoms: C_49  and  N_56 
REMARK   42  A    between atoms: OG1_52  and  CB_51 
REMARK   43  A    between atoms: OG1_52  and  HG1_55 
REMARK   44  A    between atoms: N_56  and  H_64 
REMARK   45  A    between atoms: N_56  and  CA_57 
REMARK   46  A    between atoms: CA_57  and  CB_60 
REMARK   47  A    between atoms: CA_57  and  C_58 
REMARK   48  A    between atoms: C_58  and  O_59 
REMARK   49  A    between atoms: C_58  and  N_65 
REMARK   50  A    between atoms: CB_60  and  CG_61 
REMARK   51  A    between atoms: OD1_62  and  CG_61 
REMARK   52  A    between atoms: CG_61  and  OD2_63 
REMARK   53  A    between atoms: N_65  and  H_74 
REMARK   54  A    between atoms: N_65  and  CA_66 
REMARK   55  A    between atoms: CA_66  and  C_67 
REMARK   56  A    between atoms: CA_66  and  CB_69 
REMARK   57  A    between atoms: O_68  and  C_67 
REMARK   58  A    between atoms: C_67  and  N_77 
REMARK   59  A    between atoms: CG_70  and  CB_69 
REMARK   60  A    between atoms: CG_70  and  CD_71 
REMARK   61  A    between atoms: OE1_72  and  CD_71 
REMARK   62  A    between atoms: CD_71  and  NE2_73 
REMARK   63  A    between atoms: NE2_73  and  HE21_75 
REMARK   64  A    between atoms: NE2_73  and  HE22_76 
REMARK   65  A    between atoms: N_77  and  H_84 
REMARK   66  A    between atoms: N_77  and  CA_78 
REMARK   67  A    between atoms: CA_78  and  CB_81 
REMARK   68  A    between atoms: CA_78  and  C_79 
REMARK   69  A    between atoms: C_79  and  O_80 
REMARK   70  A    between atoms: C_79  and  OXT_85 
REMARK   71  A    between atoms: OXT_85  and  HOCA_86 
ROOT
ATOM      1 AHNC LEU d   1       2.364  67.512 163.901  0.00  0.00     0.061 HD
ATOM      2  H   LEU d   1       2.307  66.987 164.226  0.00  0.00     0.013 HD
ENDROOT
BRANCH   1   3
ATOM      3  N   LEU d   1       1.876  66.835 164.455  0.00  0.00    -0.429 N 
ATOM      4  H   LEU d   1       1.387  65.956 164.622  0.00  0.00     0.073 HD
ATOM      5  H   LEU d   1       1.286  67.614 164.748  0.00  0.00     0.073 HD
ATOM      6  H   LEU d   1       2.088  66.923 163.461  0.00  0.00     0.073 HD
BRANCH   3   7
ATOM      7  H   LEU d   1       2.484  67.623 164.561  0.00  0.00     0.061 HD
ATOM      8  H   LEU d   1       2.025  67.216 164.647  0.00  0.00     0.013 HD
ENDBRANCH   3   7
BRANCH   3   9
ATOM      9  CA  LEU d   1       2.416  65.487 164.622  0.00  0.00     0.069 C 
BRANCH   9  10
ATOM     10  C   LEU d   1       3.845  65.487 164.124  0.00  0.00     0.168 C 
BRANCH  10  11
ATOM     11  O   LEU d   1       4.660  66.210 164.672  0.00  0.00    -0.496 OA
ATOM     12  H   LEU d   1       5.447  66.602 165.081  0.00  0.00     0.172 HD
ATOM     13  H   LEU d   1       4.928  65.485 164.087  0.00  0.00     0.172 HD
ENDBRANCH  10  11
BRANCH  10  14
ATOM     14  N   ALA d   2       4.209  64.716 163.038  0.00  0.00    -0.414 N 
ATOM     15  H   ALA d   2       5.020  64.809 163.650  0.00  0.00     0.077 HD
ATOM     16  H   ALA d   2       4.485  64.909 162.076  0.00  0.00     0.077 HD
ATOM     17  H   ALA d   2       3.489  65.378 163.325  0.00  0.00     0.077 HD
BRANCH  14  18
ATOM     18  H   ALA d   2       3.591  64.592 162.262  0.00  0.00     0.065 HD
ATOM     19  H   ALA d   2       3.871  64.779 162.782  0.00  0.00     0.013 HD
ENDBRANCH  14  18
BRANCH  14  20
ATOM     20  CA  ALA d   2       5.514  64.066 163.014  0.00  0.00     0.071 C 
ATOM     21  CB  ALA d   2       5.408  62.523 163.157  0.00  0.00     0.010 C 
BRANCH  20  22
ATOM     22  C   ALA d   2       6.198  64.395 161.710  0.00  0.00     0.169 C 
BRANCH  22  23
ATOM     23  O   ALA d   2       6.275  65.562 161.364  0.00  0.00    -0.496 OA
ATOM     24  H   ALA d   2       6.344  66.407 160.892  0.00  0.00     0.172 HD
ATOM     25  H   ALA d   2       6.960  64.956 161.044  0.00  0.00     0.172 HD
ENDBRANCH  22  23
BRANCH  22  26
ATOM     26  N   PHE d   3       6.670  63.349 160.952  0.00  0.00    -0.414 N 
ATOM     27  H   PHE d   3       7.434  63.966 161.229  0.00  0.00     0.077 HD
ATOM     28  H   PHE d   3       6.929  62.381 161.142  0.00  0.00     0.077 HD
ATOM     29  H   PHE d   3       6.487  63.462 159.955  0.00  0.00     0.077 HD
BRANCH  26  30
ATOM     30  H   PHE d   3       6.046  63.553 160.093  0.00  0.00     0.065 HD
ATOM     31  H   PHE d   3       5.809  63.410 160.648  0.00  0.00     0.013 HD
ENDBRANCH  26  30
BRANCH  26  32
ATOM     32  CA  PHE d   3       8.102  63.637 160.955  0.00  0.00     0.072 C 
BRANCH  32  33
ATOM     33  CB  PHE d   3       8.857  62.580 161.817  0.00  0.00     0.013 C 
BRANCH  33  34
ATOM     34  CG  PHE d   3       9.735  63.124 162.953  0.00  0.00    -0.007 A 
ATOM     35  CD2 PHE d   3      11.125  62.989 162.911  0.00  0.00    -0.001 A 
ATOM     36  CE2 PHE d   3      11.912  63.545 163.913  0.00  0.00    -0.002 A 
ATOM     37  CZ  PHE d   3      11.316  64.248 164.961  0.00  0.00    -0.003 A 
ATOM     38  CE1 PHE d   3       9.930  64.385 165.010  0.00  0.00    -0.002 A 
ATOM     39  CD1 PHE d   3       9.142  63.815 164.015  0.00  0.00    -0.001 A 
ENDBRANCH  33  34
ENDBRANCH  32  33
BRANCH  32  40
ATOM     40  C   PHE d   3       8.661  63.618 159.553  0.00  0.00     0.169 C 
BRANCH  40  41
ATOM     41  O   PHE d   3       8.680  64.648 158.826  0.00  0.00    -0.496 OA
ATOM     42  H   PHE d   3       8.734  64.630 159.794  0.00  0.00     0.172 HD
ATOM     43  H   PHE d   3       9.091  63.849 158.464  0.00  0.00     0.172 HD
ENDBRANCH  40  41
BRANCH  40  44
ATOM     44  N   THR d   4       9.363  64.451 159.139  0.00  0.00    -0.413 N 
ATOM     45  H   THR d   4      10.102  63.961 159.643  0.00  0.00     0.077 HD
ATOM     46  H   THR d   4       8.518  63.879 159.133  0.00  0.00     0.077 HD
ATOM     47  H   THR d   4       9.663  64.623 158.180  0.00  0.00     0.077 HD
BRANCH  44  48
ATOM     48  H   THR d   4       8.944  65.339 159.589  0.00  0.00     0.065 HD
ATOM     49  H   THR d   4       9.557  65.318 159.503  0.00  0.00     0.013 HD
ENDBRANCH  44  48
BRANCH  44  50
ATOM     50  CA  THR d   4      10.785  64.134 159.232  0.00  0.00     0.090 C 
BRANCH  50  51
ATOM     51  CB  THR d   4      11.429  64.073 157.807  0.00  0.00     0.104 C 
ATOM     52  CG2 THR d   4      11.039  62.862 156.930  0.00  0.00     0.017 C 
BRANCH  51  53
ATOM     53  OG1 THR d   4      11.046  65.206 157.037  0.00  0.00    -0.575 OA
ATOM     54  H   THR d   4      11.565  64.703 156.390  0.00  0.00     0.146 HD
ATOM     55  H   THR d   4      10.281  65.609 156.595  0.00  0.00     0.146 HD
BRANCH  53  56
ATOM     56  HG1 THR d   4      11.675  65.901 157.250  0.00  0.00     0.124 HD
ATOM     57  H   THR d   4      11.694  65.926 156.631  0.00  0.00     0.022 HD
ENDBRANCH  53  56
ENDBRANCH  51  53
ENDBRANCH  50  51
BRANCH  50  58
ATOM     58  C   THR d   4      11.508  65.136 160.099  0.00  0.00     0.170 C 
BRANCH  58  59
ATOM     59  O   THR d   4      11.562  66.316 159.811  0.00  0.00    -0.496 OA
ATOM     60  H   THR d   4      12.333  65.733 159.733  0.00  0.00     0.172 HD
ATOM     61  H   THR d   4      11.382  66.490 160.748  0.00  0.00     0.172 HD
ENDBRANCH  58  59
BRANCH  58  62
ATOM     62  N   ILE d   5      11.218  66.255 160.251  0.00  0.00    -0.414 N 
ATOM     63  H   ILE d   5      10.825  65.885 161.116  0.00  0.00     0.077 HD
ATOM     64  H   ILE d   5      10.530  66.174 159.503  0.00  0.00     0.077 HD
ATOM     65  H   ILE d   5      12.054  65.726 160.004  0.00  0.00     0.077 HD
BRANCH  62  66
ATOM     66  H   ILE d   5      10.614  66.508 159.393  0.00  0.00     0.065 HD
ATOM     67  H   ILE d   5      10.911  65.966 159.448  0.00  0.00     0.013 HD
ENDBRANCH  62  66
BRANCH  62  68
ATOM     68  CA  ILE d   5      10.759  66.493 161.616  0.00  0.00     0.073 C 
BRANCH  68  69
ATOM     69  CB  ILE d   5      11.810  67.347 162.437  0.00  0.00     0.003 C 
ATOM     70  CG2 ILE d   5      11.307  67.714 163.868  0.00  0.00    -0.002 C 
BRANCH  69  71
ATOM     71  CG1 ILE d   5      13.221  66.693 162.572  0.00  0.00    -0.004 C 
ATOM     72  CD1 ILE d   5      13.917  66.866 163.939  0.00  0.00    -0.004 C 
ENDBRANCH  69  71
ENDBRANCH  68  69
BRANCH  68  73
ATOM     73  C   ILE d   5       9.390  67.129 161.625  0.00  0.00     0.169 C 
BRANCH  73  74
ATOM     74  O   ILE d   5       8.615  66.936 162.811  0.00  0.00    -0.496 OA
ATOM     75  H   ILE d   5       8.601  66.678 163.746  0.00  0.00     0.172 HD
ATOM     76  H   ILE d   5       8.706  66.145 162.258  0.00  0.00     0.172 HD
ENDBRANCH  73  74
BRANCH  73  77
ATOM     77  N   THR d   6       8.658  67.037 160.720  0.00  0.00    -0.413 N 
ATOM     78  H   THR d   6       8.561  68.050 160.789  0.00  0.00     0.077 HD
ATOM     79  H   THR d   6       8.222  66.712 159.856  0.00  0.00     0.077 HD
ATOM     80  H   THR d   6       8.199  66.596 161.518  0.00  0.00     0.077 HD
BRANCH  77  81
ATOM     81  H   THR d   6       7.868  66.422 161.129  0.00  0.00     0.065 HD
ATOM     82  H   THR d   6       8.374  66.515 161.475  0.00  0.00     0.013 HD
ENDBRANCH  77  81
BRANCH  77  83
ATOM     83  CA  THR d   6       8.381  68.293 160.031  0.00  0.00     0.090 C 
BRANCH  83  84
ATOM     84  CB  THR d   6       8.508  68.110 158.481  0.00  0.00     0.104 C 
ATOM     85  CG2 THR d   6       8.490  69.403 157.635  0.00  0.00     0.017 C 
BRANCH  84  86
ATOM     86  OG1 THR d   6       9.744  67.487 158.152  0.00  0.00    -0.575 OA
ATOM     87  H   THR d   6      10.020  68.411 158.265  0.00  0.00     0.146 HD
ATOM     88  H   THR d   6       9.066  67.434 157.460  0.00  0.00     0.146 HD
BRANCH  86  89
ATOM     89  HG1 THR d   6       9.766  67.424 157.194  0.00  0.00     0.124 HD
ATOM     90  H   THR d   6      10.360  67.303 157.322  0.00  0.00     0.022 HD
ENDBRANCH  86  89
ENDBRANCH  84  86
ENDBRANCH  83  84
BRANCH  83  91
ATOM     91  C   THR d   6       7.014  68.821 160.394  0.00  0.00     0.170 C 
BRANCH  91  92
ATOM     92  O   THR d   6       6.761  69.237 161.507  0.00  0.00    -0.496 OA
ATOM     93  H   THR d   6       6.350  69.613 160.712  0.00  0.00     0.172 HD
ATOM     94  H   THR d   6       6.234  68.485 161.819  0.00  0.00     0.172 HD
ENDBRANCH  91  92
BRANCH  91  95
ATOM     95  N   ASP d   7       6.781  69.674 161.153  0.00  0.00    -0.414 N 
ATOM     96  H   ASP d   7       7.057  70.256 160.362  0.00  0.00     0.077 HD
ATOM     97  H   ASP d   7       5.860  69.274 160.975  0.00  0.00     0.077 HD
ATOM     98  H   ASP d   7       6.746  70.244 161.999  0.00  0.00     0.077 HD
BRANCH  95  99
ATOM     99  H   ASP d   7       7.414  69.634 161.938  0.00  0.00     0.065 HD
ATOM    100  H   ASP d   7       6.886  69.312 161.985  0.00  0.00     0.013 HD
ENDBRANCH  95  99
BRANCH  95 101
ATOM    101  CA  ASP d   7       6.825  71.012 160.506  0.00  0.00     0.076 C 
BRANCH 101 102
ATOM    102  CB  ASP d   7       5.358  71.486 160.500  0.00  0.00     0.055 C 
BRANCH 102 103
ATOM    103  CG  ASP d   7       4.855  72.144 159.186  0.00  0.00     0.240 C 
BRANCH 103 104
ATOM    104  OD1 ASP d   7       4.639  71.383 158.240  0.00  0.00    -0.489 OA
ATOM    105  H   ASP d   7       5.025  70.770 157.595  0.00  0.00     0.172 HD
ATOM    106  H   ASP d   7       5.162  72.200 158.264  0.00  0.00     0.172 HD
ENDBRANCH 103 104
BRANCH 103 107
ATOM    107  OD2 ASP d   7       4.715  73.365 159.254  0.00  0.00    -0.489 OA
ATOM    108  H   ASP d   7       5.431  73.390 158.599  0.00  0.00     0.172 HD
ATOM    109  H   ASP d   7       3.987  73.935 158.960  0.00  0.00     0.172 HD
ENDBRANCH 103 107
ENDBRANCH 102 103
ENDBRANCH 101 102
BRANCH 101 110
ATOM    110  C   ASP d   7       7.809  72.094 161.075  0.00  0.00     0.169 C 
BRANCH 110 111
ATOM    111  O   ASP d   7       7.740  72.575 162.183  0.00  0.00    -0.496 OA
ATOM    112  H   ASP d   7       8.190  73.019 161.447  0.00  0.00     0.172 HD
ATOM    113  H   ASP d   7       7.376  71.729 161.877  0.00  0.00     0.172 HD
ENDBRANCH 110 111
BRANCH 110 114
ATOM    114  N   GLN d   8       8.103  71.759 162.211  0.00  0.00    -0.414 N 
ATOM    115  H   GLN d   8       8.497  70.961 161.713  0.00  0.00     0.077 HD
ATOM    116  H   GLN d   8       7.224  72.034 161.772  0.00  0.00     0.077 HD
ATOM    117  H   GLN d   8       8.758  72.539 162.177  0.00  0.00     0.077 HD
BRANCH 114 118
ATOM    118  H   GLN d   8       7.829  72.482 162.843  0.00  0.00     0.065 HD
ATOM    119  H   GLN d   8       8.109  72.056 162.491  0.00  0.00     0.013 HD
ENDBRANCH 114 118
BRANCH 114 120
ATOM    120  CA  GLN d   8       9.280  70.952 162.528  0.00  0.00     0.072 C 
BRANCH 120 121
ATOM    121  C   GLN d   8       9.125  70.376 163.915  0.00  0.00     0.169 C 
BRANCH 121 122
ATOM    122  O   GLN d   8       8.358  69.440 164.086  0.00  0.00    -0.496 OA
ATOM    123  H   GLN d   8       7.605  68.830 164.118  0.00  0.00     0.172 HD
ATOM    124  H   GLN d   8       8.631  69.571 163.165  0.00  0.00     0.172 HD
ENDBRANCH 121 122
BRANCH 121 125
ATOM    125  N   VAL d   9       9.824  70.956 164.914  0.00  0.00    -0.413 N 
ATOM    126  H   VAL d   9       8.834  71.182 164.999  0.00  0.00     0.077 HD
ATOM    127  H   VAL d   9      10.341  71.789 164.634  0.00  0.00     0.077 HD
ATOM    128  H   VAL d   9       9.947  70.227 164.211  0.00  0.00     0.077 HD
BRANCH 125 129
ATOM    129  H   VAL d   9      10.488  71.523 164.277  0.00  0.00     0.065 HD
ATOM    130  H   VAL d   9      10.313  71.728 164.835  0.00  0.00     0.013 HD
ENDBRANCH 125 129
BRANCH 125 131
ATOM    131  CA  VAL d   9       8.753  71.592 165.676  0.00  0.00     0.083 C 
BRANCH 131 132
ATOM    132  CB  VAL d   9       8.829  71.139 167.187  0.00  0.00     0.002 C 
ATOM    133  CG1 VAL d   9       7.444  70.952 167.857  0.00  0.00    -0.002 C 
ATOM    134  CG2 VAL d   9       9.628  72.067 168.146  0.00  0.00    -0.002 C 
ENDBRANCH 131 132
BRANCH 131 135
ATOM    135  C   VAL d   9       8.825  73.096 165.560  0.00  0.00     0.226 C 
BRANCH 135 136
ATOM    136  O   VAL d   9       8.462  73.693 164.539  0.00  0.00    -0.490 OA
ATOM    137  H   VAL d   9       8.388  72.738 164.696  0.00  0.00     0.172 HD
ATOM    138  H   VAL d   9       7.755  73.978 163.939  0.00  0.00     0.172 HD
ENDBRANCH 135 136
BRANCH 135 139
ATOM    139  OXT VAL d   9       8.087  73.699 165.181  0.00  0.00    -0.560 OA
ATOM    140  H   VAL d   9       8.674  74.444 165.382  0.00  0.00     0.147 HD
ATOM    141  H   VAL d   9       7.744  73.792 164.278  0.00  0.00     0.147 HD
BRANCH 139 142
ATOM    142 AHOC VAL d   9       8.188  74.598 164.885  0.00  0.00     0.126 HD
ATOM    143  H   VAL d   9       8.038  75.161 165.097  0.00  0.00     0.022 HD
ENDBRANCH 139 142
ENDBRANCH 135 139
ENDBRANCH 131 135
ENDBRANCH 125 131
ENDBRANCH 121 125
ENDBRANCH 120 121
BRANCH 120 144
ATOM    144  CB  GLN d   8      10.607  71.759 162.478  0.00  0.00     0.012 C 
BRANCH 144 145
ATOM    145  CG  GLN d   8      11.729  71.043 161.681  0.00  0.00     0.031 C 
BRANCH 145 146
ATOM    146  CD  GLN d   8      11.418  70.792 160.218  0.00  0.00     0.158 C 
BRANCH 146 147
ATOM    147  OE1 GLN d   8      11.015  71.744 159.564  0.00  0.00    -0.497 OA
ATOM    148  H   GLN d   8      10.718  70.952 160.040  0.00  0.00     0.172 HD
ATOM    149  H   GLN d   8      11.235  72.441 160.202  0.00  0.00     0.172 HD
ENDBRANCH 146 147
BRANCH 146 150
ATOM    150  NE2 GLN d   8      11.567  69.569 159.657  0.00  0.00    -0.417 N 
ATOM    151  H   GLN d   8      11.062  69.718 158.784  0.00  0.00     0.075 HD
ATOM    152  H   GLN d   8      10.968  69.821 160.444  0.00  0.00     0.075 HD
ATOM    153  H   GLN d   8      12.406  70.150 159.668  0.00  0.00     0.075 HD
BRANCH 150 154
ATOM    154 1HE2 GLN d   8      10.878  69.160 159.059  0.00  0.00     0.063 HD
ATOM    155  H   GLN d   8      10.712  68.626 158.793  0.00  0.00     0.013 HD
ENDBRANCH 150 154
BRANCH 150 156
ATOM    156 2HE2 GLN d   8      12.402  69.048 159.844  0.00  0.00     0.063 HD
ATOM    157  H   GLN d   8      12.312  69.660 159.796  0.00  0.00     0.013 HD
ENDBRANCH 150 156
ENDBRANCH 146 150
ENDBRANCH 145 146
ENDBRANCH 144 145
ENDBRANCH 120 144
ENDBRANCH 114 120
ENDBRANCH 110 114
ENDBRANCH 101 110
ENDBRANCH  95 101
ENDBRANCH  91  95
ENDBRANCH  83  91
ENDBRANCH  77  83
ENDBRANCH  73  77
ENDBRANCH  68  73
ENDBRANCH  62  68
ENDBRANCH  58  62
ENDBRANCH  50  58
ENDBRANCH  44  50
ENDBRANCH  40  44
ENDBRANCH  32  40
ENDBRANCH  26  32
ENDBRANCH  22  26
ENDBRANCH  20  22
ENDBRANCH  14  20
ENDBRANCH  10  14
ENDBRANCH   9  10
BRANCH   9 158
ATOM    158  CB  LEU d   1       1.612  64.405 163.848  0.00  0.00     0.010 C 
BRANCH 158 159
ATOM    159  CG  LEU d   1       1.128  63.204 164.718  0.00  0.00    -0.010 C 
ATOM    160  CD2 LEU d   1       2.244  62.147 164.955  0.00  0.00    -0.003 C 
ATOM    161  CD1 LEU d   1      -0.100  62.531 164.042  0.00  0.00    -0.003 C 
ENDBRANCH 158 159
ENDBRANCH   9 158
ENDBRANCH   3   9
ENDBRANCH   1   3
TORSDOF 71
ENDMDL
