MODEL 1
REMARK VINA RESULT:      -1.5      0.000      0.000
REMARK  Name = *****
REMARK                            x       y       z     vdW  Elec       q    Type
REMARK                         _______ _______ _______ _____ _____    ______ ____
ROOT
ATOM      1  C   LIG    1       24.402 -14.372   3.452  0.00  0.00    +0.051 C 
ATOM      2  C   LIG    1       25.426 -13.958   4.533  0.00  0.00    +0.065 C 
ATOM      3  C   LIG    1       24.872 -12.610   4.960  0.00  0.00    +0.140 C 
ATOM      4  O   LIG    1       25.213 -12.020   5.978  0.00  0.00    -0.297 OA
ATOM      5  C   LIG    1       23.842 -12.057   4.017  0.00  0.00    +0.106 C 
ATOM      6  C   LIG    1       23.894 -13.042   2.859  0.00  0.00    +0.129 C 
ENDROOT
BRANCH   1   8
ATOM      7  C   LIG    1       23.401 -16.441   4.457  0.00  0.00    +0.001 C 
ATOM      8  C   LIG    1       23.249 -15.171   4.040  0.00  0.00    -0.022 C 
BRANCH   7   9
ATOM      9  C   LIG    1       22.333 -17.348   5.035  0.00  0.00    +0.143 C 
BRANCH   9  10
ATOM     10  C   LIG    1       22.067 -18.674   4.225  0.00  0.00    -0.005 C 
ATOM     11  C   LIG    1       21.850 -19.857   5.192  0.00  0.00    +0.014 C 
ATOM     12  C   LIG    1       20.800 -18.509   3.351  0.00  0.00    +0.014 C 
BRANCH  10  13
ATOM     13  C   LIG    1       23.301 -18.968   3.303  0.00  0.00    +0.009 C 
BRANCH  13  14
ATOM     14  C   LIG    1       24.277 -20.035   3.827  0.00  0.00    +0.000 C 
BRANCH  14  16
ATOM     15  C   LIG    1       25.838 -18.193   3.128  0.00  0.00    +0.004 C 
ATOM     16  C   LIG    1       25.738 -19.604   3.692  0.00  0.00    -0.003 C 
ENDBRANCH  14  16
ENDBRANCH  13  14
ENDBRANCH  10  13
ENDBRANCH   9  10
BRANCH   9  17
ATOM     17  O   LIG    1       21.124 -16.601   5.171  0.00  0.00    -0.387 OA
ATOM     18  H   LIG    1       20.405 -17.241   5.305  0.00  0.00    +0.210 HD
ENDBRANCH   9  17
ENDBRANCH   7   9
ENDBRANCH   1   8
BRANCH   6  19
ATOM     19  O   LIG    1       24.757 -12.603   1.812  0.00  0.00    -0.391 OA
ATOM     20  H   LIG    1       24.454 -12.949   0.955  0.00  0.00    +0.210 HD
ENDBRANCH   6  19
BRANCH   2  21
ATOM     21  C   LIG    1       26.863 -13.830   4.007  0.00  0.00    +0.011 C 
BRANCH  21  22
ATOM     22  C   LIG    1       27.471 -15.196   3.655  0.00  0.00    +0.001 C 
BRANCH  22  23
ATOM     23  C   LIG    1       28.219 -15.792   4.837  0.00  0.00    +0.004 C 
BRANCH  23  24
ATOM     24  C   LIG    1       28.775 -17.191   4.539  0.00  0.00    +0.027 C 
BRANCH  24  25
ATOM     25  C   LIG    1       28.430 -18.213   5.594  0.00  0.00    -0.020 C 
ATOM     26  C   LIG    1       28.793 -19.496   5.575  0.00  0.00    +0.087 C 
BRANCH  26  27
ATOM     27  C   LIG    1       28.414 -20.447   6.637  0.00  0.00    +0.331 C 
ATOM     28  O   LIG    1       29.134 -21.332   7.061  0.00  0.00    -0.246 OA
BRANCH  27  29
ATOM     29  O   LIG    1       27.162 -20.159   7.042  0.00  0.00    -0.465 OA
ATOM     30  C   LIG    1       26.280 -21.278   7.024  0.00  0.00    +0.280 C 
ENDBRANCH  27  29
ENDBRANCH  26  27
ENDBRANCH  24  25
ENDBRANCH  23  24
ENDBRANCH  22  23
ENDBRANCH  21  22
ENDBRANCH   2  21
TORSDOF 15
ENDMDL
MODEL 2
REMARK VINA RESULT:      -1.3      1.204      2.001
REMARK  Name = *****
REMARK                            x       y       z     vdW  Elec       q    Type
REMARK                         _______ _______ _______ _____ _____    ______ ____
ROOT
ATOM      1  C   LIG    1       23.903 -13.964   3.395  0.00  0.00    +0.051 C 
ATOM      2  C   LIG    1       25.394 -14.122   3.768  0.00  0.00    +0.065 C 
ATOM      3  C   LIG    1       25.515 -13.133   4.914  0.00  0.00    +0.140 C 
ATOM      4  O   LIG    1       26.459 -13.099   5.694  0.00  0.00    -0.297 OA
ATOM      5  C   LIG    1       24.351 -12.189   5.019  0.00  0.00    +0.106 C 
ATOM      6  C   LIG    1       23.555 -12.508   3.763  0.00  0.00    +0.129 C 
ENDROOT
BRANCH   1   8
ATOM      7  C   LIG    1       23.385 -16.213   4.378  0.00  0.00    +0.001 C 
ATOM      8  C   LIG    1       23.020 -14.936   4.163  0.00  0.00    -0.022 C 
BRANCH   7   9
ATOM      9  C   LIG    1       22.591 -17.281   5.102  0.00  0.00    +0.143 C 
BRANCH   9  10
ATOM     10  C   LIG    1       22.402 -18.632   4.311  0.00  0.00    -0.005 C 
ATOM     11  C   LIG    1       21.191 -18.529   3.361  0.00  0.00    +0.014 C 
ATOM     12  C   LIG    1       23.667 -18.929   3.471  0.00  0.00    +0.014 C 
BRANCH  10  13
ATOM     13  C   LIG    1       22.171 -19.797   5.334  0.00  0.00    +0.009 C 
BRANCH  13  14
ATOM     14  C   LIG    1       23.258 -20.886   5.352  0.00  0.00    +0.000 C 
BRANCH  14  16
ATOM     15  C   LIG    1       25.377 -20.521   6.655  0.00  0.00    +0.004 C 
ATOM     16  C   LIG    1       23.936 -21.009   6.718  0.00  0.00    -0.003 C 
ENDBRANCH  14  16
ENDBRANCH  13  14
ENDBRANCH  10  13
ENDBRANCH   9  10
BRANCH   9  17
ATOM     17  O   LIG    1       21.320 -16.740   5.464  0.00  0.00    -0.387 OA
ATOM     18  H   LIG    1       21.079 -16.092   4.780  0.00  0.00    +0.210 HD
ENDBRANCH   9  17
ENDBRANCH   7   9
ENDBRANCH   1   8
BRANCH   6  19
ATOM     19  O   LIG    1       23.873 -11.632   2.683  0.00  0.00    -0.391 OA
ATOM     20  H   LIG    1       24.481 -10.934   2.981  0.00  0.00    +0.210 HD
ENDBRANCH   6  19
BRANCH   2  21
ATOM     21  C   LIG    1       26.358 -13.772   2.625  0.00  0.00    +0.011 C 
BRANCH  21  22
ATOM     22  C   LIG    1       27.671 -13.166   3.144  0.00  0.00    +0.001 C 
BRANCH  22  23
ATOM     23  C   LIG    1       28.564 -14.227   3.769  0.00  0.00    +0.004 C 
BRANCH  23  24
ATOM     24  C   LIG    1       27.939 -15.627   3.724  0.00  0.00    +0.027 C 
BRANCH  24  25
ATOM     25  C   LIG    1       28.527 -16.581   4.734  0.00  0.00    -0.020 C 
ATOM     26  C   LIG    1       28.211 -17.871   4.854  0.00  0.00    +0.087 C 
BRANCH  26  27
ATOM     27  C   LIG    1       28.819 -18.749   5.871  0.00  0.00    +0.331 C 
ATOM     28  O   LIG    1       29.409 -18.354   6.860  0.00  0.00    -0.246 OA
BRANCH  27  29
ATOM     29  O   LIG    1       28.602 -20.029   5.516  0.00  0.00    -0.465 OA
ATOM     30  C   LIG    1       28.952 -20.973   6.526  0.00  0.00    +0.280 C 
ENDBRANCH  27  29
ENDBRANCH  26  27
ENDBRANCH  24  25
ENDBRANCH  23  24
ENDBRANCH  22  23
ENDBRANCH  21  22
ENDBRANCH   2  21
TORSDOF 15
ENDMDL
MODEL 3
REMARK VINA RESULT:      -1.1      1.802      5.678
REMARK  Name = *****
REMARK                            x       y       z     vdW  Elec       q    Type
REMARK                         _______ _______ _______ _____ _____    ______ ____
ROOT
ATOM      1  C   LIG    1       22.118 -17.708   4.427  0.00  0.00    +0.051 C 
ATOM      2  C   LIG    1       23.168 -18.755   4.861  0.00  0.00    +0.065 C 
ATOM      3  C   LIG    1       23.390 -19.504   3.559  0.00  0.00    +0.140 C 
ATOM      4  O   LIG    1       24.330 -20.263   3.356  0.00  0.00    -0.297 OA
ATOM      5  C   LIG    1       22.346 -19.222   2.517  0.00  0.00    +0.106 C 
ATOM      6  C   LIG    1       21.334 -18.385   3.285  0.00  0.00    +0.129 C 
ENDROOT
BRANCH   1   8
ATOM      7  C   LIG    1       23.336 -15.546   4.790  0.00  0.00    +0.001 C 
ATOM      8  C   LIG    1       22.767 -16.421   3.942  0.00  0.00    -0.022 C 
BRANCH   7   9
ATOM      9  C   LIG    1       23.991 -14.225   4.438  0.00  0.00    +0.143 C 
BRANCH   9  10
ATOM     10  C   LIG    1       25.232 -14.326   3.471  0.00  0.00    -0.005 C 
ATOM     11  C   LIG    1       25.528 -15.803   3.135  0.00  0.00    +0.014 C 
ATOM     12  C   LIG    1       24.935 -13.568   2.155  0.00  0.00    +0.014 C 
BRANCH  10  13
ATOM     13  C   LIG    1       26.480 -13.686   4.171  0.00  0.00    +0.009 C 
BRANCH  13  14
ATOM     14  C   LIG    1       27.764 -13.645   3.323  0.00  0.00    +0.000 C 
BRANCH  14  16
ATOM     15  C   LIG    1       28.438 -12.247   5.301  0.00  0.00    +0.004 C 
ATOM     16  C   LIG    1       28.800 -12.669   3.883  0.00  0.00    -0.003 C 
ENDBRANCH  14  16
ENDBRANCH  13  14
ENDBRANCH  10  13
ENDBRANCH   9  10
BRANCH   9  17
ATOM     17  O   LIG    1       24.361 -13.563   5.648  0.00  0.00    -0.387 OA
ATOM     18  H   LIG    1       25.326 -13.640   5.734  0.00  0.00    +0.210 HD
ENDBRANCH   9  17
ENDBRANCH   7   9
ENDBRANCH   1   8
BRANCH   6  19
ATOM     19  O   LIG    1       20.268 -19.173   3.812  0.00  0.00    -0.391 OA
ATOM     20  H   LIG    1       20.237 -20.040   3.372  0.00  0.00    +0.210 HD
ENDBRANCH   6  19
BRANCH   2  21
ATOM     21  C   LIG    1       22.680 -19.698   5.971  0.00  0.00    +0.011 C 
BRANCH  21  22
ATOM     22  C   LIG    1       23.757 -19.934   7.040  0.00  0.00    +0.001 C 
BRANCH  22  23
ATOM     23  C   LIG    1       24.252 -21.373   7.023  0.00  0.00    +0.004 C 
BRANCH  23  24
ATOM     24  C   LIG    1       25.458 -21.572   6.097  0.00  0.00    +0.027 C 
BRANCH  24  25
ATOM     25  C   LIG    1       26.643 -20.710   6.459  0.00  0.00    -0.020 C 
ATOM     26  C   LIG    1       27.602 -20.322   5.617  0.00  0.00    +0.087 C 
BRANCH  26  27
ATOM     27  C   LIG    1       28.739 -19.483   6.039  0.00  0.00    +0.331 C 
ATOM     28  O   LIG    1       29.378 -19.650   7.062  0.00  0.00    -0.246 OA
BRANCH  27  29
ATOM     29  O   LIG    1       28.938 -18.531   5.108  0.00  0.00    -0.465 OA
ATOM     30  C   LIG    1       27.738 -17.908   4.657  0.00  0.00    +0.280 C 
ENDBRANCH  27  29
ENDBRANCH  26  27
ENDBRANCH  24  25
ENDBRANCH  23  24
ENDBRANCH  22  23
ENDBRANCH  21  22
ENDBRANCH   2  21
TORSDOF 15
ENDMDL
MODEL 4
REMARK VINA RESULT:      -0.6      2.272      7.598
REMARK  Name = *****
REMARK                            x       y       z     vdW  Elec       q    Type
REMARK                         _______ _______ _______ _____ _____    ______ ____
ROOT
ATOM      1  C   LIG    1       24.426 -19.421   3.476  0.00  0.00    +0.051 C 
ATOM      2  C   LIG    1       23.358 -19.188   4.568  0.00  0.00    +0.065 C 
ATOM      3  C   LIG    1       23.631 -20.357   5.498  0.00  0.00    +0.140 C 
ATOM      4  O   LIG    1       23.193 -20.441   6.640  0.00  0.00    -0.297 OA
ATOM      5  C   LIG    1       24.509 -21.414   4.894  0.00  0.00    +0.106 C 
ATOM      6  C   LIG    1       24.641 -20.948   3.453  0.00  0.00    +0.129 C 
ENDROOT
BRANCH   1   8
ATOM      7  C   LIG    1       25.793 -17.364   3.911  0.00  0.00    +0.001 C 
ATOM      8  C   LIG    1       25.728 -18.702   3.794  0.00  0.00    -0.022 C 
BRANCH   7   9
ATOM      9  C   LIG    1       27.026 -16.530   4.200  0.00  0.00    +0.143 C 
BRANCH   9  10
ATOM     10  C   LIG    1       26.937 -15.022   3.750  0.00  0.00    -0.005 C 
ATOM     11  C   LIG    1       26.129 -14.902   2.441  0.00  0.00    +0.014 C 
ATOM     12  C   LIG    1       26.232 -14.187   4.846  0.00  0.00    +0.014 C 
BRANCH  10  13
ATOM     13  C   LIG    1       28.387 -14.468   3.526  0.00  0.00    +0.009 C 
BRANCH  13  14
ATOM     14  C   LIG    1       28.473 -12.982   3.134  0.00  0.00    +0.000 C 
BRANCH  14  16
ATOM     15  C   LIG    1       28.734 -12.172   5.499  0.00  0.00    +0.004 C 
ATOM     16  C   LIG    1       29.339 -12.174   4.102  0.00  0.00    -0.003 C 
ENDBRANCH  14  16
ENDBRANCH  13  14
ENDBRANCH  10  13
ENDBRANCH   9  10
BRANCH   9  17
ATOM     17  O   LIG    1       28.155 -17.160   3.595  0.00  0.00    -0.387 OA
ATOM     18  H   LIG    1       28.390 -16.636   2.810  0.00  0.00    +0.210 HD
ENDBRANCH   9  17
ENDBRANCH   7   9
ENDBRANCH   1   8
BRANCH   6  19
ATOM     19  O   LIG    1       23.688 -21.572   2.593  0.00  0.00    -0.391 OA
ATOM     20  H   LIG    1       23.801 -22.537   2.606  0.00  0.00    +0.210 HD
ENDBRANCH   6  19
BRANCH   2  21
ATOM     21  C   LIG    1       21.916 -19.221   4.040  0.00  0.00    +0.011 C 
BRANCH  21  22
ATOM     22  C   LIG    1       21.225 -17.856   4.170  0.00  0.00    +0.001 C 
BRANCH  22  23
ATOM     23  C   LIG    1       22.188 -16.715   3.882  0.00  0.00    +0.004 C 
BRANCH  23  24
ATOM     24  C   LIG    1       22.673 -16.014   5.158  0.00  0.00    +0.027 C 
BRANCH  24  25
ATOM     25  C   LIG    1       23.081 -14.578   4.938  0.00  0.00    -0.020 C 
ATOM     26  C   LIG    1       23.238 -13.993   3.750  0.00  0.00    +0.087 C 
BRANCH  26  27
ATOM     27  C   LIG    1       23.647 -12.584   3.605  0.00  0.00    +0.331 C 
ATOM     28  O   LIG    1       23.812 -11.814   4.533  0.00  0.00    -0.246 OA
BRANCH  27  29
ATOM     29  O   LIG    1       23.805 -12.317   2.294  0.00  0.00    -0.465 OA
ATOM     30  C   LIG    1       25.078 -11.765   1.969  0.00  0.00    +0.280 C 
ENDBRANCH  27  29
ENDBRANCH  26  27
ENDBRANCH  24  25
ENDBRANCH  23  24
ENDBRANCH  22  23
ENDBRANCH  21  22
ENDBRANCH   2  21
TORSDOF 15
ENDMDL
MODEL 5
REMARK VINA RESULT:       0.5      1.722      5.836
REMARK  Name = *****
REMARK                            x       y       z     vdW  Elec       q    Type
REMARK                         _______ _______ _______ _____ _____    ______ ____
ROOT
ATOM      1  C   LIG    1       23.700 -16.933   4.550  0.00  0.00    +0.051 C 
ATOM      2  C   LIG    1       23.056 -18.195   3.933  0.00  0.00    +0.065 C 
ATOM      3  C   LIG    1       21.822 -17.603   3.277  0.00  0.00    +0.140 C 
ATOM      4  O   LIG    1       21.136 -18.191   2.449  0.00  0.00    -0.297 OA
ATOM      5  C   LIG    1       21.513 -16.204   3.729  0.00  0.00    +0.106 C 
ATOM      6  C   LIG    1       22.516 -15.992   4.852  0.00  0.00    +0.129 C 
ENDROOT
BRANCH   1   8
ATOM      7  C   LIG    1       25.772 -15.619   4.028  0.00  0.00    +0.001 C 
ATOM      8  C   LIG    1       24.679 -16.271   3.592  0.00  0.00    -0.022 C 
BRANCH   7   9
ATOM      9  C   LIG    1       26.806 -14.900   3.183  0.00  0.00    +0.143 C 
BRANCH   9  10
ATOM     10  C   LIG    1       27.250 -13.487   3.723  0.00  0.00    -0.005 C 
ATOM     11  C   LIG    1       26.978 -13.384   5.238  0.00  0.00    +0.014 C 
ATOM     12  C   LIG    1       28.763 -13.283   3.475  0.00  0.00    +0.014 C 
BRANCH  10  13
ATOM     13  C   LIG    1       26.444 -12.374   2.967  0.00  0.00    +0.009 C 
BRANCH  13  14
ATOM     14  C   LIG    1       25.203 -12.863   2.200  0.00  0.00    +0.000 C 
BRANCH  14  16
ATOM     15  C   LIG    1       24.037 -12.168   4.316  0.00  0.00    +0.004 C 
ATOM     16  C   LIG    1       23.900 -12.343   2.809  0.00  0.00    -0.003 C 
ENDBRANCH  14  16
ENDBRANCH  13  14
ENDBRANCH  10  13
ENDBRANCH   9  10
BRANCH   9  17
ATOM     17  O   LIG    1       26.306 -14.785   1.850  0.00  0.00    -0.387 OA
ATOM     18  H   LIG    1       25.361 -15.008   1.878  0.00  0.00    +0.210 HD
ENDBRANCH   9  17
ENDBRANCH   7   9
ENDBRANCH   1   8
BRANCH   6  19
ATOM     19  O   LIG    1       21.964 -16.285   6.135  0.00  0.00    -0.391 OA
ATOM     20  H   LIG    1       22.133 -15.552   6.751  0.00  0.00    +0.210 HD
ENDBRANCH   6  19
BRANCH   2  21
ATOM     21  C   LIG    1       22.679 -19.265   4.968  0.00  0.00    +0.011 C 
BRANCH  21  22
ATOM     22  C   LIG    1       23.458 -20.572   4.754  0.00  0.00    +0.001 C 
BRANCH  22  23
ATOM     23  C   LIG    1       23.308 -21.509   5.943  0.00  0.00    +0.004 C 
BRANCH  23  24
ATOM     24  C   LIG    1       24.315 -21.211   7.062  0.00  0.00    +0.027 C 
BRANCH  24  25
ATOM     25  C   LIG    1       25.753 -21.284   6.612  0.00  0.00    -0.020 C 
ATOM     26  C   LIG    1       26.713 -20.421   6.948  0.00  0.00    +0.087 C 
BRANCH  26  27
ATOM     27  C   LIG    1       28.101 -20.547   6.467  0.00  0.00    +0.331 C 
ATOM     28  O   LIG    1       28.963 -21.212   7.011  0.00  0.00    -0.246 OA
BRANCH  27  29
ATOM     29  O   LIG    1       28.233 -19.816   5.343  0.00  0.00    -0.465 OA
ATOM     30  C   LIG    1       28.971 -18.611   5.525  0.00  0.00    +0.280 C 
ENDBRANCH  27  29
ENDBRANCH  26  27
ENDBRANCH  24  25
ENDBRANCH  23  24
ENDBRANCH  22  23
ENDBRANCH  21  22
ENDBRANCH   2  21
TORSDOF 15
ENDMDL
