MODEL 1
REMARK VINA RESULT:      -9.1      0.000      0.000
REMARK  Name = *****
REMARK                            x       y       z     vdW  Elec       q    Type
REMARK                         _______ _______ _______ _____ _____    ______ ____
ROOT
ATOM      1  C   LIG    1       25.848 -21.776   7.469  0.00  0.00    +0.098 C 
ENDROOT
BRANCH   1   2
ATOM      2  N   LIG    1       24.884 -20.867   6.504  0.00  0.00    -0.276 NA
BRANCH   2   3
ATOM      3  C   LIG    1       24.820 -21.240   5.072  0.00  0.00    +0.206 C 
BRANCH   3   4
ATOM      4  C   LIG    1       25.037 -20.008   4.404  0.00  0.00    +0.319 C 
ATOM      5  O   LIG    1       24.285 -19.378   3.698  0.00  0.00    -0.250 OA
BRANCH   4   6
ATOM      6  O   LIG    1       26.315 -20.275   4.141  0.00  0.00    -0.480 OA
ATOM      7  H   LIG    1       26.757 -21.010   4.747  0.00  0.00    +0.295 HD
ENDBRANCH   4   6
ENDBRANCH   3   4
ENDBRANCH   2   3
BRANCH   2   8
ATOM      8  C   LIG    1       23.459 -20.692   6.663  0.00  0.00    +0.206 C 
BRANCH   8   9
ATOM      9  C   LIG    1       22.636 -21.645   5.948  0.00  0.00    +0.319 C 
ATOM     10  O   LIG    1       21.855 -21.323   5.003  0.00  0.00    -0.250 OA
BRANCH   9  11
ATOM     11  O   LIG    1       22.615 -22.899   6.378  0.00  0.00    -0.480 OA
ATOM     12  H   LIG    1       23.336 -22.793   7.019  0.00  0.00    +0.295 HD
ENDBRANCH   9  11
ENDBRANCH   8   9
ENDBRANCH   2   8
ENDBRANCH   1   2
BRANCH   1  13
ATOM     13  C   LIG    1       27.335 -21.600   7.014  0.00  0.00    +0.106 C 
BRANCH  13  14
ATOM     14  N   LIG    1       27.908 -20.239   7.037  0.00  0.00    -0.290 NA
BRANCH  14  15
ATOM     15  C   LIG    1       28.230 -19.731   8.405  0.00  0.00    +0.100 C 
BRANCH  15  16
ATOM     16  C   LIG    1       29.465 -18.822   8.760  0.00  0.00    +0.101 C 
BRANCH  16  17
ATOM     17  N   LIG    1       30.844 -19.301   8.979  0.00  0.00    -0.281 NA
BRANCH  17  18
ATOM     18  C   LIG    1       31.157 -20.662   8.362  0.00  0.00    +0.206 C 
BRANCH  18  20
ATOM     19  O   LIG    1       30.737 -22.162  10.398  0.00  0.00    -0.250 OA
ATOM     20  C   LIG    1       31.275 -21.902   9.166  0.00  0.00    +0.319 C 
BRANCH  20  21
ATOM     21  O   LIG    1       31.924 -22.935   8.787  0.00  0.00    -0.480 OA
ATOM     22  H   LIG    1       31.244 -23.390   8.256  0.00  0.00    +0.295 HD
ENDBRANCH  20  21
ENDBRANCH  18  20
ENDBRANCH  17  18
BRANCH  17  23
ATOM     23  C   LIG    1       31.908 -18.337   8.724  0.00  0.00    +0.206 C 
BRANCH  23  24
ATOM     24  C   LIG    1       32.041 -17.055   9.533  0.00  0.00    +0.319 C 
ATOM     25  O   LIG    1       31.542 -16.800  10.621  0.00  0.00    -0.250 OA
BRANCH  24  26
ATOM     26  O   LIG    1       32.590 -16.049   8.823  0.00  0.00    -0.480 OA
ATOM     27  H   LIG    1       31.937 -15.317   8.902  0.00  0.00    +0.295 HD
ENDBRANCH  24  26
ENDBRANCH  23  24
ENDBRANCH  17  23
ENDBRANCH  16  17
ENDBRANCH  15  16
ENDBRANCH  14  15
BRANCH  14  28
ATOM     28  C   LIG    1       28.700 -20.010   5.794  0.00  0.00    +0.205 C 
BRANCH  28  29
ATOM     29  C   LIG    1       29.170 -18.616   5.348  0.00  0.00    +0.319 C 
ATOM     30  O   LIG    1       30.244 -18.108   5.660  0.00  0.00    -0.250 OA
BRANCH  29  31
ATOM     31  O   LIG    1       28.376 -17.957   4.463  0.00  0.00    -0.480 OA
ATOM     32  H   LIG    1       27.437 -17.810   4.680  0.00  0.00    +0.295 HD
ENDBRANCH  29  31
ENDBRANCH  28  29
ENDBRANCH  14  28
ENDBRANCH  13  14
ENDBRANCH   1  13
BRANCH   1  33
ATOM     33  C   LIG    1       25.647 -23.628   7.646  0.00  0.00    +0.192 C 
BRANCH  33  34
ATOM     34  O   LIG    1       24.721 -24.581   6.656  0.00  0.00    -0.285 OA
BRANCH  34  35
ATOM     35  P   LIG    1       25.365 -25.787   5.651  0.00  0.00    +0.475 P 
ATOM     36  O   LIG    1       26.847 -25.984   5.800  0.00  0.00    -0.227 OA
BRANCH  35  37
ATOM     37  O   LIG    1       24.785 -25.025   4.292  0.00  0.00    -0.302 OA
ATOM     38  H   LIG    1       24.709 -24.039   4.415  0.00  0.00    +0.222 HD
ENDBRANCH  35  37
BRANCH  35  39
ATOM     39  O   LIG    1       24.558 -27.092   5.213  0.00  0.00    -0.283 OA
BRANCH  39  40
ATOM     40  C   LIG    1       25.033 -28.416   5.603  0.00  0.00    +0.130 C 
ATOM     41  C   LIG    1       25.398 -28.285   7.080  0.00  0.00    +0.033 C 
ATOM     42  C   LIG    1       24.759 -29.247   8.106  0.00  0.00    +0.019 C 
ATOM     43  C   LIG    1       24.428 -30.727   7.679  0.00  0.00    +0.021 C 
ATOM     44  C   LIG    1       23.657 -30.663   6.323  0.00  0.00    +0.019 C 
ATOM     45  C   LIG    1       24.282 -29.769   5.194  0.00  0.00    +0.033 C 
BRANCH  43  46
ATOM     46  C   LIG    1       23.391 -31.291   8.784  0.00  0.00    -0.037 A 
ATOM     47  C   LIG    1       22.840 -32.583   8.812  0.00  0.00    +0.004 A 
ATOM     48  C   LIG    1       21.869 -32.962   9.771  0.00  0.00    +0.000 A 
ATOM     49  C   LIG    1       21.433 -32.076  10.753  0.00  0.00    +0.000 A 
ATOM     50  C   LIG    1       22.008 -30.821  10.811  0.00  0.00    +0.000 A 
ATOM     51  C   LIG    1       22.983 -30.464   9.865  0.00  0.00    +0.004 A 
ENDBRANCH  43  46
BRANCH  43  52
ATOM     52  C   LIG    1       25.717 -31.591   7.411  0.00  0.00    -0.037 A 
ATOM     53  C   LIG    1       26.532 -32.082   8.443  0.00  0.00    +0.004 A 
ATOM     54  C   LIG    1       27.689 -32.847   8.187  0.00  0.00    +0.000 A 
ATOM     55  C   LIG    1       28.062 -33.172   6.889  0.00  0.00    +0.000 A 
ATOM     56  C   LIG    1       27.249 -32.775   5.851  0.00  0.00    +0.000 A 
ATOM     57  C   LIG    1       26.092 -32.032   6.124  0.00  0.00    +0.004 A 
ENDBRANCH  43  52
ENDBRANCH  39  40
ENDBRANCH  35  39
ENDBRANCH  34  35
ENDBRANCH  33  34
ENDBRANCH   1  33
TORSDOF 29
ENDMDL
MODEL 2
REMARK VINA RESULT:      -9.0      1.622      3.005
REMARK  Name = *****
REMARK                            x       y       z     vdW  Elec       q    Type
REMARK                         _______ _______ _______ _____ _____    ______ ____
ROOT
ATOM      1  C   LIG    1       25.520 -20.318   5.305  0.00  0.00    +0.098 C 
ENDROOT
BRANCH   1   2
ATOM      2  N   LIG    1       24.991 -19.091   4.357  0.00  0.00    -0.276 NA
BRANCH   2   3
ATOM      3  C   LIG    1       25.869 -18.678   3.238  0.00  0.00    +0.206 C 
BRANCH   3   4
ATOM      4  C   LIG    1       26.134 -17.313   3.518  0.00  0.00    +0.319 C 
ATOM      5  O   LIG    1       25.562 -16.326   3.120  0.00  0.00    -0.250 OA
BRANCH   4   6
ATOM      6  O   LIG    1       27.454 -17.487   3.560  0.00  0.00    -0.480 OA
ATOM      7  H   LIG    1       27.864 -17.604   4.519  0.00  0.00    +0.295 HD
ENDBRANCH   4   6
ENDBRANCH   3   4
ENDBRANCH   2   3
BRANCH   2   8
ATOM      8  C   LIG    1       23.773 -19.092   3.581  0.00  0.00    +0.206 C 
BRANCH   8   9
ATOM      9  C   LIG    1       22.561 -18.843   4.334  0.00  0.00    +0.319 C 
ATOM     10  O   LIG    1       22.183 -17.685   4.686  0.00  0.00    -0.250 OA
BRANCH   9  11
ATOM     11  O   LIG    1       21.873 -19.888   4.773  0.00  0.00    -0.480 OA
ATOM     12  H   LIG    1       21.020 -19.427   4.821  0.00  0.00    +0.295 HD
ENDBRANCH   9  11
ENDBRANCH   8   9
ENDBRANCH   2   8
ENDBRANCH   1   2
BRANCH   1  13
ATOM     13  C   LIG    1       27.083 -20.371   5.246  0.00  0.00    +0.106 C 
BRANCH  13  14
ATOM     14  N   LIG    1       27.833 -20.024   6.472  0.00  0.00    -0.290 NA
BRANCH  14  15
ATOM     15  C   LIG    1       28.936 -19.040   6.258  0.00  0.00    +0.100 C 
BRANCH  15  16
ATOM     16  C   LIG    1       30.469 -19.353   6.442  0.00  0.00    +0.101 C 
BRANCH  16  17
ATOM     17  N   LIG    1       31.095 -19.865   7.676  0.00  0.00    -0.281 NA
BRANCH  17  18
ATOM     18  C   LIG    1       31.605 -18.789   8.632  0.00  0.00    +0.206 C 
BRANCH  18  20
ATOM     19  O   LIG    1       30.669 -18.570  11.008  0.00  0.00    -0.250 OA
ATOM     20  C   LIG    1       30.763 -18.190   9.696  0.00  0.00    +0.319 C 
BRANCH  20  21
ATOM     21  O   LIG    1       29.985 -17.194   9.510  0.00  0.00    -0.480 OA
ATOM     22  H   LIG    1       29.829 -17.265   8.549  0.00  0.00    +0.295 HD
ENDBRANCH  20  21
ENDBRANCH  18  20
ENDBRANCH  17  18
BRANCH  17  23
ATOM     23  C   LIG    1       30.363 -20.908   8.384  0.00  0.00    +0.206 C 
BRANCH  23  24
ATOM     24  C   LIG    1       31.076 -21.960   9.222  0.00  0.00    +0.319 C 
ATOM     25  O   LIG    1       30.803 -22.326  10.357  0.00  0.00    -0.250 OA
BRANCH  24  26
ATOM     26  O   LIG    1       32.260 -22.329   8.692  0.00  0.00    -0.480 OA
ATOM     27  H   LIG    1       32.559 -21.532   8.197  0.00  0.00    +0.295 HD
ENDBRANCH  24  26
ENDBRANCH  23  24
ENDBRANCH  17  23
ENDBRANCH  16  17
ENDBRANCH  15  16
ENDBRANCH  14  15
BRANCH  14  28
ATOM     28  C   LIG    1       26.922 -20.097   7.651  0.00  0.00    +0.205 C 
BRANCH  28  29
ATOM     29  C   LIG    1       26.623 -21.408   8.395  0.00  0.00    +0.319 C 
ATOM     30  O   LIG    1       25.896 -21.501   9.380  0.00  0.00    -0.250 OA
BRANCH  29  31
ATOM     31  O   LIG    1       27.121 -22.549   7.849  0.00  0.00    -0.480 OA
ATOM     32  H   LIG    1       26.779 -22.857   6.989  0.00  0.00    +0.295 HD
ENDBRANCH  29  31
ENDBRANCH  28  29
ENDBRANCH  14  28
ENDBRANCH  13  14
ENDBRANCH   1  13
BRANCH   1  33
ATOM     33  C   LIG    1       24.999 -22.096   5.045  0.00  0.00    +0.192 C 
BRANCH  33  34
ATOM     34  O   LIG    1       24.894 -23.239   6.242  0.00  0.00    -0.285 OA
BRANCH  34  35
ATOM     35  P   LIG    1       25.054 -24.904   5.959  0.00  0.00    +0.475 P 
ATOM     36  O   LIG    1       25.363 -25.258   4.531  0.00  0.00    -0.227 OA
BRANCH  35  37
ATOM     37  O   LIG    1       23.529 -25.196   6.551  0.00  0.00    -0.302 OA
ATOM     38  H   LIG    1       22.838 -24.627   6.112  0.00  0.00    +0.222 HD
ENDBRANCH  35  37
BRANCH  35  39
ATOM     39  O   LIG    1       25.625 -25.930   7.039  0.00  0.00    -0.283 OA
BRANCH  39  40
ATOM     40  C   LIG    1       25.693 -27.356   6.736  0.00  0.00    +0.130 C 
ATOM     41  C   LIG    1       26.282 -27.999   7.990  0.00  0.00    +0.033 C 
ATOM     42  C   LIG    1       25.514 -29.146   8.684  0.00  0.00    +0.019 C 
ATOM     43  C   LIG    1       24.665 -30.148   7.814  0.00  0.00    +0.021 C 
ATOM     44  C   LIG    1       23.776 -29.298   6.852  0.00  0.00    +0.019 C 
ATOM     45  C   LIG    1       24.496 -28.161   6.044  0.00  0.00    +0.033 C 
BRANCH  43  46
ATOM     46  C   LIG    1       23.665 -30.897   8.841  0.00  0.00    -0.037 A 
ATOM     47  C   LIG    1       23.188 -32.212   8.714  0.00  0.00    +0.004 A 
ATOM     48  C   LIG    1       22.242 -32.755   9.618  0.00  0.00    +0.000 A 
ATOM     49  C   LIG    1       21.760 -32.017  10.696  0.00  0.00    +0.000 A 
ATOM     50  C   LIG    1       22.262 -30.748  10.903  0.00  0.00    +0.000 A 
ATOM     51  C   LIG    1       23.213 -30.227  10.010  0.00  0.00    +0.004 A 
ENDBRANCH  43  46
BRANCH  43  52
ATOM     52  C   LIG    1       25.554 -31.068   6.894  0.00  0.00    -0.037 A 
ATOM     53  C   LIG    1       26.580 -31.883   7.398  0.00  0.00    +0.004 A 
ATOM     54  C   LIG    1       27.374 -32.694   6.561  0.00  0.00    +0.000 A 
ATOM     55  C   LIG    1       27.156 -32.740   5.190  0.00  0.00    +0.000 A 
ATOM     56  C   LIG    1       26.110 -32.015   4.664  0.00  0.00    +0.000 A 
ATOM     57  C   LIG    1       25.318 -31.229   5.512  0.00  0.00    +0.004 A 
ENDBRANCH  43  52
ENDBRANCH  39  40
ENDBRANCH  35  39
ENDBRANCH  34  35
ENDBRANCH  33  34
ENDBRANCH   1  33
TORSDOF 29
ENDMDL
MODEL 3
REMARK VINA RESULT:      -8.5      1.336      2.601
REMARK  Name = *****
REMARK                            x       y       z     vdW  Elec       q    Type
REMARK                         _______ _______ _______ _____ _____    ______ ____
ROOT
ATOM      1  C   LIG    1       25.109 -21.234   6.300  0.00  0.00    +0.098 C 
ENDROOT
BRANCH   1   2
ATOM      2  N   LIG    1       23.647 -20.744   5.745  0.00  0.00    -0.276 NA
BRANCH   2   3
ATOM      3  C   LIG    1       23.547 -20.422   4.303  0.00  0.00    +0.206 C 
BRANCH   3   4
ATOM      4  C   LIG    1       23.092 -19.078   4.300  0.00  0.00    +0.319 C 
ATOM      5  O   LIG    1       21.961 -18.654   4.272  0.00  0.00    -0.250 OA
BRANCH   4   6
ATOM      6  O   LIG    1       24.107 -18.644   3.555  0.00  0.00    -0.480 OA
ATOM      7  H   LIG    1       25.058 -18.974   3.853  0.00  0.00    +0.295 HD
ENDBRANCH   4   6
ENDBRANCH   3   4
ENDBRANCH   2   3
BRANCH   2   8
ATOM      8  C   LIG    1       22.425 -21.514   5.798  0.00  0.00    +0.206 C 
BRANCH   8   9
ATOM      9  C   LIG    1       22.370 -22.513   6.845  0.00  0.00    +0.319 C 
ATOM     10  O   LIG    1       22.616 -22.262   8.064  0.00  0.00    -0.250 OA
BRANCH   9  11
ATOM     11  O   LIG    1       22.162 -23.775   6.495  0.00  0.00    -0.480 OA
ATOM     12  H   LIG    1       21.715 -24.030   7.317  0.00  0.00    +0.295 HD
ENDBRANCH   9  11
ENDBRANCH   8   9
ENDBRANCH   2   8
ENDBRANCH   1   2
BRANCH   1  13
ATOM     13  C   LIG    1       26.230 -20.435   5.556  0.00  0.00    +0.106 C 
BRANCH  13  14
ATOM     14  N   LIG    1       27.425 -20.038   6.330  0.00  0.00    -0.290 NA
BRANCH  14  15
ATOM     15  C   LIG    1       27.512 -20.660   7.685  0.00  0.00    +0.100 C 
BRANCH  15  16
ATOM     16  C   LIG    1       28.735 -20.512   8.667  0.00  0.00    +0.101 C 
BRANCH  16  17
ATOM     17  N   LIG    1       29.970 -19.754   8.385  0.00  0.00    -0.281 NA
BRANCH  17  18
ATOM     18  C   LIG    1       30.058 -18.392   9.069  0.00  0.00    +0.206 C 
BRANCH  18  20
ATOM     19  O   LIG    1       32.268 -17.606  10.103  0.00  0.00    -0.250 OA
ATOM     20  C   LIG    1       30.996 -18.108  10.182  0.00  0.00    +0.319 C 
BRANCH  20  21
ATOM     21  O   LIG    1       30.719 -18.304  11.413  0.00  0.00    -0.480 OA
ATOM     22  H   LIG    1       30.594 -19.272  11.417  0.00  0.00    +0.295 HD
ENDBRANCH  20  21
ENDBRANCH  18  20
ENDBRANCH  17  18
BRANCH  17  23
ATOM     23  C   LIG    1       31.220 -20.495   8.500  0.00  0.00    +0.206 C 
BRANCH  23  24
ATOM     24  C   LIG    1       31.289 -21.849   9.192  0.00  0.00    +0.319 C 
ATOM     25  O   LIG    1       30.873 -22.146  10.304  0.00  0.00    -0.250 OA
BRANCH  24  26
ATOM     26  O   LIG    1       32.105 -22.714   8.556  0.00  0.00    -0.480 OA
ATOM     27  H   LIG    1       31.496 -23.255   8.002  0.00  0.00    +0.295 HD
ENDBRANCH  24  26
ENDBRANCH  23  24
ENDBRANCH  17  23
ENDBRANCH  16  17
ENDBRANCH  15  16
ENDBRANCH  14  15
BRANCH  14  28
ATOM     28  C   LIG    1       28.558 -19.774   5.398  0.00  0.00    +0.205 C 
BRANCH  28  29
ATOM     29  C   LIG    1       29.191 -18.385   5.225  0.00  0.00    +0.319 C 
ATOM     30  O   LIG    1       28.626 -17.417   4.722  0.00  0.00    -0.250 OA
BRANCH  29  31
ATOM     31  O   LIG    1       30.425 -18.202   5.767  0.00  0.00    -0.480 OA
ATOM     32  H   LIG    1       30.927 -18.976   6.084  0.00  0.00    +0.295 HD
ENDBRANCH  29  31
ENDBRANCH  28  29
ENDBRANCH  14  28
ENDBRANCH  13  14
ENDBRANCH   1  13
BRANCH   1  33
ATOM     33  C   LIG    1       25.685 -23.012   6.206  0.00  0.00    +0.192 C 
BRANCH  33  34
ATOM     34  O   LIG    1       25.090 -24.148   5.155  0.00  0.00    -0.285 OA
BRANCH  34  35
ATOM     35  P   LIG    1       25.245 -25.819   5.401  0.00  0.00    +0.475 P 
ATOM     36  O   LIG    1       26.052 -26.523   4.347  0.00  0.00    -0.227 OA
BRANCH  35  37
ATOM     37  O   LIG    1       23.595 -26.014   5.419  0.00  0.00    -0.302 OA
ATOM     38  H   LIG    1       23.145 -25.493   4.698  0.00  0.00    +0.222 HD
ENDBRANCH  35  37
BRANCH  35  39
ATOM     39  O   LIG    1       25.299 -26.495   6.846  0.00  0.00    -0.283 OA
BRANCH  39  40
ATOM     40  C   LIG    1       25.534 -27.930   6.978  0.00  0.00    +0.130 C 
ATOM     41  C   LIG    1       26.372 -28.077   8.247  0.00  0.00    +0.033 C 
ATOM     42  C   LIG    1       25.878 -29.010   9.375  0.00  0.00    +0.019 C 
ATOM     43  C   LIG    1       25.077 -30.316   9.006  0.00  0.00    +0.021 C 
ATOM     44  C   LIG    1       23.954 -29.909   8.001  0.00  0.00    +0.019 C 
ATOM     45  C   LIG    1       24.386 -29.026   6.777  0.00  0.00    +0.033 C 
BRANCH  43  46
ATOM     46  C   LIG    1       24.342 -30.789  10.367  0.00  0.00    -0.037 A 
ATOM     47  C   LIG    1       24.811 -30.572  11.673  0.00  0.00    +0.004 A 
ATOM     48  C   LIG    1       24.143 -31.102  12.805  0.00  0.00    +0.000 A 
ATOM     49  C   LIG    1       22.971 -31.842  12.677  0.00  0.00    +0.000 A 
ATOM     50  C   LIG    1       22.433 -32.011  11.416  0.00  0.00    +0.000 A 
ATOM     51  C   LIG    1       23.095 -31.466  10.304  0.00  0.00    +0.004 A 
ENDBRANCH  43  46
BRANCH  43  52
ATOM     52  C   LIG    1       25.961 -31.390   8.268  0.00  0.00    -0.037 A 
ATOM     53  C   LIG    1       25.955 -31.551   6.873  0.00  0.00    +0.004 A 
ATOM     54  C   LIG    1       26.744 -32.524   6.227  0.00  0.00    +0.000 A 
ATOM     55  C   LIG    1       27.591 -33.357   6.948  0.00  0.00    +0.000 A 
ATOM     56  C   LIG    1       27.685 -33.180   8.310  0.00  0.00    +0.000 A 
ATOM     57  C   LIG    1       26.908 -32.196   8.935  0.00  0.00    +0.004 A 
ENDBRANCH  43  52
ENDBRANCH  39  40
ENDBRANCH  35  39
ENDBRANCH  34  35
ENDBRANCH  33  34
ENDBRANCH   1  33
TORSDOF 29
ENDMDL
MODEL 4
REMARK VINA RESULT:      -8.4      1.820      3.244
REMARK  Name = *****
REMARK                            x       y       z     vdW  Elec       q    Type
REMARK                         _______ _______ _______ _____ _____    ______ ____
ROOT
ATOM      1  C   LIG    1       25.082 -21.509   6.055  0.00  0.00    +0.098 C 
ENDROOT
BRANCH   1   2
ATOM      2  N   LIG    1       23.691 -21.068   5.309  0.00  0.00    -0.276 NA
BRANCH   2   3
ATOM      3  C   LIG    1       22.545 -22.000   5.416  0.00  0.00    +0.206 C 
BRANCH   3   4
ATOM      4  C   LIG    1       22.551 -22.369   6.786  0.00  0.00    +0.319 C 
ATOM      5  O   LIG    1       23.123 -21.849   7.715  0.00  0.00    -0.250 OA
BRANCH   4   6
ATOM      6  O   LIG    1       22.512 -23.674   6.525  0.00  0.00    -0.480 OA
ATOM      7  H   LIG    1       22.414 -24.299   7.362  0.00  0.00    +0.295 HD
ENDBRANCH   4   6
ENDBRANCH   3   4
ENDBRANCH   2   3
BRANCH   2   8
ATOM      8  C   LIG    1       22.925 -19.877   5.593  0.00  0.00    +0.206 C 
BRANCH   8   9
ATOM      9  C   LIG    1       22.746 -18.976   4.473  0.00  0.00    +0.319 C 
ATOM     10  O   LIG    1       21.629 -18.466   4.157  0.00  0.00    -0.250 OA
BRANCH   9  11
ATOM     11  O   LIG    1       23.781 -18.763   3.672  0.00  0.00    -0.480 OA
ATOM     12  H   LIG    1       24.275 -18.210   4.298  0.00  0.00    +0.295 HD
ENDBRANCH   9  11
ENDBRANCH   8   9
ENDBRANCH   2   8
ENDBRANCH   1   2
BRANCH   1  13
ATOM     13  C   LIG    1       26.262 -20.658   5.476  0.00  0.00    +0.106 C 
BRANCH  13  14
ATOM     14  N   LIG    1       27.397 -20.353   6.372  0.00  0.00    -0.290 NA
BRANCH  14  15
ATOM     15  C   LIG    1       28.579 -19.755   5.683  0.00  0.00    +0.100 C 
BRANCH  15  16
ATOM     16  C   LIG    1       29.361 -18.481   6.179  0.00  0.00    +0.101 C 
BRANCH  16  17
ATOM     17  N   LIG    1       30.381 -18.466   7.245  0.00  0.00    -0.281 NA
BRANCH  17  18
ATOM     18  C   LIG    1       29.871 -18.028   8.616  0.00  0.00    +0.206 C 
BRANCH  18  20
ATOM     19  O   LIG    1       31.911 -16.662   9.351  0.00  0.00    -0.250 OA
ATOM     20  C   LIG    1       30.624 -17.105   9.499  0.00  0.00    +0.319 C 
BRANCH  20  21
ATOM     21  O   LIG    1       30.139 -16.580  10.558  0.00  0.00    -0.480 OA
ATOM     22  H   LIG    1       29.934 -17.380  11.078  0.00  0.00    +0.295 HD
ENDBRANCH  20  21
ENDBRANCH  18  20
ENDBRANCH  17  18
BRANCH  17  23
ATOM     23  C   LIG    1       31.232 -19.646   7.339  0.00  0.00    +0.206 C 
BRANCH  23  24
ATOM     24  C   LIG    1       31.066 -20.667   8.456  0.00  0.00    +0.319 C 
ATOM     25  O   LIG    1       30.046 -21.254   8.791  0.00  0.00    -0.250 OA
BRANCH  24  26
ATOM     26  O   LIG    1       32.138 -20.719   9.272  0.00  0.00    -0.480 OA
ATOM     27  H   LIG    1       32.867 -21.031   8.689  0.00  0.00    +0.295 HD
ENDBRANCH  24  26
ENDBRANCH  23  24
ENDBRANCH  17  23
ENDBRANCH  16  17
ENDBRANCH  15  16
ENDBRANCH  14  15
BRANCH  14  28
ATOM     28  C   LIG    1       26.882 -19.997   7.726  0.00  0.00    +0.205 C 
BRANCH  28  29
ATOM     29  C   LIG    1       26.591 -21.045   8.811  0.00  0.00    +0.319 C 
ATOM     30  O   LIG    1       25.626 -21.016   9.570  0.00  0.00    -0.250 OA
BRANCH  29  31
ATOM     31  O   LIG    1       27.411 -22.129   8.852  0.00  0.00    -0.480 OA
ATOM     32  H   LIG    1       28.284 -22.084   8.419  0.00  0.00    +0.295 HD
ENDBRANCH  29  31
ENDBRANCH  28  29
ENDBRANCH  14  28
ENDBRANCH  13  14
ENDBRANCH   1  13
BRANCH   1  33
ATOM     33  C   LIG    1       25.735 -23.262   6.026  0.00  0.00    +0.192 C 
BRANCH  33  34
ATOM     34  O   LIG    1       25.185 -24.464   5.025  0.00  0.00    -0.285 OA
BRANCH  34  35
ATOM     35  P   LIG    1       25.328 -26.116   5.383  0.00  0.00    +0.475 P 
ATOM     36  O   LIG    1       26.091 -26.904   4.355  0.00  0.00    -0.227 OA
BRANCH  35  37
ATOM     37  O   LIG    1       23.678 -26.286   5.469  0.00  0.00    -0.302 OA
ATOM     38  H   LIG    1       23.281 -26.568   4.600  0.00  0.00    +0.222 HD
ENDBRANCH  35  37
BRANCH  35  39
ATOM     39  O   LIG    1       25.423 -26.690   6.869  0.00  0.00    -0.283 OA
BRANCH  39  40
ATOM     40  C   LIG    1       25.516 -28.129   7.097  0.00  0.00    +0.130 C 
ATOM     41  C   LIG    1       26.354 -28.274   8.366  0.00  0.00    +0.033 C 
ATOM     42  C   LIG    1       25.786 -29.075   9.559  0.00  0.00    +0.019 C 
ATOM     43  C   LIG    1       24.854 -30.315   9.287  0.00  0.00    +0.021 C 
ATOM     44  C   LIG    1       23.762 -29.866   8.265  0.00  0.00    +0.019 C 
ATOM     45  C   LIG    1       24.262 -29.115   6.980  0.00  0.00    +0.033 C 
BRANCH  43  46
ATOM     46  C   LIG    1       24.095 -30.620  10.683  0.00  0.00    -0.037 A 
ATOM     47  C   LIG    1       24.344 -31.709  11.534  0.00  0.00    +0.004 A 
ATOM     48  C   LIG    1       23.568 -31.944  12.695  0.00  0.00    +0.000 A 
ATOM     49  C   LIG    1       22.534 -31.087  13.064  0.00  0.00    +0.000 A 
ATOM     50  C   LIG    1       22.307 -29.960  12.298  0.00  0.00    +0.000 A 
ATOM     51  C   LIG    1       23.096 -29.729  11.160  0.00  0.00    +0.004 A 
ENDBRANCH  43  46
BRANCH  43  52
ATOM     52  C   LIG    1       25.615 -31.520   8.617  0.00  0.00    -0.037 A 
ATOM     53  C   LIG    1       26.986 -31.755   8.809  0.00  0.00    +0.004 A 
ATOM     54  C   LIG    1       27.655 -32.833   8.194  0.00  0.00    +0.000 A 
ATOM     55  C   LIG    1       26.975 -33.733   7.383  0.00  0.00    +0.000 A 
ATOM     56  C   LIG    1       25.615 -33.584   7.231  0.00  0.00    +0.000 A 
ATOM     57  C   LIG    1       24.961 -32.519   7.864  0.00  0.00    +0.004 A 
ENDBRANCH  43  52
ENDBRANCH  39  40
ENDBRANCH  35  39
ENDBRANCH  34  35
ENDBRANCH  33  34
ENDBRANCH   1  33
TORSDOF 29
ENDMDL
MODEL 5
REMARK VINA RESULT:      -8.3      4.659     11.302
REMARK  Name = *****
REMARK                            x       y       z     vdW  Elec       q    Type
REMARK                         _______ _______ _______ _____ _____    ______ ____
ROOT
ATOM      1  C   LIG    1       24.719 -30.733   8.835  0.00  0.00    +0.098 C 
ENDROOT
BRANCH   1   2
ATOM      2  N   LIG    1       24.475 -32.178   8.103  0.00  0.00    -0.276 NA
BRANCH   2   3
ATOM      3  C   LIG    1       24.749 -32.252   6.649  0.00  0.00    +0.206 C 
BRANCH   3   4
ATOM      4  C   LIG    1       23.463 -32.443   6.084  0.00  0.00    +0.319 C 
ATOM      5  O   LIG    1       23.024 -33.398   5.486  0.00  0.00    -0.250 OA
BRANCH   4   6
ATOM      6  O   LIG    1       23.338 -31.169   5.718  0.00  0.00    -0.480 OA
ATOM      7  H   LIG    1       24.157 -30.553   5.941  0.00  0.00    +0.295 HD
ENDBRANCH   4   6
ENDBRANCH   3   4
ENDBRANCH   2   3
BRANCH   2   8
ATOM      8  C   LIG    1       25.148 -33.413   8.432  0.00  0.00    +0.206 C 
BRANCH   8   9
ATOM      9  C   LIG    1       26.124 -33.319   9.497  0.00  0.00    +0.319 C 
ATOM     10  O   LIG    1       25.838 -33.472  10.723  0.00  0.00    -0.250 OA
BRANCH   9  11
ATOM     11  O   LIG    1       27.357 -32.942   9.184  0.00  0.00    -0.480 OA
ATOM     12  H   LIG    1       27.579 -33.747   8.689  0.00  0.00    +0.295 HD
ENDBRANCH   9  11
ENDBRANCH   8   9
ENDBRANCH   2   8
ENDBRANCH   1   2
BRANCH   1  13
ATOM     13  C   LIG    1       23.426 -30.334   9.622  0.00  0.00    +0.106 C 
BRANCH  13  14
ATOM     14  N   LIG    1       23.127 -31.062  10.872  0.00  0.00    -0.290 NA
BRANCH  14  15
ATOM     15  C   LIG    1       23.828 -30.526  12.077  0.00  0.00    +0.100 C 
BRANCH  15  16
ATOM     16  C   LIG    1       24.013 -28.997  12.406  0.00  0.00    +0.101 C 
BRANCH  16  17
ATOM     17  N   LIG    1       25.303 -28.282  12.446  0.00  0.00    -0.281 NA
BRANCH  17  18
ATOM     18  C   LIG    1       25.308 -27.012  13.294  0.00  0.00    +0.206 C 
BRANCH  18  20
ATOM     19  O   LIG    1       26.305 -24.672  13.608  0.00  0.00    -0.250 OA
ATOM     20  C   LIG    1       26.359 -25.972  13.182  0.00  0.00    +0.319 C 
BRANCH  20  21
ATOM     21  O   LIG    1       27.502 -26.172  12.648  0.00  0.00    -0.480 OA
ATOM     22  H   LIG    1       27.291 -26.907  12.041  0.00  0.00    +0.295 HD
ENDBRANCH  20  21
ENDBRANCH  18  20
ENDBRANCH  17  18
BRANCH  17  23
ATOM     23  C   LIG    1       26.484 -29.099  12.696  0.00  0.00    +0.206 C 
BRANCH  23  24
ATOM     24  C   LIG    1       27.431 -29.503  11.575  0.00  0.00    +0.319 C 
ATOM     25  O   LIG    1       27.441 -30.551  10.943  0.00  0.00    -0.250 OA
BRANCH  24  26
ATOM     26  O   LIG    1       28.489 -28.674  11.466  0.00  0.00    -0.480 OA
ATOM     27  H   LIG    1       29.022 -28.860  12.272  0.00  0.00    +0.295 HD
ENDBRANCH  24  26
ENDBRANCH  23  24
ENDBRANCH  17  23
ENDBRANCH  16  17
ENDBRANCH  15  16
ENDBRANCH  14  15
BRANCH  14  28
ATOM     28  C   LIG    1       21.737 -31.599  10.817  0.00  0.00    +0.205 C 
BRANCH  28  29
ATOM     29  C   LIG    1       20.494 -30.696  10.767  0.00  0.00    +0.319 C 
ATOM     30  O   LIG    1       19.529 -30.876  10.029  0.00  0.00    -0.250 OA
BRANCH  29  31
ATOM     31  O   LIG    1       20.428 -29.694  11.683  0.00  0.00    -0.480 OA
ATOM     32  H   LIG    1       21.247 -29.388  12.117  0.00  0.00    +0.295 HD
ENDBRANCH  29  31
ENDBRANCH  28  29
ENDBRANCH  14  28
ENDBRANCH  13  14
ENDBRANCH   1  13
BRANCH   1  33
ATOM     33  C   LIG    1       25.167 -29.181   7.889  0.00  0.00    +0.192 C 
BRANCH  33  34
ATOM     34  O   LIG    1       24.314 -28.574   6.604  0.00  0.00    -0.285 OA
BRANCH  34  35
ATOM     35  P   LIG    1       24.741 -27.148   5.790  0.00  0.00    +0.475 P 
ATOM     36  O   LIG    1       25.485 -27.373   4.504  0.00  0.00    -0.227 OA
BRANCH  35  37
ATOM     37  O   LIG    1       25.572 -26.588   7.116  0.00  0.00    -0.302 OA
ATOM     38  H   LIG    1       24.974 -26.431   7.898  0.00  0.00    +0.222 HD
ENDBRANCH  35  37
BRANCH  35  39
ATOM     39  O   LIG    1       23.864 -25.816   5.829  0.00  0.00    -0.283 OA
BRANCH  39  40
ATOM     40  C   LIG    1       24.449 -24.563   6.298  0.00  0.00    +0.130 C 
ATOM     41  C   LIG    1       25.056 -23.920   5.053  0.00  0.00    +0.033 C 
ATOM     42  C   LIG    1       24.640 -22.484   4.663  0.00  0.00    +0.019 C 
ATOM     43  C   LIG    1       24.298 -21.442   5.795  0.00  0.00    +0.021 C 
ATOM     44  C   LIG    1       23.304 -22.131   6.782  0.00  0.00    +0.019 C 
ATOM     45  C   LIG    1       23.693 -23.564   7.293  0.00  0.00    +0.033 C 
BRANCH  43  46
ATOM     46  C   LIG    1       23.487 -20.244   5.071  0.00  0.00    -0.037 A 
ATOM     47  C   LIG    1       22.097 -20.053   5.106  0.00  0.00    +0.004 A 
ATOM     48  C   LIG    1       21.464 -19.024   4.367  0.00  0.00    +0.000 A 
ATOM     49  C   LIG    1       22.197 -18.132   3.588  0.00  0.00    +0.000 A 
ATOM     50  C   LIG    1       23.574 -18.235   3.589  0.00  0.00    +0.000 A 
ATOM     51  C   LIG    1       24.190 -19.248   4.341  0.00  0.00    +0.004 A 
ENDBRANCH  43  46
BRANCH  43  52
ATOM     52  C   LIG    1       25.554 -21.031   6.651  0.00  0.00    -0.037 A 
ATOM     53  C   LIG    1       26.827 -20.837   6.089  0.00  0.00    +0.004 A 
ATOM     54  C   LIG    1       27.944 -20.478   6.870  0.00  0.00    +0.000 A 
ATOM     55  C   LIG    1       27.828 -20.275   8.240  0.00  0.00    +0.000 A 
ATOM     56  C   LIG    1       26.583 -20.380   8.818  0.00  0.00    +0.000 A 
ATOM     57  C   LIG    1       25.479 -20.718   8.025  0.00  0.00    +0.004 A 
ENDBRANCH  43  52
ENDBRANCH  39  40
ENDBRANCH  35  39
ENDBRANCH  34  35
ENDBRANCH  33  34
ENDBRANCH   1  33
TORSDOF 29
ENDMDL
MODEL 6
REMARK VINA RESULT:      -8.3      1.225      2.811
REMARK  Name = *****
REMARK                            x       y       z     vdW  Elec       q    Type
REMARK                         _______ _______ _______ _____ _____    ______ ____
ROOT
ATOM      1  C   LIG    1       26.381 -21.312   7.017  0.00  0.00    +0.098 C 
ENDROOT
BRANCH   1   2
ATOM      2  N   LIG    1       25.408 -20.415   6.051  0.00  0.00    -0.276 NA
BRANCH   2   3
ATOM      3  C   LIG    1       25.587 -20.565   4.588  0.00  0.00    +0.206 C 
BRANCH   3   4
ATOM      4  C   LIG    1       25.096 -19.338   4.072  0.00  0.00    +0.319 C 
ATOM      5  O   LIG    1       24.114 -19.131   3.399  0.00  0.00    -0.250 OA
BRANCH   4   6
ATOM      6  O   LIG    1       26.313 -18.843   3.852  0.00  0.00    -0.480 OA
ATOM      7  H   LIG    1       26.865 -18.602   4.711  0.00  0.00    +0.295 HD
ENDBRANCH   4   6
ENDBRANCH   3   4
ENDBRANCH   2   3
BRANCH   2   8
ATOM      8  C   LIG    1       23.965 -20.477   6.018  0.00  0.00    +0.206 C 
BRANCH   8   9
ATOM      9  C   LIG    1       23.374 -21.533   6.814  0.00  0.00    +0.319 C 
ATOM     10  O   LIG    1       23.321 -21.506   8.081  0.00  0.00    -0.250 OA
BRANCH   9  11
ATOM     11  O   LIG    1       22.971 -22.633   6.193  0.00  0.00    -0.480 OA
ATOM     12  H   LIG    1       23.177 -23.237   6.924  0.00  0.00    +0.295 HD
ENDBRANCH   9  11
ENDBRANCH   8   9
ENDBRANCH   2   8
ENDBRANCH   1   2
BRANCH   1  13
ATOM     13  C   LIG    1       27.874 -21.004   6.664  0.00  0.00    +0.106 C 
BRANCH  13  14
ATOM     14  N   LIG    1       28.784 -20.639   7.769  0.00  0.00    -0.290 NA
BRANCH  14  15
ATOM     15  C   LIG    1       28.453 -19.343   8.434  0.00  0.00    +0.100 C 
BRANCH  15  16
ATOM     16  C   LIG    1       29.327 -18.653   9.547  0.00  0.00    +0.101 C 
BRANCH  16  17
ATOM     17  N   LIG    1       30.154 -17.445   9.357  0.00  0.00    -0.281 NA
BRANCH  17  18
ATOM     18  C   LIG    1       30.663 -16.806  10.647  0.00  0.00    +0.206 C 
BRANCH  18  20
ATOM     19  O   LIG    1       32.797 -15.386  10.659  0.00  0.00    -0.250 OA
ATOM     20  C   LIG    1       32.100 -16.539  10.901  0.00  0.00    +0.319 C 
BRANCH  20  21
ATOM     21  O   LIG    1       32.903 -17.395  11.406  0.00  0.00    -0.480 OA
ATOM     22  H   LIG    1       32.884 -17.127  12.345  0.00  0.00    +0.295 HD
ENDBRANCH  20  21
ENDBRANCH  18  20
ENDBRANCH  17  18
BRANCH  17  23
ATOM     23  C   LIG    1       31.205 -17.537   8.351  0.00  0.00    +0.206 C 
BRANCH  23  24
ATOM     24  C   LIG    1       31.882 -18.858   8.016  0.00  0.00    +0.319 C 
ATOM     25  O   LIG    1       31.873 -19.456   6.949  0.00  0.00    -0.250 OA
BRANCH  24  26
ATOM     26  O   LIG    1       32.334 -19.500   9.112  0.00  0.00    -0.480 OA
ATOM     27  H   LIG    1       33.225 -19.827   8.848  0.00  0.00    +0.295 HD
ENDBRANCH  24  26
ENDBRANCH  23  24
ENDBRANCH  17  23
ENDBRANCH  16  17
ENDBRANCH  15  16
ENDBRANCH  14  15
BRANCH  14  28
ATOM     28  C   LIG    1       29.284 -21.877   8.433  0.00  0.00    +0.205 C 
BRANCH  28  29
ATOM     29  C   LIG    1       30.640 -21.949   9.153  0.00  0.00    +0.319 C 
ATOM     30  O   LIG    1       30.787 -21.908  10.371  0.00  0.00    -0.250 OA
BRANCH  29  31
ATOM     31  O   LIG    1       31.733 -22.181   8.378  0.00  0.00    -0.480 OA
ATOM     32  H   LIG    1       32.588 -22.376   8.804  0.00  0.00    +0.295 HD
ENDBRANCH  29  31
ENDBRANCH  28  29
ENDBRANCH  14  28
ENDBRANCH  13  14
ENDBRANCH   1  13
BRANCH   1  33
ATOM     33  C   LIG    1       26.307 -23.181   7.074  0.00  0.00    +0.192 C 
BRANCH  33  34
ATOM     34  O   LIG    1       25.486 -24.132   5.993  0.00  0.00    -0.285 OA
BRANCH  34  35
ATOM     35  P   LIG    1       25.555 -25.827   6.000  0.00  0.00    +0.475 P 
ATOM     36  O   LIG    1       26.174 -26.422   4.767  0.00  0.00    -0.227 OA
BRANCH  35  37
ATOM     37  O   LIG    1       23.910 -25.937   6.210  0.00  0.00    -0.302 OA
ATOM     38  H   LIG    1       23.662 -26.612   6.900  0.00  0.00    +0.222 HD
ENDBRANCH  35  37
BRANCH  35  39
ATOM     39  O   LIG    1       25.740 -26.695   7.326  0.00  0.00    -0.283 OA
BRANCH  39  40
ATOM     40  C   LIG    1       25.929 -28.140   7.239  0.00  0.00    +0.130 C 
ATOM     41  C   LIG    1       26.069 -28.608   8.686  0.00  0.00    +0.033 C 
ATOM     42  C   LIG    1       25.129 -29.712   9.218  0.00  0.00    +0.019 C 
ATOM     43  C   LIG    1       24.639 -30.849   8.244  0.00  0.00    +0.021 C 
ATOM     44  C   LIG    1       24.115 -30.160   6.944  0.00  0.00    +0.019 C 
ATOM     45  C   LIG    1       25.048 -29.081   6.290  0.00  0.00    +0.033 C 
BRANCH  43  46
ATOM     46  C   LIG    1       23.361 -31.535   8.961  0.00  0.00    -0.037 A 
ATOM     47  C   LIG    1       22.583 -30.959   9.979  0.00  0.00    +0.004 A 
ATOM     48  C   LIG    1       21.534 -31.671  10.611  0.00  0.00    +0.000 A 
ATOM     49  C   LIG    1       21.206 -32.970  10.233  0.00  0.00    +0.000 A 
ATOM     50  C   LIG    1       21.894 -33.544   9.182  0.00  0.00    +0.000 A 
ATOM     51  C   LIG    1       22.920 -32.821   8.552  0.00  0.00    +0.004 A 
ENDBRANCH  43  46
BRANCH  43  52
ATOM     52  C   LIG    1       25.800 -31.814   7.793  0.00  0.00    -0.037 A 
ATOM     53  C   LIG    1       26.141 -32.015   6.446  0.00  0.00    +0.004 A 
ATOM     54  C   LIG    1       27.177 -32.889   6.058  0.00  0.00    +0.000 A 
ATOM     55  C   LIG    1       27.930 -33.576   7.002  0.00  0.00    +0.000 A 
ATOM     56  C   LIG    1       27.679 -33.347   8.337  0.00  0.00    +0.000 A 
ATOM     57  C   LIG    1       26.659 -32.462   8.707  0.00  0.00    +0.004 A 
ENDBRANCH  43  52
ENDBRANCH  39  40
ENDBRANCH  35  39
ENDBRANCH  34  35
ENDBRANCH  33  34
ENDBRANCH   1  33
TORSDOF 29
ENDMDL
MODEL 7
REMARK VINA RESULT:      -8.2      1.533      2.465
REMARK  Name = *****
REMARK                            x       y       z     vdW  Elec       q    Type
REMARK                         _______ _______ _______ _____ _____    ______ ____
ROOT
ATOM      1  C   LIG    1       25.111 -21.478   6.009  0.00  0.00    +0.098 C 
ENDROOT
BRANCH   1   2
ATOM      2  N   LIG    1       23.704 -21.098   5.259  0.00  0.00    -0.276 NA
BRANCH   2   3
ATOM      3  C   LIG    1       22.589 -22.063   5.390  0.00  0.00    +0.206 C 
BRANCH   3   4
ATOM      4  C   LIG    1       22.574 -22.358   6.777  0.00  0.00    +0.319 C 
ATOM      5  O   LIG    1       23.184 -21.831   7.677  0.00  0.00    -0.250 OA
BRANCH   4   6
ATOM      6  O   LIG    1       22.443 -23.670   6.586  0.00  0.00    -0.480 OA
ATOM      7  H   LIG    1       23.215 -24.263   6.978  0.00  0.00    +0.295 HD
ENDBRANCH   4   6
ENDBRANCH   3   4
ENDBRANCH   2   3
BRANCH   2   8
ATOM      8  C   LIG    1       22.902 -19.926   5.521  0.00  0.00    +0.206 C 
BRANCH   8   9
ATOM      9  C   LIG    1       22.925 -18.917   4.482  0.00  0.00    +0.319 C 
ATOM     10  O   LIG    1       23.728 -18.943   3.500  0.00  0.00    -0.250 OA
BRANCH   9  11
ATOM     11  O   LIG    1       22.144 -17.855   4.624  0.00  0.00    -0.480 OA
ATOM     12  H   LIG    1       22.256 -17.782   5.586  0.00  0.00    +0.295 HD
ENDBRANCH   9  11
ENDBRANCH   8   9
ENDBRANCH   2   8
ENDBRANCH   1   2
BRANCH   1  13
ATOM     13  C   LIG    1       26.239 -20.524   5.492  0.00  0.00    +0.106 C 
BRANCH  13  14
ATOM     14  N   LIG    1       27.390 -20.269   6.383  0.00  0.00    -0.290 NA
BRANCH  14  15
ATOM     15  C   LIG    1       28.523 -19.547   5.730  0.00  0.00    +0.100 C 
BRANCH  15  16
ATOM     16  C   LIG    1       29.658 -18.771   6.499  0.00  0.00    +0.101 C 
BRANCH  16  17
ATOM     17  N   LIG    1       30.167 -19.110   7.841  0.00  0.00    -0.281 NA
BRANCH  17  18
ATOM     18  C   LIG    1       31.335 -20.094   7.856  0.00  0.00    +0.206 C 
BRANCH  18  20
ATOM     19  O   LIG    1       30.618 -21.498   9.876  0.00  0.00    -0.250 OA
ATOM     20  C   LIG    1       31.405 -21.248   8.785  0.00  0.00    +0.319 C 
BRANCH  20  21
ATOM     21  O   LIG    1       32.250 -22.200   8.673  0.00  0.00    -0.480 OA
ATOM     22  H   LIG    1       32.786 -21.877   7.923  0.00  0.00    +0.295 HD
ENDBRANCH  20  21
ENDBRANCH  18  20
ENDBRANCH  17  18
BRANCH  17  23
ATOM     23  C   LIG    1       30.397 -17.990   8.745  0.00  0.00    +0.206 C 
BRANCH  23  24
ATOM     24  C   LIG    1       31.779 -17.678   9.300  0.00  0.00    +0.319 C 
ATOM     25  O   LIG    1       32.275 -18.075  10.346  0.00  0.00    -0.250 OA
BRANCH  24  26
ATOM     26  O   LIG    1       32.388 -16.673   8.638  0.00  0.00    -0.480 OA
ATOM     27  H   LIG    1       31.745 -15.929   8.689  0.00  0.00    +0.295 HD
ENDBRANCH  24  26
ENDBRANCH  23  24
ENDBRANCH  17  23
ENDBRANCH  16  17
ENDBRANCH  15  16
ENDBRANCH  14  15
BRANCH  14  28
ATOM     28  C   LIG    1       26.907 -20.088   7.782  0.00  0.00    +0.205 C 
BRANCH  28  29
ATOM     29  C   LIG    1       26.647 -21.264   8.735  0.00  0.00    +0.319 C 
ATOM     30  O   LIG    1       27.422 -22.199   8.918  0.00  0.00    -0.250 OA
BRANCH  29  31
ATOM     31  O   LIG    1       25.525 -21.196   9.500  0.00  0.00    -0.480 OA
ATOM     32  H   LIG    1       24.652 -21.293   9.077  0.00  0.00    +0.295 HD
ENDBRANCH  29  31
ENDBRANCH  28  29
ENDBRANCH  14  28
ENDBRANCH  13  14
ENDBRANCH   1  13
BRANCH   1  33
ATOM     33  C   LIG    1       25.882 -23.181   5.912  0.00  0.00    +0.192 C 
BRANCH  33  34
ATOM     34  O   LIG    1       25.309 -24.528   6.688  0.00  0.00    -0.285 OA
BRANCH  34  35
ATOM     35  P   LIG    1       25.296 -26.074   5.989  0.00  0.00    +0.475 P 
ATOM     36  O   LIG    1       26.603 -26.479   5.369  0.00  0.00    -0.227 OA
BRANCH  35  37
ATOM     37  O   LIG    1       24.025 -25.664   5.000  0.00  0.00    -0.302 OA
ATOM     38  H   LIG    1       24.329 -25.243   4.150  0.00  0.00    +0.222 HD
ENDBRANCH  35  37
BRANCH  35  39
ATOM     39  O   LIG    1       24.418 -27.285   6.546  0.00  0.00    -0.283 OA
BRANCH  39  40
ATOM     40  C   LIG    1       24.955 -28.642   6.548  0.00  0.00    +0.130 C 
ATOM     41  C   LIG    1       25.654 -28.788   7.898  0.00  0.00    +0.033 C 
ATOM     42  C   LIG    1       25.259 -29.953   8.833  0.00  0.00    +0.019 C 
ATOM     43  C   LIG    1       24.821 -31.332   8.210  0.00  0.00    +0.021 C 
ATOM     44  C   LIG    1       23.757 -31.032   7.107  0.00  0.00    +0.019 C 
ATOM     45  C   LIG    1       24.115 -29.915   6.064  0.00  0.00    +0.033 C 
BRANCH  43  46
ATOM     46  C   LIG    1       24.062 -32.136   9.391  0.00  0.00    -0.037 A 
ATOM     47  C   LIG    1       23.119 -33.161   9.213  0.00  0.00    +0.004 A 
ATOM     48  C   LIG    1       22.438 -33.749  10.307  0.00  0.00    +0.000 A 
ATOM     49  C   LIG    1       22.693 -33.355  11.618  0.00  0.00    +0.000 A 
ATOM     50  C   LIG    1       23.671 -32.406  11.843  0.00  0.00    +0.000 A 
ATOM     51  C   LIG    1       24.351 -31.844  10.751  0.00  0.00    +0.004 A 
ENDBRANCH  43  46
BRANCH  43  52
ATOM     52  C   LIG    1       26.003 -32.083   7.488  0.00  0.00    -0.037 A 
ATOM     53  C   LIG    1       27.027 -32.741   8.188  0.00  0.00    +0.004 A 
ATOM     54  C   LIG    1       28.083 -33.400   7.528  0.00  0.00    +0.000 A 
ATOM     55  C   LIG    1       28.144 -33.450   6.141  0.00  0.00    +0.000 A 
ATOM     56  C   LIG    1       27.119 -32.884   5.416  0.00  0.00    +0.000 A 
ATOM     57  C   LIG    1       26.066 -32.249   6.088  0.00  0.00    +0.004 A 
ENDBRANCH  43  52
ENDBRANCH  39  40
ENDBRANCH  35  39
ENDBRANCH  34  35
ENDBRANCH  33  34
ENDBRANCH   1  33
TORSDOF 29
ENDMDL
MODEL 8
REMARK VINA RESULT:      -8.1      4.530     11.151
REMARK  Name = *****
REMARK                            x       y       z     vdW  Elec       q    Type
REMARK                         _______ _______ _______ _____ _____    ______ ____
ROOT
ATOM      1  C   LIG    1       25.066 -30.144   8.840  0.00  0.00    +0.098 C 
ENDROOT
BRANCH   1   2
ATOM      2  N   LIG    1       24.661 -31.531   8.067  0.00  0.00    -0.276 NA
BRANCH   2   3
ATOM      3  C   LIG    1       24.922 -31.591   6.611  0.00  0.00    +0.206 C 
BRANCH   3   4
ATOM      4  C   LIG    1       23.644 -31.872   6.062  0.00  0.00    +0.319 C 
ATOM      5  O   LIG    1       23.267 -32.850   5.462  0.00  0.00    -0.250 OA
BRANCH   4   6
ATOM      6  O   LIG    1       23.420 -30.606   5.711  0.00  0.00    -0.480 OA
ATOM      7  H   LIG    1       23.393 -30.423   4.678  0.00  0.00    +0.295 HD
ENDBRANCH   4   6
ENDBRANCH   3   4
ENDBRANCH   2   3
BRANCH   2   8
ATOM      8  C   LIG    1       25.194 -32.842   8.356  0.00  0.00    +0.206 C 
BRANCH   8   9
ATOM      9  C   LIG    1       26.220 -32.880   9.377  0.00  0.00    +0.319 C 
ATOM     10  O   LIG    1       27.461 -32.822   9.124  0.00  0.00    -0.250 OA
BRANCH   9  11
ATOM     11  O   LIG    1       25.846 -33.100  10.631  0.00  0.00    -0.480 OA
ATOM     12  H   LIG    1       25.430 -33.959  10.457  0.00  0.00    +0.295 HD
ENDBRANCH   9  11
ENDBRANCH   8   9
ENDBRANCH   2   8
ENDBRANCH   1   2
BRANCH   1  13
ATOM     13  C   LIG    1       23.967 -29.813   9.904  0.00  0.00    +0.106 C 
BRANCH  13  14
ATOM     14  N   LIG    1       23.950 -30.609  11.149  0.00  0.00    -0.290 NA
BRANCH  14  15
ATOM     15  C   LIG    1       24.866 -30.103  12.214  0.00  0.00    +0.100 C 
BRANCH  15  16
ATOM     16  C   LIG    1       25.309 -28.601  12.382  0.00  0.00    +0.101 C 
BRANCH  16  17
ATOM     17  N   LIG    1       26.516 -28.141  13.097  0.00  0.00    -0.281 NA
BRANCH  17  18
ATOM     18  C   LIG    1       27.705 -29.097  13.032  0.00  0.00    +0.206 C 
BRANCH  18  20
ATOM     19  O   LIG    1       28.018 -29.602  10.539  0.00  0.00    -0.250 OA
ATOM     20  C   LIG    1       28.489 -29.325  11.794  0.00  0.00    +0.319 C 
BRANCH  20  21
ATOM     21  O   LIG    1       29.765 -29.285  11.744  0.00  0.00    -0.480 OA
ATOM     22  H   LIG    1       29.983 -29.311  12.695  0.00  0.00    +0.295 HD
ENDBRANCH  20  21
ENDBRANCH  18  20
ENDBRANCH  17  18
BRANCH  17  23
ATOM     23  C   LIG    1       26.921 -26.762  12.854  0.00  0.00    +0.206 C 
BRANCH  23  24
ATOM     24  C   LIG    1       26.507 -25.629  13.783  0.00  0.00    +0.319 C 
ATOM     25  O   LIG    1       26.627 -25.575  14.999  0.00  0.00    -0.250 OA
BRANCH  24  26
ATOM     26  O   LIG    1       25.726 -24.717  13.169  0.00  0.00    -0.480 OA
ATOM     27  H   LIG    1       26.217 -23.871  13.277  0.00  0.00    +0.295 HD
ENDBRANCH  24  26
ENDBRANCH  23  24
ENDBRANCH  17  23
ENDBRANCH  16  17
ENDBRANCH  15  16
ENDBRANCH  14  15
BRANCH  14  28
ATOM     28  C   LIG    1       22.593 -31.195  11.347  0.00  0.00    +0.205 C 
BRANCH  28  29
ATOM     29  C   LIG    1       21.608 -31.433  10.192  0.00  0.00    +0.319 C 
ATOM     30  O   LIG    1       21.720 -32.321   9.351  0.00  0.00    -0.250 OA
BRANCH  29  31
ATOM     31  O   LIG    1       20.486 -30.665  10.175  0.00  0.00    -0.480 OA
ATOM     32  H   LIG    1       19.675 -31.013   9.761  0.00  0.00    +0.295 HD
ENDBRANCH  29  31
ENDBRANCH  28  29
ENDBRANCH  14  28
ENDBRANCH  13  14
ENDBRANCH   1  13
BRANCH   1  33
ATOM     33  C   LIG    1       25.326 -28.523   7.942  0.00  0.00    +0.192 C 
BRANCH  33  34
ATOM     34  O   LIG    1       24.455 -28.017   6.625  0.00  0.00    -0.285 OA
BRANCH  34  35
ATOM     35  P   LIG    1       24.469 -26.420   6.055  0.00  0.00    +0.475 P 
ATOM     36  O   LIG    1       24.631 -26.300   4.565  0.00  0.00    -0.227 OA
BRANCH  35  37
ATOM     37  O   LIG    1       25.750 -26.032   7.039  0.00  0.00    -0.302 OA
ATOM     38  H   LIG    1       25.622 -25.156   7.498  0.00  0.00    +0.222 HD
ENDBRANCH  35  37
BRANCH  35  39
ATOM     39  O   LIG    1       23.643 -25.235   6.733  0.00  0.00    -0.283 OA
BRANCH  39  40
ATOM     40  C   LIG    1       23.667 -23.895   6.154  0.00  0.00    +0.130 C 
ATOM     41  C   LIG    1       23.657 -22.947   7.352  0.00  0.00    +0.033 C 
ATOM     42  C   LIG    1       24.771 -21.886   7.486  0.00  0.00    +0.019 C 
ATOM     43  C   LIG    1       25.384 -21.237   6.188  0.00  0.00    +0.021 C 
ATOM     44  C   LIG    1       25.748 -22.399   5.210  0.00  0.00    +0.019 C 
ATOM     45  C   LIG    1       24.639 -23.480   4.953  0.00  0.00    +0.033 C 
BRANCH  43  46
ATOM     46  C   LIG    1       26.778 -20.553   6.644  0.00  0.00    -0.037 A 
ATOM     47  C   LIG    1       27.742 -20.000   5.786  0.00  0.00    +0.004 A 
ATOM     48  C   LIG    1       28.976 -19.500   6.271  0.00  0.00    +0.000 A 
ATOM     49  C   LIG    1       29.280 -19.509   7.630  0.00  0.00    +0.000 A 
ATOM     50  C   LIG    1       28.327 -19.971   8.516  0.00  0.00    +0.000 A 
ATOM     51  C   LIG    1       27.100 -20.447   8.024  0.00  0.00    +0.004 A 
ENDBRANCH  43  46
BRANCH  43  52
ATOM     52  C   LIG    1       24.362 -20.318   5.419  0.00  0.00    -0.037 A 
ATOM     53  C   LIG    1       24.641 -19.753   4.165  0.00  0.00    +0.004 A 
ATOM     54  C   LIG    1       23.719 -18.924   3.493  0.00  0.00    +0.000 A 
ATOM     55  C   LIG    1       22.471 -18.649   4.038  0.00  0.00    +0.000 A 
ATOM     56  C   LIG    1       22.128 -19.246   5.231  0.00  0.00    +0.000 A 
ATOM     57  C   LIG    1       23.048 -20.082   5.876  0.00  0.00    +0.004 A 
ENDBRANCH  43  52
ENDBRANCH  39  40
ENDBRANCH  35  39
ENDBRANCH  34  35
ENDBRANCH  33  34
ENDBRANCH   1  33
TORSDOF 29
ENDMDL
MODEL 9
REMARK VINA RESULT:      -8.0      1.476      5.647
REMARK  Name = *****
REMARK                            x       y       z     vdW  Elec       q    Type
REMARK                         _______ _______ _______ _____ _____    ______ ____
ROOT
ATOM      1  C   LIG    1       28.210 -21.381   7.434  0.00  0.00    +0.098 C 
ENDROOT
BRANCH   1   2
ATOM      2  N   LIG    1       29.205 -20.695   8.541  0.00  0.00    -0.276 NA
BRANCH   2   3
ATOM      3  C   LIG    1       30.659 -20.922   8.371  0.00  0.00    +0.206 C 
BRANCH   3   4
ATOM      4  C   LIG    1       30.906 -22.064   9.176  0.00  0.00    +0.319 C 
ATOM      5  O   LIG    1       30.634 -22.253  10.338  0.00  0.00    -0.250 OA
BRANCH   4   6
ATOM      6  O   LIG    1       32.076 -22.328   8.595  0.00  0.00    -0.480 OA
ATOM      7  H   LIG    1       32.202 -21.930   7.633  0.00  0.00    +0.295 HD
ENDBRANCH   4   6
ENDBRANCH   3   4
ENDBRANCH   2   3
BRANCH   2   8
ATOM      8  C   LIG    1       29.319 -19.280   8.808  0.00  0.00    +0.206 C 
BRANCH   8   9
ATOM      9  C   LIG    1       30.551 -18.870   9.450  0.00  0.00    +0.319 C 
ATOM     10  O   LIG    1       30.720 -18.878  10.707  0.00  0.00    -0.250 OA
BRANCH   9  11
ATOM     11  O   LIG    1       31.509 -18.354   8.692  0.00  0.00    -0.480 OA
ATOM     12  H   LIG    1       32.157 -18.260   9.408  0.00  0.00    +0.295 HD
ENDBRANCH   9  11
ENDBRANCH   8   9
ENDBRANCH   2   8
ENDBRANCH   1   2
BRANCH   1  13
ATOM     13  C   LIG    1       27.337 -20.263   6.771  0.00  0.00    +0.106 C 
BRANCH  13  14
ATOM     14  N   LIG    1       27.402 -20.118   5.302  0.00  0.00    -0.290 NA
BRANCH  14  15
ATOM     15  C   LIG    1       26.094 -19.793   4.659  0.00  0.00    +0.100 C 
BRANCH  15  16
ATOM     16  C   LIG    1       24.870 -20.780   4.558  0.00  0.00    +0.101 C 
BRANCH  16  17
ATOM     17  N   LIG    1       23.451 -20.379   4.512  0.00  0.00    -0.281 NA
BRANCH  17  18
ATOM     18  C   LIG    1       22.708 -20.490   5.841  0.00  0.00    +0.206 C 
BRANCH  18  20
ATOM     19  O   LIG    1       24.068 -20.605   8.010  0.00  0.00    -0.250 OA
ATOM     20  C   LIG    1       23.284 -21.158   7.033  0.00  0.00    +0.319 C 
BRANCH  20  21
ATOM     21  O   LIG    1       23.110 -22.392   7.310  0.00  0.00    -0.480 OA
ATOM     22  H   LIG    1       22.148 -22.404   7.480  0.00  0.00    +0.295 HD
ENDBRANCH  20  21
ENDBRANCH  18  20
ENDBRANCH  17  18
BRANCH  17  23
ATOM     23  C   LIG    1       23.159 -19.121   3.836  0.00  0.00    +0.206 C 
BRANCH  23  24
ATOM     24  C   LIG    1       21.914 -18.307   4.159  0.00  0.00    +0.319 C 
ATOM     25  O   LIG    1       20.795 -18.427   3.680  0.00  0.00    -0.250 OA
BRANCH  24  26
ATOM     26  O   LIG    1       22.190 -17.207   4.888  0.00  0.00    -0.480 OA
ATOM     27  H   LIG    1       21.639 -16.503   4.476  0.00  0.00    +0.295 HD
ENDBRANCH  24  26
ENDBRANCH  23  24
ENDBRANCH  17  23
ENDBRANCH  16  17
ENDBRANCH  15  16
ENDBRANCH  14  15
BRANCH  14  28
ATOM     28  C   LIG    1       28.740 -19.588   4.912  0.00  0.00    +0.205 C 
BRANCH  28  29
ATOM     29  C   LIG    1       29.269 -18.224   5.383  0.00  0.00    +0.319 C 
ATOM     30  O   LIG    1       30.251 -18.068   6.105  0.00  0.00    -0.250 OA
BRANCH  29  31
ATOM     31  O   LIG    1       28.660 -17.122   4.873  0.00  0.00    -0.480 OA
ATOM     32  H   LIG    1       29.076 -16.248   4.991  0.00  0.00    +0.295 HD
ENDBRANCH  29  31
ENDBRANCH  28  29
ENDBRANCH  14  28
ENDBRANCH  13  14
ENDBRANCH   1  13
BRANCH   1  33
ATOM     33  C   LIG    1       26.974 -22.716   7.873  0.00  0.00    +0.192 C 
BRANCH  33  34
ATOM     34  O   LIG    1       25.859 -23.358   6.828  0.00  0.00    -0.285 OA
BRANCH  34  35
ATOM     35  P   LIG    1       25.720 -25.020   6.517  0.00  0.00    +0.475 P 
ATOM     36  O   LIG    1       26.194 -25.431   5.151  0.00  0.00    -0.227 OA
BRANCH  35  37
ATOM     37  O   LIG    1       24.088 -24.987   6.829  0.00  0.00    -0.302 OA
ATOM     38  H   LIG    1       23.891 -24.786   7.785  0.00  0.00    +0.222 HD
ENDBRANCH  35  37
BRANCH  35  39
ATOM     39  O   LIG    1       25.870 -26.142   7.641  0.00  0.00    -0.283 OA
BRANCH  39  40
ATOM     40  C   LIG    1       25.916 -27.553   7.270  0.00  0.00    +0.130 C 
ATOM     41  C   LIG    1       26.325 -28.284   8.548  0.00  0.00    +0.033 C 
ATOM     42  C   LIG    1       25.434 -29.426   9.084  0.00  0.00    +0.019 C 
ATOM     43  C   LIG    1       24.655 -30.344   8.068  0.00  0.00    +0.021 C 
ATOM     44  C   LIG    1       23.922 -29.407   7.057  0.00  0.00    +0.019 C 
ATOM     45  C   LIG    1       24.778 -28.266   6.401  0.00  0.00    +0.033 C 
BRANCH  43  46
ATOM     46  C   LIG    1       23.509 -31.094   8.930  0.00  0.00    -0.037 A 
ATOM     47  C   LIG    1       23.099 -32.427   8.767  0.00  0.00    +0.004 A 
ATOM     48  C   LIG    1       22.023 -32.974   9.510  0.00  0.00    +0.000 A 
ATOM     49  C   LIG    1       21.338 -32.221  10.460  0.00  0.00    +0.000 A 
ATOM     50  C   LIG    1       21.762 -30.930  10.708  0.00  0.00    +0.000 A 
ATOM     51  C   LIG    1       22.841 -30.405   9.977  0.00  0.00    +0.004 A 
ENDBRANCH  43  46
BRANCH  43  52
ATOM     52  C   LIG    1       25.608 -31.257   7.210  0.00  0.00    -0.037 A 
ATOM     53  C   LIG    1       26.691 -31.959   7.764  0.00  0.00    +0.004 A 
ATOM     54  C   LIG    1       27.542 -32.766   6.981  0.00  0.00    +0.000 A 
ATOM     55  C   LIG    1       27.328 -32.923   5.618  0.00  0.00    +0.000 A 
ATOM     56  C   LIG    1       26.232 -32.314   5.049  0.00  0.00    +0.000 A 
ATOM     57  C   LIG    1       25.385 -31.531   5.844  0.00  0.00    +0.004 A 
ENDBRANCH  43  52
ENDBRANCH  39  40
ENDBRANCH  35  39
ENDBRANCH  34  35
ENDBRANCH  33  34
ENDBRANCH   1  33
TORSDOF 29
ENDMDL
