MODEL 1
REMARK VINA RESULT:      -8.6      0.000      0.000
REMARK  Name = *****
REMARK                            x       y       z     vdW  Elec       q    Type
REMARK                         _______ _______ _______ _____ _____    ______ ____
ROOT
ATOM      1  N   ALA A  1       26.878 -23.039   6.744  0.00  0.00    -0.294 NA
ATOM      2  H   ALA A  1       27.230 -22.878   5.798  0.00  0.00    +0.123 HD
ENDROOT
BRANCH   1   3
ATOM      3  CA  ALA A  1       26.843 -21.741   7.465  0.00  0.00    +0.138 C 
ATOM      4  CB  ALA A  1       25.973 -21.890   8.719  0.00  0.00    +0.034 C 
BRANCH   3   5
ATOM      5  C   ALA A  1       28.270 -21.264   7.819  0.00  0.00    +0.233 C 
ATOM      6  N   PRO A  2       28.789 -20.122   7.239  0.00  0.00    -0.287 N 
ATOM      7  CA  PRO A  2       30.230 -19.828   7.394  0.00  0.00    +0.184 C 
ATOM      8  CB  PRO A  2       30.515 -18.715   6.377  0.00  0.00    +0.035 C 
ATOM      9  CG  PRO A  2       29.432 -18.896   5.323  0.00  0.00    +0.021 C 
ATOM     10  CD  PRO A  2       28.227 -19.352   6.136  0.00  0.00    +0.109 C 
ATOM     11  O   ALA A  1       28.938 -21.850   8.678  0.00  0.00    -0.274 OA
BRANCH   7  12
ATOM     12  C   PRO A  2       30.645 -19.369   8.803  0.00  0.00    +0.326 C 
ATOM     13  O   PRO A  2       29.949 -18.669   9.507  0.00  0.00    -0.249 OA
BRANCH  12  14
ATOM     14  OXT PRO A  2       31.844 -19.833   9.228  0.00  0.00    -0.479 OA
ATOM     15  HXT PRO A  2       31.775 -20.168  10.134  0.00  0.00    +0.295 HD
ENDBRANCH  12  14
ENDBRANCH   7  12
ENDBRANCH   3   5
ENDBRANCH   1   3
BRANCH   1  16
ATOM     16  C   UNK A  0       25.545 -23.694   6.631  0.00  0.00    +0.164 C 
BRANCH  16  17
ATOM     17  C   UNK A  0       25.691 -25.187   6.346  0.00  0.00    +0.324 C 
ATOM     18  O   UNK A  0       26.730 -25.751   6.046  0.00  0.00    -0.249 OA
BRANCH  17  19
ATOM     19  O   UNK A  0       24.494 -25.823   6.501  0.00  0.00    -0.464 OA
BRANCH  19  21
ATOM     20  C   UNK A  0       24.367 -28.236   6.450  0.00  0.00    +0.048 C 
ATOM     21  C   UNK A  0       24.298 -26.956   5.643  0.00  0.00    +0.229 C 
ENDBRANCH  19  21
ENDBRANCH  17  19
ENDBRANCH  16  17
BRANCH  16  22
ATOM     22  C   UNK A  0       24.749 -23.023   5.504  0.00  0.00    +0.035 C 
BRANCH  22  23
ATOM     23  C   UNK A  0       23.672 -22.075   6.047  0.00  0.00    +0.037 C 
BRANCH  23  24
ATOM     24  C   UNK A  0       23.618 -20.794   5.257  0.00  0.00    -0.047 A 
ATOM     25  C   UNK A  0       24.689 -20.422   4.435  0.00  0.00    +0.003 A 
ATOM     26  C   UNK A  0       24.626 -19.246   3.688  0.00  0.00    +0.000 A 
ATOM     27  C   UNK A  0       23.493 -18.436   3.751  0.00  0.00    +0.000 A 
ATOM     28  C   UNK A  0       22.420 -18.802   4.562  0.00  0.00    +0.000 A 
ATOM     29  C   UNK A  0       22.481 -19.978   5.311  0.00  0.00    +0.003 A 
ENDBRANCH  23  24
ENDBRANCH  22  23
ENDBRANCH  16  22
ENDBRANCH   1  16
TORSDOF 11
ENDMDL
MODEL 2
REMARK VINA RESULT:      -8.2      1.600      5.058
REMARK  Name = *****
REMARK                            x       y       z     vdW  Elec       q    Type
REMARK                         _______ _______ _______ _____ _____    ______ ____
ROOT
ATOM      1  N   ALA A  1       26.269 -22.398   7.393  0.00  0.00    -0.294 NA
ATOM      2  H   ALA A  1       27.063 -23.028   7.255  0.00  0.00    +0.123 HD
ENDROOT
BRANCH   1   3
ATOM      3  CA  ALA A  1       26.785 -21.033   7.663  0.00  0.00    +0.138 C 
ATOM      4  CB  ALA A  1       25.992 -20.420   8.824  0.00  0.00    +0.034 C 
BRANCH   3   5
ATOM      5  C   ALA A  1       28.300 -21.063   7.967  0.00  0.00    +0.233 C 
ATOM      6  N   PRO A  2       29.126 -20.055   7.505  0.00  0.00    -0.287 N 
ATOM      7  CA  PRO A  2       30.592 -20.232   7.587  0.00  0.00    +0.184 C 
ATOM      8  CB  PRO A  2       31.171 -19.117   6.707  0.00  0.00    +0.035 C 
ATOM      9  CG  PRO A  2       30.051 -18.806   5.725  0.00  0.00    +0.021 C 
ATOM     10  CD  PRO A  2       28.792 -18.996   6.561  0.00  0.00    +0.109 C 
ATOM     11  O   ALA A  1       28.784 -21.943   8.687  0.00  0.00    -0.274 OA
BRANCH   7  12
ATOM     12  C   PRO A  2       31.174 -20.134   9.008  0.00  0.00    +0.326 C 
ATOM     13  O   PRO A  2       30.895 -19.242   9.781  0.00  0.00    -0.249 OA
BRANCH  12  14
ATOM     14  OXT PRO A  2       32.005 -21.144   9.359  0.00  0.00    -0.479 OA
ATOM     15  HXT PRO A  2       32.521 -20.900  10.141  0.00  0.00    +0.295 HD
ENDBRANCH  12  14
ENDBRANCH   7  12
ENDBRANCH   3   5
ENDBRANCH   1   3
BRANCH   1  16
ATOM     16  C   UNK A  0       25.405 -22.479   6.181  0.00  0.00    +0.164 C 
BRANCH  16  17
ATOM     17  C   UNK A  0       24.080 -21.753   6.404  0.00  0.00    +0.324 C 
ATOM     18  O   UNK A  0       23.261 -22.024   7.265  0.00  0.00    -0.249 OA
BRANCH  17  19
ATOM     19  O   UNK A  0       23.943 -20.726   5.515  0.00  0.00    -0.464 OA
BRANCH  19  21
ATOM     20  C   UNK A  0       22.626 -18.961   4.518  0.00  0.00    +0.048 C 
ATOM     21  C   UNK A  0       22.630 -20.152   5.455  0.00  0.00    +0.229 C 
ENDBRANCH  19  21
ENDBRANCH  17  19
ENDBRANCH  16  17
BRANCH  16  22
ATOM     22  C   UNK A  0       25.142 -23.955   5.849  0.00  0.00    +0.035 C 
BRANCH  22  23
ATOM     23  C   UNK A  0       25.940 -24.899   6.759  0.00  0.00    +0.037 C 
BRANCH  23  24
ATOM     24  C   UNK A  0       25.482 -26.326   6.605  0.00  0.00    -0.047 A 
ATOM     25  C   UNK A  0       25.914 -27.310   7.502  0.00  0.00    +0.003 A 
ATOM     26  C   UNK A  0       25.470 -28.626   7.369  0.00  0.00    +0.000 A 
ATOM     27  C   UNK A  0       24.590 -28.967   6.344  0.00  0.00    +0.000 A 
ATOM     28  C   UNK A  0       24.150 -27.992   5.450  0.00  0.00    +0.000 A 
ATOM     29  C   UNK A  0       24.591 -26.675   5.581  0.00  0.00    +0.003 A 
ENDBRANCH  23  24
ENDBRANCH  22  23
ENDBRANCH  16  22
ENDBRANCH   1  16
TORSDOF 11
ENDMDL
MODEL 3
REMARK VINA RESULT:      -7.7      5.294      7.911
REMARK  Name = *****
REMARK                            x       y       z     vdW  Elec       q    Type
REMARK                         _______ _______ _______ _____ _____    ______ ____
ROOT
ATOM      1  N   ALA A  1       25.982 -29.133   8.000  0.00  0.00    -0.294 NA
ATOM      2  H   ALA A  1       26.712 -28.421   8.079  0.00  0.00    +0.123 HD
ENDROOT
BRANCH   1   3
ATOM      3  CA  ALA A  1       25.532 -29.505   9.365  0.00  0.00    +0.138 C 
ATOM      4  CB  ALA A  1       25.104 -30.978   9.364  0.00  0.00    +0.034 C 
BRANCH   3   5
ATOM      5  C   ALA A  1       26.641 -29.238  10.407  0.00  0.00    +0.233 C 
ATOM      6  N   PRO A  2       26.312 -28.921  11.712  0.00  0.00    -0.287 N 
ATOM      7  CA  PRO A  2       27.368 -28.425  12.620  0.00  0.00    +0.184 C 
ATOM      8  CB  PRO A  2       26.614 -27.870  13.834  0.00  0.00    +0.035 C 
ATOM      9  CG  PRO A  2       25.241 -27.517  13.282  0.00  0.00    +0.021 C 
ATOM     10  CD  PRO A  2       24.993 -28.603  12.243  0.00  0.00    +0.109 C 
ATOM     11  O   ALA A  1       27.833 -29.375  10.112  0.00  0.00    -0.274 OA
BRANCH   7  12
ATOM     12  C   PRO A  2       28.381 -29.492  13.074  0.00  0.00    +0.326 C 
ATOM     13  O   PRO A  2       28.103 -30.388  13.843  0.00  0.00    -0.249 OA
BRANCH  12  14
ATOM     14  OXT PRO A  2       29.613 -29.386  12.524  0.00  0.00    -0.479 OA
ATOM     15  HXT PRO A  2       30.151 -28.752  13.021  0.00  0.00    +0.295 HD
ENDBRANCH  12  14
ENDBRANCH   7  12
ENDBRANCH   3   5
ENDBRANCH   1   3
BRANCH   1  16
ATOM     16  C   UNK A  0       24.895 -28.580   7.144  0.00  0.00    +0.164 C 
BRANCH  16  17
ATOM     17  C   UNK A  0       24.461 -29.593   6.087  0.00  0.00    +0.324 C 
ATOM     18  O   UNK A  0       23.319 -29.977   5.903  0.00  0.00    -0.249 OA
BRANCH  17  19
ATOM     19  O   UNK A  0       25.532 -29.998   5.345  0.00  0.00    -0.464 OA
BRANCH  19  21
ATOM     20  C   UNK A  0       26.478 -32.111   6.039  0.00  0.00    +0.048 C 
ATOM     21  C   UNK A  0       25.569 -31.402   5.056  0.00  0.00    +0.229 C 
ENDBRANCH  19  21
ENDBRANCH  17  19
ENDBRANCH  16  17
BRANCH  16  22
ATOM     22  C   UNK A  0       25.394 -27.297   6.465  0.00  0.00    +0.035 C 
BRANCH  22  23
ATOM     23  C   UNK A  0       24.234 -26.409   5.994  0.00  0.00    +0.037 C 
BRANCH  23  24
ATOM     24  C   UNK A  0       24.397 -24.992   6.478  0.00  0.00    -0.047 A 
ATOM     25  C   UNK A  0       25.669 -24.479   6.757  0.00  0.00    +0.003 A 
ATOM     26  C   UNK A  0       25.817 -23.159   7.184  0.00  0.00    +0.000 A 
ATOM     27  C   UNK A  0       24.698 -22.342   7.331  0.00  0.00    +0.000 A 
ATOM     28  C   UNK A  0       23.428 -22.842   7.049  0.00  0.00    +0.000 A 
ATOM     29  C   UNK A  0       23.277 -24.162   6.621  0.00  0.00    +0.003 A 
ENDBRANCH  23  24
ENDBRANCH  22  23
ENDBRANCH  16  22
ENDBRANCH   1  16
TORSDOF 11
ENDMDL
MODEL 4
REMARK VINA RESULT:      -7.6      2.172      4.913
REMARK  Name = *****
REMARK                            x       y       z     vdW  Elec       q    Type
REMARK                         _______ _______ _______ _____ _____    ______ ____
ROOT
ATOM      1  N   ALA A  1       26.677 -20.653   7.171  0.00  0.00    -0.294 NA
ATOM      2  H   ALA A  1       27.011 -21.087   8.035  0.00  0.00    +0.123 HD
ENDROOT
BRANCH   1   3
ATOM      3  CA  ALA A  1       27.805 -20.581   6.208  0.00  0.00    +0.138 C 
ATOM      4  CB  ALA A  1       27.862 -19.170   5.611  0.00  0.00    +0.034 C 
BRANCH   3   5
ATOM      5  C   ALA A  1       29.139 -20.964   6.888  0.00  0.00    +0.233 C 
ATOM      6  N   PRO A  2       29.673 -20.162   7.880  0.00  0.00    -0.287 N 
ATOM      7  CA  PRO A  2       31.059 -20.406   8.333  0.00  0.00    +0.184 C 
ATOM      8  CB  PRO A  2       31.426 -19.168   9.160  0.00  0.00    +0.035 C 
ATOM      9  CG  PRO A  2       30.515 -18.079   8.612  0.00  0.00    +0.021 C 
ATOM     10  CD  PRO A  2       29.233 -18.832   8.280  0.00  0.00    +0.109 C 
ATOM     11  O   ALA A  1       29.709 -22.025   6.611  0.00  0.00    -0.274 OA
BRANCH   7  12
ATOM     12  C   PRO A  2       31.245 -21.677   9.181  0.00  0.00    +0.326 C 
ATOM     13  O   PRO A  2       30.711 -21.843  10.257  0.00  0.00    -0.249 OA
BRANCH  12  14
ATOM     14  OXT PRO A  2       32.030 -22.630   8.624  0.00  0.00    -0.479 OA
ATOM     15  HXT PRO A  2       32.687 -22.943   9.264  0.00  0.00    +0.295 HD
ENDBRANCH  12  14
ENDBRANCH   7  12
ENDBRANCH   3   5
ENDBRANCH   1   3
BRANCH   1  16
ATOM     16  C   UNK A  0       25.521 -21.451   6.676  0.00  0.00    +0.164 C 
BRANCH  16  17
ATOM     17  C   UNK A  0       24.207 -20.700   6.886  0.00  0.00    +0.324 C 
ATOM     18  O   UNK A  0       23.618 -20.589   7.948  0.00  0.00    -0.249 OA
BRANCH  17  19
ATOM     19  O   UNK A  0       23.786 -20.139   5.716  0.00  0.00    -0.464 OA
BRANCH  19  21
ATOM     20  C   UNK A  0       24.801 -19.864   3.539  0.00  0.00    +0.048 C 
ATOM     21  C   UNK A  0       24.194 -20.836   4.531  0.00  0.00    +0.229 C 
ENDBRANCH  19  21
ENDBRANCH  17  19
ENDBRANCH  16  17
BRANCH  16  22
ATOM     22  C   UNK A  0       25.480 -22.793   7.421  0.00  0.00    +0.035 C 
BRANCH  22  23
ATOM     23  C   UNK A  0       24.323 -23.680   6.942  0.00  0.00    +0.037 C 
BRANCH  23  24
ATOM     24  C   UNK A  0       24.824 -25.009   6.439  0.00  0.00    -0.047 A 
ATOM     25  C   UNK A  0       23.924 -25.977   5.978  0.00  0.00    +0.003 A 
ATOM     26  C   UNK A  0       24.393 -27.198   5.492  0.00  0.00    +0.000 A 
ATOM     27  C   UNK A  0       25.762 -27.459   5.459  0.00  0.00    +0.000 A 
ATOM     28  C   UNK A  0       26.665 -26.498   5.911  0.00  0.00    +0.000 A 
ATOM     29  C   UNK A  0       26.198 -25.276   6.397  0.00  0.00    +0.003 A 
ENDBRANCH  23  24
ENDBRANCH  22  23
ENDBRANCH  16  22
ENDBRANCH   1  16
TORSDOF 11
ENDMDL
MODEL 5
REMARK VINA RESULT:      -7.5      3.303      7.385
REMARK  Name = *****
REMARK                            x       y       z     vdW  Elec       q    Type
REMARK                         _______ _______ _______ _____ _____    ______ ____
ROOT
ATOM      1  N   ALA A  1       25.153 -23.028   5.283  0.00  0.00    -0.294 NA
ATOM      2  H   ALA A  1       26.158 -23.090   5.105  0.00  0.00    +0.123 HD
ENDROOT
BRANCH   1   3
ATOM      3  CA  ALA A  1       24.826 -23.872   6.460  0.00  0.00    +0.138 C 
ATOM      4  CB  ALA A  1       23.701 -23.202   7.258  0.00  0.00    +0.034 C 
BRANCH   3   5
ATOM      5  C   ALA A  1       24.438 -25.304   6.026  0.00  0.00    +0.233 C 
ATOM      6  N   PRO A  2       25.405 -26.283   5.902  0.00  0.00    -0.287 N 
ATOM      7  CA  PRO A  2       25.054 -27.562   5.248  0.00  0.00    +0.184 C 
ATOM      8  CB  PRO A  2       26.399 -28.251   4.985  0.00  0.00    +0.035 C 
ATOM      9  CG  PRO A  2       27.393 -27.101   4.919  0.00  0.00    +0.021 C 
ATOM     10  CD  PRO A  2       26.852 -26.113   5.946  0.00  0.00    +0.109 C 
ATOM     11  O   ALA A  1       23.254 -25.614   5.856  0.00  0.00    -0.274 OA
BRANCH   7  12
ATOM     12  C   PRO A  2       24.147 -28.484   6.081  0.00  0.00    +0.326 C 
ATOM     13  O   PRO A  2       24.214 -28.569   7.290  0.00  0.00    -0.249 OA
BRANCH  12  14
ATOM     14  OXT PRO A  2       23.229 -29.182   5.372  0.00  0.00    -0.479 OA
ATOM     15  HXT PRO A  2       22.758 -29.804   5.946  0.00  0.00    +0.295 HD
ENDBRANCH  12  14
ENDBRANCH   7  12
ENDBRANCH   3   5
ENDBRANCH   1   3
BRANCH   1  16
ATOM     16  C   UNK A  0       24.808 -21.591   5.466  0.00  0.00    +0.164 C 
BRANCH  16  17
ATOM     17  C   UNK A  0       23.960 -21.079   4.304  0.00  0.00    +0.324 C 
ATOM     18  O   UNK A  0       24.346 -20.939   3.155  0.00  0.00    -0.249 OA
BRANCH  17  19
ATOM     19  O   UNK A  0       22.686 -20.820   4.719  0.00  0.00    -0.464 OA
BRANCH  19  21
ATOM     20  C   UNK A  0       22.136 -18.488   4.395  0.00  0.00    +0.048 C 
ATOM     21  C   UNK A  0       22.515 -19.565   5.391  0.00  0.00    +0.229 C 
ENDBRANCH  19  21
ENDBRANCH  17  19
ENDBRANCH  16  17
BRANCH  16  22
ATOM     22  C   UNK A  0       26.102 -20.772   5.569  0.00  0.00    +0.035 C 
BRANCH  22  23
ATOM     23  C   UNK A  0       26.872 -21.077   6.860  0.00  0.00    +0.037 C 
BRANCH  23  24
ATOM     24  C   UNK A  0       28.226 -20.415   6.861  0.00  0.00    -0.047 A 
ATOM     25  C   UNK A  0       29.208 -20.808   7.778  0.00  0.00    +0.003 A 
ATOM     26  C   UNK A  0       30.467 -20.209   7.760  0.00  0.00    +0.000 A 
ATOM     27  C   UNK A  0       30.756 -19.216   6.826  0.00  0.00    +0.000 A 
ATOM     28  C   UNK A  0       29.787 -18.823   5.905  0.00  0.00    +0.000 A 
ATOM     29  C   UNK A  0       28.527 -19.421   5.920  0.00  0.00    +0.003 A 
ENDBRANCH  23  24
ENDBRANCH  22  23
ENDBRANCH  16  22
ENDBRANCH   1  16
TORSDOF 11
ENDMDL
MODEL 6
REMARK VINA RESULT:      -7.5      5.069      8.050
REMARK  Name = *****
REMARK                            x       y       z     vdW  Elec       q    Type
REMARK                         _______ _______ _______ _____ _____    ______ ____
ROOT
ATOM      1  N   ALA A  1       26.138 -29.108   8.017  0.00  0.00    -0.294 NA
ATOM      2  H   ALA A  1       26.743 -28.317   8.250  0.00  0.00    +0.123 HD
ENDROOT
BRANCH   1   3
ATOM      3  CA  ALA A  1       25.721 -29.774   9.277  0.00  0.00    +0.138 C 
ATOM      4  CB  ALA A  1       26.430 -31.130   9.382  0.00  0.00    +0.034 C 
BRANCH   3   5
ATOM      5  C   ALA A  1       26.021 -28.882  10.502  0.00  0.00    +0.233 C 
ATOM      6  N   PRO A  2       25.203 -28.926  11.616  0.00  0.00    -0.287 N 
ATOM      7  CA  PRO A  2       25.357 -27.893  12.662  0.00  0.00    +0.184 C 
ATOM      8  CB  PRO A  2       24.111 -28.040  13.545  0.00  0.00    +0.035 C 
ATOM      9  CG  PRO A  2       23.080 -28.670  12.621  0.00  0.00    +0.021 C 
ATOM     10  CD  PRO A  2       23.915 -29.595  11.745  0.00  0.00    +0.109 C 
ATOM     11  O   ALA A  1       27.033 -28.174  10.537  0.00  0.00    -0.274 OA
BRANCH   7  12
ATOM     12  C   PRO A  2       26.627 -28.029  13.520  0.00  0.00    +0.326 C 
ATOM     13  O   PRO A  2       26.773 -28.892  14.361  0.00  0.00    -0.249 OA
BRANCH  12  14
ATOM     14  OXT PRO A  2       27.603 -27.131  13.250  0.00  0.00    -0.479 OA
ATOM     15  HXT PRO A  2       27.995 -27.308  12.382  0.00  0.00    +0.295 HD
ENDBRANCH  12  14
ENDBRANCH   7  12
ENDBRANCH   3   5
ENDBRANCH   1   3
BRANCH   1  16
ATOM     16  C   UNK A  0       24.997 -28.590   7.211  0.00  0.00    +0.164 C 
BRANCH  16  17
ATOM     17  C   UNK A  0       24.513 -29.638   6.211  0.00  0.00    +0.324 C 
ATOM     18  O   UNK A  0       23.347 -29.862   5.932  0.00  0.00    -0.249 OA
BRANCH  17  19
ATOM     19  O   UNK A  0       25.572 -30.282   5.642  0.00  0.00    -0.464 OA
BRANCH  19  21
ATOM     20  C   UNK A  0       26.747 -32.385   5.852  0.00  0.00    +0.048 C 
ATOM     21  C   UNK A  0       25.429 -31.705   5.541  0.00  0.00    +0.229 C 
ENDBRANCH  19  21
ENDBRANCH  17  19
ENDBRANCH  16  17
BRANCH  16  22
ATOM     22  C   UNK A  0       25.442 -27.323   6.466  0.00  0.00    +0.035 C 
BRANCH  22  23
ATOM     23  C   UNK A  0       24.248 -26.456   6.046  0.00  0.00    +0.037 C 
BRANCH  23  24
ATOM     24  C   UNK A  0       24.437 -25.022   6.467  0.00  0.00    -0.047 A 
ATOM     25  C   UNK A  0       23.331 -24.177   6.622  0.00  0.00    +0.003 A 
ATOM     26  C   UNK A  0       23.509 -22.856   7.033  0.00  0.00    +0.000 A 
ATOM     27  C   UNK A  0       24.789 -22.371   7.296  0.00  0.00    +0.000 A 
ATOM     28  C   UNK A  0       25.894 -23.207   7.151  0.00  0.00    +0.000 A 
ATOM     29  C   UNK A  0       25.719 -24.529   6.741  0.00  0.00    +0.003 A 
ENDBRANCH  23  24
ENDBRANCH  22  23
ENDBRANCH  16  22
ENDBRANCH   1  16
TORSDOF 11
ENDMDL
MODEL 7
REMARK VINA RESULT:      -7.3      2.202      5.123
REMARK  Name = *****
REMARK                            x       y       z     vdW  Elec       q    Type
REMARK                         _______ _______ _______ _____ _____    ______ ____
ROOT
ATOM      1  N   ALA A  1       26.516 -20.736   7.294  0.00  0.00    -0.294 NA
ATOM      2  H   ALA A  1       26.853 -21.212   8.134  0.00  0.00    +0.123 HD
ENDROOT
BRANCH   1   3
ATOM      3  CA  ALA A  1       27.666 -20.511   6.382  0.00  0.00    +0.138 C 
ATOM      4  CB  ALA A  1       27.173 -19.779   5.128  0.00  0.00    +0.034 C 
BRANCH   3   5
ATOM      5  C   ALA A  1       28.791 -19.724   7.092  0.00  0.00    +0.233 C 
ATOM      6  N   PRO A  2       29.811 -20.395   7.741  0.00  0.00    -0.287 N 
ATOM      7  CA  PRO A  2       30.727 -19.635   8.619  0.00  0.00    +0.184 C 
ATOM      8  CB  PRO A  2       31.488 -20.705   9.411  0.00  0.00    +0.035 C 
ATOM      9  CG  PRO A  2       30.552 -21.903   9.402  0.00  0.00    +0.021 C 
ATOM     10  CD  PRO A  2       29.893 -21.820   8.031  0.00  0.00    +0.109 C 
ATOM     11  O   ALA A  1       28.839 -18.491   7.027  0.00  0.00    -0.274 OA
BRANCH   7  12
ATOM     12  C   PRO A  2       31.721 -18.723   7.878  0.00  0.00    +0.326 C 
ATOM     13  O   PRO A  2       32.191 -17.716   8.365  0.00  0.00    -0.249 OA
BRANCH  12  14
ATOM     14  OXT PRO A  2       32.071 -19.142   6.639  0.00  0.00    -0.479 OA
ATOM     15  HXT PRO A  2       32.373 -18.394   6.102  0.00  0.00    +0.295 HD
ENDBRANCH  12  14
ENDBRANCH   7  12
ENDBRANCH   3   5
ENDBRANCH   1   3
BRANCH   1  16
ATOM     16  C   UNK A  0       25.437 -21.571   6.697  0.00  0.00    +0.164 C 
BRANCH  16  17
ATOM     17  C   UNK A  0       24.063 -20.949   6.944  0.00  0.00    +0.324 C 
ATOM     18  O   UNK A  0       23.692 -20.451   7.993  0.00  0.00    -0.249 OA
BRANCH  17  19
ATOM     19  O   UNK A  0       23.304 -21.002   5.812  0.00  0.00    -0.464 OA
BRANCH  19  21
ATOM     20  C   UNK A  0       22.358 -19.039   4.764  0.00  0.00    +0.048 C 
ATOM     21  C   UNK A  0       23.561 -19.955   4.865  0.00  0.00    +0.229 C 
ENDBRANCH  19  21
ENDBRANCH  17  19
ENDBRANCH  16  17
BRANCH  16  22
ATOM     22  C   UNK A  0       25.491 -22.977   7.310  0.00  0.00    +0.035 C 
BRANCH  22  23
ATOM     23  C   UNK A  0       24.343 -23.865   6.813  0.00  0.00    +0.037 C 
BRANCH  23  24
ATOM     24  C   UNK A  0       24.849 -25.203   6.340  0.00  0.00    -0.047 A 
ATOM     25  C   UNK A  0       23.952 -26.194   5.925  0.00  0.00    +0.003 A 
ATOM     26  C   UNK A  0       24.425 -27.423   5.467  0.00  0.00    +0.000 A 
ATOM     27  C   UNK A  0       25.796 -27.670   5.415  0.00  0.00    +0.000 A 
ATOM     28  C   UNK A  0       26.697 -26.687   5.821  0.00  0.00    +0.000 A 
ATOM     29  C   UNK A  0       26.226 -25.456   6.279  0.00  0.00    +0.003 A 
ENDBRANCH  23  24
ENDBRANCH  22  23
ENDBRANCH  16  22
ENDBRANCH   1  16
TORSDOF 11
ENDMDL
MODEL 8
REMARK VINA RESULT:      -7.2      5.014      7.985
REMARK  Name = *****
REMARK                            x       y       z     vdW  Elec       q    Type
REMARK                         _______ _______ _______ _____ _____    ______ ____
ROOT
ATOM      1  N   ALA A  1       26.345 -28.653   8.202  0.00  0.00    -0.294 NA
ATOM      2  H   ALA A  1       26.748 -27.788   8.570  0.00  0.00    +0.123 HD
ENDROOT
BRANCH   1   3
ATOM      3  CA  ALA A  1       25.959 -29.521   9.343  0.00  0.00    +0.138 C 
ATOM      4  CB  ALA A  1       26.841 -30.775   9.335  0.00  0.00    +0.034 C 
BRANCH   3   5
ATOM      5  C   ALA A  1       26.071 -28.758  10.682  0.00  0.00    +0.233 C 
ATOM      6  N   PRO A  2       25.125 -28.944  11.673  0.00  0.00    -0.287 N 
ATOM      7  CA  PRO A  2       25.108 -28.026  12.833  0.00  0.00    +0.184 C 
ATOM      8  CB  PRO A  2       23.770 -28.302  13.531  0.00  0.00    +0.035 C 
ATOM      9  CG  PRO A  2       22.886 -28.855  12.424  0.00  0.00    +0.021 C 
ATOM     10  CD  PRO A  2       23.858 -29.658  11.569  0.00  0.00    +0.109 C 
ATOM     11  O   ALA A  1       27.042 -28.031  10.918  0.00  0.00    -0.274 OA
BRANCH   7  12
ATOM     12  C   PRO A  2       26.268 -28.221  13.825  0.00  0.00    +0.326 C 
ATOM     13  O   PRO A  2       26.392 -29.209  14.518  0.00  0.00    -0.249 OA
BRANCH  12  14
ATOM     14  OXT PRO A  2       27.176 -27.217  13.852  0.00  0.00    -0.479 OA
ATOM     15  HXT PRO A  2       27.479 -27.060  14.758  0.00  0.00    +0.295 HD
ENDBRANCH  12  14
ENDBRANCH   7  12
ENDBRANCH   3   5
ENDBRANCH   1   3
BRANCH   1  16
ATOM     16  C   UNK A  0       25.202 -28.284   7.320  0.00  0.00    +0.164 C 
BRANCH  16  17
ATOM     17  C   UNK A  0       24.881 -29.410   6.339  0.00  0.00    +0.324 C 
ATOM     18  O   UNK A  0       25.505 -29.659   5.321  0.00  0.00    -0.249 OA
BRANCH  17  19
ATOM     19  O   UNK A  0       23.806 -30.130   6.771  0.00  0.00    -0.464 OA
BRANCH  19  21
ATOM     20  C   UNK A  0       23.574 -32.143   8.089  0.00  0.00    +0.048 C 
ATOM     21  C   UNK A  0       23.987 -31.552   6.756  0.00  0.00    +0.229 C 
ENDBRANCH  19  21
ENDBRANCH  17  19
ENDBRANCH  16  17
BRANCH  16  22
ATOM     22  C   UNK A  0       25.553 -27.004   6.550  0.00  0.00    +0.035 C 
BRANCH  22  23
ATOM     23  C   UNK A  0       24.299 -26.237   6.110  0.00  0.00    +0.037 C 
BRANCH  23  24
ATOM     24  C   UNK A  0       24.347 -24.801   6.564  0.00  0.00    -0.047 A 
ATOM     25  C   UNK A  0       25.570 -24.198   6.881  0.00  0.00    +0.003 A 
ATOM     26  C   UNK A  0       25.612 -22.862   7.279  0.00  0.00    +0.000 A 
ATOM     27  C   UNK A  0       24.436 -22.118   7.360  0.00  0.00    +0.000 A 
ATOM     28  C   UNK A  0       23.215 -22.709   7.040  0.00  0.00    +0.000 A 
ATOM     29  C   UNK A  0       23.170 -24.045   6.641  0.00  0.00    +0.003 A 
ENDBRANCH  23  24
ENDBRANCH  22  23
ENDBRANCH  16  22
ENDBRANCH   1  16
TORSDOF 11
ENDMDL
MODEL 9
REMARK VINA RESULT:      -7.1      4.032      7.877
REMARK  Name = *****
REMARK                            x       y       z     vdW  Elec       q    Type
REMARK                         _______ _______ _______ _____ _____    ______ ____
ROOT
ATOM      1  N   ALA A  1       24.450 -27.273   6.882  0.00  0.00    -0.294 NA
ATOM      2  H   ALA A  1       24.083 -27.157   7.830  0.00  0.00    +0.123 HD
ENDROOT
BRANCH   1   3
ATOM      3  CA  ALA A  1       25.243 -26.068   6.529  0.00  0.00    +0.138 C 
ATOM      4  CB  ALA A  1       25.895 -26.284   5.159  0.00  0.00    +0.034 C 
BRANCH   3   5
ATOM      5  C   ALA A  1       24.360 -24.800   6.543  0.00  0.00    +0.233 C 
ATOM      6  N   PRO A  2       24.915 -23.565   6.824  0.00  0.00    -0.287 N 
ATOM      7  CA  PRO A  2       24.020 -22.416   7.080  0.00  0.00    +0.184 C 
ATOM      8  CB  PRO A  2       24.932 -21.333   7.672  0.00  0.00    +0.035 C 
ATOM      9  CG  PRO A  2       26.084 -22.117   8.282  0.00  0.00    +0.021 C 
ATOM     10  CD  PRO A  2       26.257 -23.287   7.320  0.00  0.00    +0.109 C 
ATOM     11  O   ALA A  1       23.166 -24.856   6.230  0.00  0.00    -0.274 OA
BRANCH   7  12
ATOM     12  C   PRO A  2       23.300 -21.871   5.834  0.00  0.00    +0.326 C 
ATOM     13  O   PRO A  2       23.848 -21.191   4.992  0.00  0.00    -0.249 OA
BRANCH  12  14
ATOM     14  OXT PRO A  2       22.000 -22.233   5.717  0.00  0.00    -0.479 OA
ATOM     15  HXT PRO A  2       21.569 -22.228   6.584  0.00  0.00    +0.295 HD
ENDBRANCH  12  14
ENDBRANCH   7  12
ENDBRANCH   3   5
ENDBRANCH   1   3
BRANCH   1  16
ATOM     16  C   UNK A  0       25.239 -28.536   6.848  0.00  0.00    +0.164 C 
BRANCH  16  17
ATOM     17  C   UNK A  0       24.600 -29.555   5.906  0.00  0.00    +0.324 C 
ATOM     18  O   UNK A  0       23.414 -29.835   5.868  0.00  0.00    -0.249 OA
BRANCH  17  19
ATOM     19  O   UNK A  0       25.541 -30.099   5.082  0.00  0.00    -0.464 OA
BRANCH  19  21
ATOM     20  C   UNK A  0       26.484 -32.047   6.160  0.00  0.00    +0.048 C 
ATOM     21  C   UNK A  0       25.571 -31.533   5.065  0.00  0.00    +0.229 C 
ENDBRANCH  19  21
ENDBRANCH  17  19
ENDBRANCH  16  17
BRANCH  16  22
ATOM     22  C   UNK A  0       25.321 -29.116   8.267  0.00  0.00    +0.035 C 
BRANCH  22  23
ATOM     23  C   UNK A  0       26.506 -28.542   9.053  0.00  0.00    +0.037 C 
BRANCH  23  24
ATOM     24  C   UNK A  0       26.241 -28.561  10.537  0.00  0.00    -0.047 A 
ATOM     25  C   UNK A  0       26.953 -27.714  11.395  0.00  0.00    +0.003 A 
ATOM     26  C   UNK A  0       26.689 -27.718  12.764  0.00  0.00    +0.000 A 
ATOM     27  C   UNK A  0       25.710 -28.563  13.286  0.00  0.00    +0.000 A 
ATOM     28  C   UNK A  0       24.993 -29.404  12.438  0.00  0.00    +0.000 A 
ATOM     29  C   UNK A  0       25.254 -29.402  11.067  0.00  0.00    +0.003 A 
ENDBRANCH  23  24
ENDBRANCH  22  23
ENDBRANCH  16  22
ENDBRANCH   1  16
TORSDOF 11
ENDMDL
