MODEL 1
REMARK VINA RESULT:      -2.6      0.000      0.000
REMARK  Name = *****
REMARK                            x       y       z     vdW  Elec       q    Type
REMARK                         _______ _______ _______ _____ _____    ______ ____
ROOT
ATOM      1  O   LIG    1       25.742 -16.331   2.942  0.00  0.00    -0.461 OA
ENDROOT
BRANCH   1   2
ATOM      2  C   LIG    1       26.460 -15.127   3.295  0.00  0.00    +0.187 C 
ATOM      3  C   LIG    1       26.142 -14.840   4.778  0.00  0.00    +0.099 C 
ATOM      4  C   LIG    1       24.892 -13.965   4.998  0.00  0.00    +0.070 C 
ATOM      5  N   LIG    1       25.042 -12.639   4.224  0.00  0.00    +0.243 N 
ATOM      6  C   LIG    1       26.338 -11.878   4.502  0.00  0.00    +0.192 C 
ATOM      7  C   LIG    1       23.919 -11.640   4.588  0.00  0.00    +0.192 C 
ATOM      8  C   LIG    1       24.869 -13.162   2.785  0.00  0.00    +0.070 C 
ATOM      9  C   LIG    1       23.649 -14.092   2.900  0.00  0.00    +0.060 C 
ATOM     10  C   LIG    1       23.650 -14.593   4.348  0.00  0.00    +0.060 C 
ATOM     11  C   LIG    1       26.113 -13.955   2.358  0.00  0.00    +0.099 C 
ENDBRANCH   1   2
BRANCH   1  12
ATOM     12  C   LIG    1       26.238 -17.516   3.423  0.00  0.00    +0.310 C 
ATOM     13  O   LIG    1       27.363 -17.651   3.877  0.00  0.00    -0.251 OA
BRANCH  12  14
ATOM     14  C   LIG    1       25.162 -18.592   3.368  0.00  0.00    +0.098 C 
BRANCH  14  15
ATOM     15  C   LIG    1       25.705 -19.950   3.842  0.00  0.00    +0.014 C 
BRANCH  15  17
ATOM     16  C   LIG    1       26.994 -20.336   6.019  0.00  0.00    +0.004 C 
ATOM     17  C   LIG    1       25.632 -20.182   5.356  0.00  0.00    -0.003 C 
ENDBRANCH  15  17
ENDBRANCH  14  15
BRANCH  14  18
ATOM     18  C   LIG    1       23.914 -18.086   4.114  0.00  0.00    +0.014 C 
BRANCH  18  19
ATOM     19  C   LIG    1       22.641 -18.909   3.886  0.00  0.00    -0.003 C 
ATOM     20  C   LIG    1       22.271 -19.713   5.125  0.00  0.00    +0.004 C 
ENDBRANCH  18  19
ENDBRANCH  14  18
ENDBRANCH  12  14
ENDBRANCH   1  12
TORSDOF 7
ENDMDL
MODEL 2
REMARK VINA RESULT:      -2.5      1.579      2.849
REMARK  Name = *****
REMARK                            x       y       z     vdW  Elec       q    Type
REMARK                         _______ _______ _______ _____ _____    ______ ____
ROOT
ATOM      1  O   LIG    1       24.300 -15.876   4.278  0.00  0.00    -0.461 OA
ENDROOT
BRANCH   1   2
ATOM      2  C   LIG    1       24.278 -14.568   3.663  0.00  0.00    +0.187 C 
ATOM      3  C   LIG    1       25.140 -14.664   2.386  0.00  0.00    +0.099 C 
ATOM      4  C   LIG    1       26.634 -14.356   2.608  0.00  0.00    +0.070 C 
ATOM      5  N   LIG    1       26.789 -12.959   3.244  0.00  0.00    +0.243 N 
ATOM      6  C   LIG    1       26.069 -11.833   2.503  0.00  0.00    +0.192 C 
ATOM      7  C   LIG    1       28.269 -12.515   3.283  0.00  0.00    +0.192 C 
ATOM      8  C   LIG    1       26.268 -13.267   4.662  0.00  0.00    +0.070 C 
ATOM      9  C   LIG    1       26.981 -14.584   5.014  0.00  0.00    +0.060 C 
ATOM     10  C   LIG    1       27.242 -15.280   3.673  0.00  0.00    +0.060 C 
ATOM     11  C   LIG    1       24.746 -13.468   4.634  0.00  0.00    +0.099 C 
ENDBRANCH   1   2
BRANCH   1  12
ATOM     12  C   LIG    1       23.099 -16.525   4.404  0.00  0.00    +0.310 C 
ATOM     13  O   LIG    1       22.059 -15.979   4.736  0.00  0.00    -0.251 OA
BRANCH  12  14
ATOM     14  C   LIG    1       23.252 -17.987   4.003  0.00  0.00    +0.098 C 
BRANCH  14  15
ATOM     15  C   LIG    1       24.705 -18.315   3.627  0.00  0.00    +0.014 C 
BRANCH  15  17
ATOM     16  C   LIG    1       26.062 -20.084   4.884  0.00  0.00    +0.004 C 
ATOM     17  C   LIG    1       25.086 -19.795   3.752  0.00  0.00    -0.003 C 
ENDBRANCH  15  17
ENDBRANCH  14  15
BRANCH  14  18
ATOM     18  C   LIG    1       22.642 -18.871   5.107  0.00  0.00    +0.014 C 
BRANCH  18  19
ATOM     19  C   LIG    1       21.984 -20.165   4.614  0.00  0.00    -0.003 C 
ATOM     20  C   LIG    1       22.407 -21.358   5.460  0.00  0.00    +0.004 C 
ENDBRANCH  18  19
ENDBRANCH  14  18
ENDBRANCH  12  14
ENDBRANCH   1  12
TORSDOF 7
ENDMDL
MODEL 3
REMARK VINA RESULT:      -2.3      1.546      3.228
REMARK  Name = *****
REMARK                            x       y       z     vdW  Elec       q    Type
REMARK                         _______ _______ _______ _____ _____    ______ ____
ROOT
ATOM      1  O   LIG    1       24.511 -15.986   4.216  0.00  0.00    -0.461 OA
ENDROOT
BRANCH   1   2
ATOM      2  C   LIG    1       24.482 -14.669   3.619  0.00  0.00    +0.187 C 
ATOM      3  C   LIG    1       25.413 -14.720   2.390  0.00  0.00    +0.099 C 
ATOM      4  C   LIG    1       26.883 -14.370   2.696  0.00  0.00    +0.070 C 
ATOM      5  N   LIG    1       26.960 -12.980   3.360  0.00  0.00    +0.243 N 
ATOM      6  C   LIG    1       26.247 -11.864   2.596  0.00  0.00    +0.192 C 
ATOM      7  C   LIG    1       28.422 -12.492   3.485  0.00  0.00    +0.192 C 
ATOM      8  C   LIG    1       26.374 -13.325   4.743  0.00  0.00    +0.070 C 
ATOM      9  C   LIG    1       27.107 -14.625   5.114  0.00  0.00    +0.060 C 
ATOM     10  C   LIG    1       27.461 -15.292   3.780  0.00  0.00    +0.060 C 
ATOM     11  C   LIG    1       24.862 -13.571   4.629  0.00  0.00    +0.099 C 
ENDBRANCH   1   2
BRANCH   1  12
ATOM     12  C   LIG    1       23.304 -16.608   4.410  0.00  0.00    +0.310 C 
ATOM     13  O   LIG    1       22.239 -16.020   4.499  0.00  0.00    -0.251 OA
BRANCH  12  14
ATOM     14  C   LIG    1       23.494 -18.119   4.425  0.00  0.00    +0.098 C 
BRANCH  14  15
ATOM     15  C   LIG    1       22.144 -18.853   4.466  0.00  0.00    +0.014 C 
BRANCH  15  17
ATOM     16  C   LIG    1       22.891 -20.560   6.221  0.00  0.00    +0.004 C 
ATOM     17  C   LIG    1       22.223 -20.329   4.873  0.00  0.00    -0.003 C 
ENDBRANCH  15  17
ENDBRANCH  14  15
BRANCH  14  18
ATOM     18  C   LIG    1       24.423 -18.515   3.262  0.00  0.00    +0.014 C 
BRANCH  18  19
ATOM     19  C   LIG    1       25.164 -19.845   3.445  0.00  0.00    -0.003 C 
ATOM     20  C   LIG    1       25.965 -19.859   4.740  0.00  0.00    +0.004 C 
ENDBRANCH  18  19
ENDBRANCH  14  18
ENDBRANCH  12  14
ENDBRANCH   1  12
TORSDOF 7
ENDMDL
MODEL 4
REMARK VINA RESULT:      -2.2      0.976      2.210
REMARK  Name = *****
REMARK                            x       y       z     vdW  Elec       q    Type
REMARK                         _______ _______ _______ _____ _____    ______ ____
ROOT
ATOM      1  O   LIG    1       25.638 -16.393   4.082  0.00  0.00    -0.461 OA
ENDROOT
BRANCH   1   2
ATOM      2  C   LIG    1       26.186 -15.257   3.377  0.00  0.00    +0.187 C 
ATOM      3  C   LIG    1       26.471 -14.172   4.437  0.00  0.00    +0.099 C 
ATOM      4  C   LIG    1       25.284 -13.226   4.707  0.00  0.00    +0.070 C 
ATOM      5  N   LIG    1       24.833 -12.567   3.387  0.00  0.00    +0.243 N 
ATOM      6  C   LIG    1       25.949 -11.886   2.596  0.00  0.00    +0.192 C 
ATOM      7  C   LIG    1       23.795 -11.449   3.637  0.00  0.00    +0.192 C 
ATOM      8  C   LIG    1       24.178 -13.785   2.705  0.00  0.00    +0.070 C 
ATOM      9  C   LIG    1       23.327 -14.395   3.832  0.00  0.00    +0.060 C 
ATOM     10  C   LIG    1       24.034 -14.008   5.136  0.00  0.00    +0.060 C 
ATOM     11  C   LIG    1       25.257 -14.777   2.247  0.00  0.00    +0.099 C 
ENDBRANCH   1   2
BRANCH   1  12
ATOM     12  C   LIG    1       25.753 -17.618   3.475  0.00  0.00    +0.310 C 
ATOM     13  O   LIG    1       26.476 -17.840   2.517  0.00  0.00    -0.251 OA
BRANCH  12  14
ATOM     14  C   LIG    1       24.906 -18.647   4.213  0.00  0.00    +0.098 C 
BRANCH  14  15
ATOM     15  C   LIG    1       23.475 -18.698   3.656  0.00  0.00    +0.014 C 
BRANCH  15  17
ATOM     16  C   LIG    1       22.119 -20.546   4.794  0.00  0.00    +0.004 C 
ATOM     17  C   LIG    1       22.394 -19.053   4.684  0.00  0.00    -0.003 C 
ENDBRANCH  15  17
ENDBRANCH  14  15
BRANCH  14  18
ATOM     18  C   LIG    1       25.657 -19.992   4.224  0.00  0.00    +0.014 C 
BRANCH  18  19
ATOM     19  C   LIG    1       26.287 -20.374   5.568  0.00  0.00    -0.003 C 
ATOM     20  C   LIG    1       25.232 -20.846   6.560  0.00  0.00    +0.004 C 
ENDBRANCH  18  19
ENDBRANCH  14  18
ENDBRANCH  12  14
ENDBRANCH   1  12
TORSDOF 7
ENDMDL
MODEL 5
REMARK VINA RESULT:      -1.7      2.220      6.313
REMARK  Name = *****
REMARK                            x       y       z     vdW  Elec       q    Type
REMARK                         _______ _______ _______ _____ _____    ______ ____
ROOT
ATOM      1  O   LIG    1       25.473 -17.359   3.076  0.00  0.00    -0.461 OA
ENDROOT
BRANCH   1   2
ATOM      2  C   LIG    1       25.662 -18.680   3.632  0.00  0.00    +0.187 C 
ATOM      3  C   LIG    1       24.904 -19.660   2.712  0.00  0.00    +0.099 C 
ATOM      4  C   LIG    1       23.430 -19.883   3.105  0.00  0.00    +0.070 C 
ATOM      5  N   LIG    1       23.348 -20.363   4.569  0.00  0.00    +0.243 N 
ATOM      6  C   LIG    1       24.225 -21.571   4.897  0.00  0.00    +0.192 C 
ATOM      7  C   LIG    1       21.915 -20.810   4.940  0.00  0.00    +0.192 C 
ATOM      8  C   LIG    1       23.721 -19.052   5.288  0.00  0.00    +0.070 C 
ATOM      9  C   LIG    1       22.867 -18.002   4.556  0.00  0.00    +0.060 C 
ATOM     10  C   LIG    1       22.656 -18.557   3.143  0.00  0.00    +0.060 C 
ATOM     11  C   LIG    1       25.216 -18.754   5.104  0.00  0.00    +0.099 C 
ENDBRANCH   1   2
BRANCH   1  12
ATOM     12  C   LIG    1       26.428 -16.418   3.367  0.00  0.00    +0.310 C 
ATOM     13  O   LIG    1       27.549 -16.685   3.769  0.00  0.00    -0.251 OA
BRANCH  12  14
ATOM     14  C   LIG    1       25.902 -15.025   3.047  0.00  0.00    +0.098 C 
BRANCH  14  15
ATOM     15  C   LIG    1       24.849 -14.575   4.072  0.00  0.00    +0.014 C 
BRANCH  15  17
ATOM     16  C   LIG    1       24.019 -12.207   3.567  0.00  0.00    +0.004 C 
ATOM     17  C   LIG    1       23.726 -13.700   3.503  0.00  0.00    -0.003 C 
ENDBRANCH  15  17
ENDBRANCH  14  15
BRANCH  14  18
ATOM     18  C   LIG    1       27.098 -14.071   2.869  0.00  0.00    +0.014 C 
BRANCH  18  19
ATOM     19  C   LIG    1       27.577 -13.382   4.153  0.00  0.00    -0.003 C 
ATOM     20  C   LIG    1       28.921 -12.698   3.946  0.00  0.00    +0.004 C 
ENDBRANCH  18  19
ENDBRANCH  14  18
ENDBRANCH  12  14
ENDBRANCH   1  12
TORSDOF 7
ENDMDL
MODEL 6
REMARK VINA RESULT:      -1.6      1.283      2.223
REMARK  Name = *****
REMARK                            x       y       z     vdW  Elec       q    Type
REMARK                         _______ _______ _______ _____ _____    ______ ____
ROOT
ATOM      1  O   LIG    1       25.012 -16.395   4.093  0.00  0.00    -0.461 OA
ENDROOT
BRANCH   1   2
ATOM      2  C   LIG    1       24.828 -15.181   3.330  0.00  0.00    +0.187 C 
ATOM      3  C   LIG    1       26.028 -15.080   2.364  0.00  0.00    +0.099 C 
ATOM      4  C   LIG    1       27.246 -14.336   2.946  0.00  0.00    +0.070 C 
ATOM      5  N   LIG    1       26.823 -12.928   3.412  0.00  0.00    +0.243 N 
ATOM      6  C   LIG    1       26.087 -12.099   2.360  0.00  0.00    +0.192 C 
ATOM      7  C   LIG    1       28.048 -12.067   3.799  0.00  0.00    +0.192 C 
ATOM      8  C   LIG    1       26.001 -13.308   4.659  0.00  0.00    +0.070 C 
ATOM      9  C   LIG    1       26.899 -14.340   5.363  0.00  0.00    +0.060 C 
ATOM     10  C   LIG    1       27.728 -14.990   4.249  0.00  0.00    +0.060 C 
ATOM     11  C   LIG    1       24.670 -13.949   4.239  0.00  0.00    +0.099 C 
ENDBRANCH   1   2
BRANCH   1  12
ATOM     12  C   LIG    1       25.437 -17.504   3.406  0.00  0.00    +0.310 C 
ATOM     13  O   LIG    1       26.539 -17.608   2.891  0.00  0.00    -0.251 OA
BRANCH  12  14
ATOM     14  C   LIG    1       24.366 -18.586   3.450  0.00  0.00    +0.098 C 
BRANCH  14  15
ATOM     15  C   LIG    1       24.979 -19.969   3.723  0.00  0.00    +0.014 C 
BRANCH  15  17
ATOM     16  C   LIG    1       25.390 -20.746   6.127  0.00  0.00    +0.004 C 
ATOM     17  C   LIG    1       25.949 -20.023   4.910  0.00  0.00    -0.003 C 
ENDBRANCH  15  17
ENDBRANCH  14  15
BRANCH  14  18
ATOM     18  C   LIG    1       23.260 -18.152   4.430  0.00  0.00    +0.014 C 
BRANCH  18  19
ATOM     19  C   LIG    1       21.933 -18.907   4.290  0.00  0.00    -0.003 C 
ATOM     20  C   LIG    1       21.995 -20.266   4.973  0.00  0.00    +0.004 C 
ENDBRANCH  18  19
ENDBRANCH  14  18
ENDBRANCH  12  14
ENDBRANCH   1  12
TORSDOF 7
ENDMDL
MODEL 7
REMARK VINA RESULT:      -1.4      1.398      2.993
REMARK  Name = *****
REMARK                            x       y       z     vdW  Elec       q    Type
REMARK                         _______ _______ _______ _____ _____    ______ ____
ROOT
ATOM      1  O   LIG    1       25.477 -16.714   4.125  0.00  0.00    -0.461 OA
ENDROOT
BRANCH   1   2
ATOM      2  C   LIG    1       25.018 -15.581   3.352  0.00  0.00    +0.187 C 
ATOM      3  C   LIG    1       26.117 -15.282   2.311  0.00  0.00    +0.099 C 
ATOM      4  C   LIG    1       27.201 -14.301   2.801  0.00  0.00    +0.070 C 
ATOM      5  N   LIG    1       26.542 -12.986   3.265  0.00  0.00    +0.243 N 
ATOM      6  C   LIG    1       25.600 -12.346   2.246  0.00  0.00    +0.192 C 
ATOM      7  C   LIG    1       27.598 -11.894   3.558  0.00  0.00    +0.192 C 
ATOM      8  C   LIG    1       25.882 -13.478   4.569  0.00  0.00    +0.070 C 
ATOM      9  C   LIG    1       27.002 -14.297   5.234  0.00  0.00    +0.060 C 
ATOM     10  C   LIG    1       27.875 -14.810   4.083  0.00  0.00    +0.060 C 
ATOM     11  C   LIG    1       24.678 -14.375   4.246  0.00  0.00    +0.099 C 
ENDBRANCH   1   2
BRANCH   1  12
ATOM     12  C   LIG    1       25.447 -17.940   3.512  0.00  0.00    +0.310 C 
ATOM     13  O   LIG    1       26.073 -18.213   2.501  0.00  0.00    -0.251 OA
BRANCH  12  14
ATOM     14  C   LIG    1       24.583 -18.903   4.316  0.00  0.00    +0.098 C 
BRANCH  14  15
ATOM     15  C   LIG    1       23.274 -19.229   3.579  0.00  0.00    +0.014 C 
BRANCH  15  17
ATOM     16  C   LIG    1       22.118 -17.278   4.767  0.00  0.00    +0.004 C 
ATOM     17  C   LIG    1       22.003 -18.710   4.263  0.00  0.00    -0.003 C 
ENDBRANCH  15  17
ENDBRANCH  14  15
BRANCH  14  18
ATOM     18  C   LIG    1       25.436 -20.123   4.711  0.00  0.00    +0.014 C 
BRANCH  18  19
ATOM     19  C   LIG    1       24.672 -21.250   5.416  0.00  0.00    -0.003 C 
ATOM     20  C   LIG    1       24.176 -20.810   6.787  0.00  0.00    +0.004 C 
ENDBRANCH  18  19
ENDBRANCH  14  18
ENDBRANCH  12  14
ENDBRANCH   1  12
TORSDOF 7
ENDMDL
MODEL 8
REMARK VINA RESULT:      -1.4      2.196      6.016
REMARK  Name = *****
REMARK                            x       y       z     vdW  Elec       q    Type
REMARK                         _______ _______ _______ _____ _____    ______ ____
ROOT
ATOM      1  O   LIG    1       25.128 -16.986   3.636  0.00  0.00    -0.461 OA
ENDROOT
BRANCH   1   2
ATOM      2  C   LIG    1       25.297 -18.420   3.553  0.00  0.00    +0.187 C 
ATOM      3  C   LIG    1       24.244 -18.933   2.548  0.00  0.00    +0.099 C 
ATOM      4  C   LIG    1       22.887 -19.293   3.184  0.00  0.00    +0.070 C 
ATOM      5  N   LIG    1       23.097 -20.333   4.304  0.00  0.00    +0.243 N 
ATOM      6  C   LIG    1       23.890 -21.572   3.889  0.00  0.00    +0.192 C 
ATOM      7  C   LIG    1       21.750 -20.889   4.822  0.00  0.00    +0.192 C 
ATOM      8  C   LIG    1       23.766 -19.435   5.363  0.00  0.00    +0.070 C 
ATOM      9  C   LIG    1       22.884 -18.174   5.354  0.00  0.00    +0.060 C 
ATOM     10  C   LIG    1       22.291 -18.099   3.942  0.00  0.00    +0.060 C 
ATOM     11  C   LIG    1       25.200 -19.092   4.935  0.00  0.00    +0.099 C 
ENDBRANCH   1   2
BRANCH   1  12
ATOM     12  C   LIG    1       26.264 -16.221   3.585  0.00  0.00    +0.310 C 
ATOM     13  O   LIG    1       27.374 -16.662   3.333  0.00  0.00    -0.251 OA
BRANCH  12  14
ATOM     14  C   LIG    1       25.917 -14.756   3.817  0.00  0.00    +0.098 C 
BRANCH  14  15
ATOM     15  C   LIG    1       26.650 -13.843   2.821  0.00  0.00    +0.014 C 
BRANCH  15  17
ATOM     16  C   LIG    1       27.893 -13.085   4.926  0.00  0.00    +0.004 C 
ATOM     17  C   LIG    1       27.846 -13.080   3.405  0.00  0.00    -0.003 C 
ENDBRANCH  15  17
ENDBRANCH  14  15
BRANCH  14  18
ATOM     18  C   LIG    1       24.384 -14.606   3.840  0.00  0.00    +0.014 C 
BRANCH  18  19
ATOM     19  C   LIG    1       23.854 -13.264   3.325  0.00  0.00    -0.003 C 
ATOM     20  C   LIG    1       23.893 -12.198   4.412  0.00  0.00    +0.004 C 
ENDBRANCH  18  19
ENDBRANCH  14  18
ENDBRANCH  12  14
ENDBRANCH   1  12
TORSDOF 7
ENDMDL
MODEL 9
REMARK VINA RESULT:      -1.3      2.925      6.365
REMARK  Name = *****
REMARK                            x       y       z     vdW  Elec       q    Type
REMARK                         _______ _______ _______ _____ _____    ______ ____
ROOT
ATOM      1  O   LIG    1       25.814 -18.787   3.241  0.00  0.00    -0.461 OA
ENDROOT
BRANCH   1   2
ATOM      2  C   LIG    1       24.447 -19.234   3.094  0.00  0.00    +0.187 C 
ATOM      3  C   LIG    1       23.639 -18.568   4.228  0.00  0.00    +0.099 C 
ATOM      4  C   LIG    1       23.594 -19.383   5.535  0.00  0.00    +0.070 C 
ATOM      5  N   LIG    1       23.039 -20.794   5.251  0.00  0.00    +0.243 N 
ATOM      6  C   LIG    1       21.704 -20.819   4.506  0.00  0.00    +0.192 C 
ATOM      7  C   LIG    1       22.769 -21.572   6.559  0.00  0.00    +0.192 C 
ATOM      8  C   LIG    1       24.240 -21.392   4.491  0.00  0.00    +0.070 C 
ATOM      9  C   LIG    1       25.440 -20.972   5.358  0.00  0.00    +0.060 C 
ATOM     10  C   LIG    1       25.008 -19.678   6.057  0.00  0.00    +0.060 C 
ATOM     11  C   LIG    1       24.342 -20.770   3.091  0.00  0.00    +0.099 C 
ENDBRANCH   1   2
BRANCH   1  12
ATOM     12  C   LIG    1       26.012 -17.443   3.431  0.00  0.00    +0.310 C 
ATOM     13  O   LIG    1       25.141 -16.598   3.298  0.00  0.00    -0.251 OA
BRANCH  12  14
ATOM     14  C   LIG    1       27.441 -17.188   3.893  0.00  0.00    +0.098 C 
BRANCH  14  15
ATOM     15  C   LIG    1       27.601 -15.767   4.458  0.00  0.00    +0.014 C 
BRANCH  15  17
ATOM     16  C   LIG    1       28.125 -13.332   3.868  0.00  0.00    +0.004 C 
ATOM     17  C   LIG    1       27.495 -14.643   3.420  0.00  0.00    -0.003 C 
ENDBRANCH  15  17
ENDBRANCH  14  15
BRANCH  14  18
ATOM     18  C   LIG    1       27.868 -18.324   4.841  0.00  0.00    +0.014 C 
BRANCH  18  19
ATOM     19  C   LIG    1       29.303 -18.226   5.370  0.00  0.00    -0.003 C 
ATOM     20  C   LIG    1       29.475 -19.021   6.657  0.00  0.00    +0.004 C 
ENDBRANCH  18  19
ENDBRANCH  14  18
ENDBRANCH  12  14
ENDBRANCH   1  12
TORSDOF 7
ENDMDL
