MODEL 1
REMARK VINA RESULT:      -4.7      0.000      0.000
REMARK  Name = *****
REMARK                            x       y       z     vdW  Elec       q    Type
REMARK                         _______ _______ _______ _____ _____    ______ ____
ROOT
ATOM      1  C   LIG    1       23.656 -18.839   3.801  0.00  0.00    -0.020 C 
ATOM      2  C   LIG    1       24.231 -17.526   3.763  0.00  0.00    +0.006 C 
ATOM      3  C   LIG    1       23.279 -16.640   4.272  0.00  0.00    +0.047 C 
ATOM      4  C   LIG    1       23.501 -15.259   4.367  0.00  0.00    +0.030 C 
ATOM      5  C   LIG    1       24.728 -14.765   3.919  0.00  0.00    +0.047 C 
ATOM      6  C   LIG    1       25.688 -15.630   3.407  0.00  0.00    +0.118 C 
ATOM      7  N   LIG    1       22.178 -17.384   4.625  0.00  0.00    -0.360 NA
ATOM      8  H   LIG    1       21.331 -17.006   5.025  0.00  0.00    +0.165 HD
ATOM      9  C   LIG    1       25.466 -17.004   3.329  0.00  0.00    +0.055 C 
ATOM     10  C   LIG    1       22.392 -18.704   4.343  0.00  0.00    +0.087 C 
ENDROOT
BRANCH   6  11
ATOM     11  O   LIG    1       26.888 -15.163   2.953  0.00  0.00    -0.507 OA
ATOM     12  H   LIG    1       27.035 -14.276   3.321  0.00  0.00    +0.292 HD
ENDBRANCH   6  11
BRANCH   1  13
ATOM     13  C   LIG    1       24.279 -20.125   3.342  0.00  0.00    +0.067 C 
BRANCH  13  14
ATOM     14  CA  LIG    1       24.604 -21.116   4.472  0.00  0.00    +0.165 C 
BRANCH  14  15
ATOM     15  N   LIG    1       23.405 -21.571   5.250  0.00  0.00    -0.318 NA
ATOM     16  H1  LIG    1       23.490 -22.587   5.385  0.00  0.00    +0.119 HD
ATOM     17  H2  LIG    1       23.504 -21.201   6.201  0.00  0.00    +0.119 HD
ENDBRANCH  14  15
BRANCH  14  18
ATOM     18  C   LIG    1       25.638 -20.539   5.449  0.00  0.00    +0.322 C 
ATOM     19  O   LIG    1       25.485 -20.413   6.655  0.00  0.00    -0.249 OA
BRANCH  18  20
ATOM     20  OXT LIG    1       26.762 -20.132   4.799  0.00  0.00    -0.479 OA
ATOM     21  HXT LIG    1       26.989 -19.253   5.193  0.00  0.00    +0.295 HD
ENDBRANCH  18  20
ENDBRANCH  14  18
ENDBRANCH  13  14
ENDBRANCH   1  13
TORSDOF 6
ENDMDL
MODEL 2
REMARK VINA RESULT:      -4.6      1.884      5.208
REMARK  Name = *****
REMARK                            x       y       z     vdW  Elec       q    Type
REMARK                         _______ _______ _______ _____ _____    ______ ____
ROOT
ATOM      1  C   LIG    1       25.247 -18.706   3.765  0.00  0.00    -0.020 C 
ATOM      2  C   LIG    1       25.820 -19.592   4.736  0.00  0.00    +0.006 C 
ATOM      3  C   LIG    1       24.816 -20.475   5.138  0.00  0.00    +0.047 C 
ATOM      4  C   LIG    1       25.023 -21.474   6.098  0.00  0.00    +0.030 C 
ATOM      5  C   LIG    1       26.292 -21.570   6.675  0.00  0.00    +0.047 C 
ATOM      6  C   LIG    1       27.305 -20.700   6.289  0.00  0.00    +0.118 C 
ATOM      7  N   LIG    1       23.683 -20.154   4.428  0.00  0.00    -0.360 NA
ATOM      8  H   LIG    1       22.796 -20.630   4.512  0.00  0.00    +0.165 HD
ATOM      9  C   LIG    1       27.095 -19.717   5.322  0.00  0.00    +0.055 C 
ATOM     10  C   LIG    1       23.930 -19.092   3.603  0.00  0.00    +0.087 C 
ENDROOT
BRANCH   6  11
ATOM     11  O   LIG    1       28.548 -20.771   6.850  0.00  0.00    -0.507 OA
ATOM     12  H   LIG    1       28.612 -21.597   7.359  0.00  0.00    +0.292 HD
ENDBRANCH   6  11
BRANCH   1  13
ATOM     13  C   LIG    1       25.920 -17.569   3.052  0.00  0.00    +0.067 C 
BRANCH  13  14
ATOM     14  CA  LIG    1       25.835 -16.218   3.781  0.00  0.00    +0.165 C 
BRANCH  14  15
ATOM     15  N   LIG    1       24.459 -15.621   3.804  0.00  0.00    -0.318 NA
ATOM     16  H1  LIG    1       24.561 -14.603   3.702  0.00  0.00    +0.119 HD
ATOM     17  H2  LIG    1       23.995 -15.897   2.932  0.00  0.00    +0.119 HD
ENDBRANCH  14  15
BRANCH  14  18
ATOM     18  C   LIG    1       26.809 -15.193   3.183  0.00  0.00    +0.322 C 
ATOM     19  O   LIG    1       26.652 -14.592   2.131  0.00  0.00    -0.249 OA
BRANCH  18  20
ATOM     20  OXT LIG    1       27.919 -15.053   3.958  0.00  0.00    -0.479 OA
ATOM     21  HXT LIG    1       27.605 -15.176   4.889  0.00  0.00    +0.295 HD
ENDBRANCH  18  20
ENDBRANCH  14  18
ENDBRANCH  13  14
ENDBRANCH   1  13
TORSDOF 6
ENDMDL
MODEL 3
REMARK VINA RESULT:      -4.6      3.171      4.524
REMARK  Name = *****
REMARK                            x       y       z     vdW  Elec       q    Type
REMARK                         _______ _______ _______ _____ _____    ______ ____
ROOT
ATOM      1  C   LIG    1       25.622 -19.577   4.168  0.00  0.00    -0.020 C 
ATOM      2  C   LIG    1       26.885 -19.495   4.842  0.00  0.00    +0.006 C 
ATOM      3  C   LIG    1       27.502 -18.313   4.427  0.00  0.00    +0.047 C 
ATOM      4  C   LIG    1       28.769 -17.919   4.879  0.00  0.00    +0.030 C 
ATOM      5  C   LIG    1       29.433 -18.763   5.774  0.00  0.00    +0.047 C 
ATOM      6  C   LIG    1       28.836 -19.944   6.197  0.00  0.00    +0.118 C 
ATOM      7  N   LIG    1       26.643 -17.690   3.553  0.00  0.00    -0.360 NA
ATOM      8  H   LIG    1       26.827 -16.809   3.093  0.00  0.00    +0.165 HD
ATOM      9  C   LIG    1       27.569 -20.323   5.755  0.00  0.00    +0.055 C 
ATOM     10  C   LIG    1       25.513 -18.442   3.388  0.00  0.00    +0.087 C 
ENDROOT
BRANCH   6  11
ATOM     11  O   LIG    1       29.475 -20.787   7.061  0.00  0.00    -0.507 OA
ATOM     12  H   LIG    1       30.292 -21.102   6.640  0.00  0.00    +0.292 HD
ENDBRANCH   6  11
BRANCH   1  13
ATOM     13  C   LIG    1       24.600 -20.672   4.266  0.00  0.00    +0.067 C 
BRANCH  13  14
ATOM     14  CA  LIG    1       23.545 -20.465   5.365  0.00  0.00    +0.165 C 
BRANCH  14  15
ATOM     15  N   LIG    1       23.540 -21.535   6.418  0.00  0.00    -0.318 NA
ATOM     16  H1  LIG    1       24.444 -22.022   6.369  0.00  0.00    +0.119 HD
ATOM     17  H2  LIG    1       23.576 -21.063   7.327  0.00  0.00    +0.119 HD
ENDBRANCH  14  15
BRANCH  14  18
ATOM     18  C   LIG    1       22.132 -20.346   4.776  0.00  0.00    +0.322 C 
ATOM     19  O   LIG    1       21.605 -19.311   4.397  0.00  0.00    -0.249 OA
BRANCH  18  20
ATOM     20  OXT LIG    1       21.499 -21.550   4.759  0.00  0.00    -0.479 OA
ATOM     21  HXT LIG    1       21.064 -21.604   3.871  0.00  0.00    +0.295 HD
ENDBRANCH  18  20
ENDBRANCH  14  18
ENDBRANCH  13  14
ENDBRANCH   1  13
TORSDOF 6
ENDMDL
MODEL 4
REMARK VINA RESULT:      -4.6      2.761      6.054
REMARK  Name = *****
REMARK                            x       y       z     vdW  Elec       q    Type
REMARK                         _______ _______ _______ _____ _____    ______ ____
ROOT
ATOM      1  C   LIG    1       24.811 -16.297   3.714  0.00  0.00    -0.020 C 
ATOM      2  C   LIG    1       24.295 -17.624   3.888  0.00  0.00    +0.006 C 
ATOM      3  C   LIG    1       25.303 -18.516   3.518  0.00  0.00    +0.047 C 
ATOM      4  C   LIG    1       25.135 -19.907   3.549  0.00  0.00    +0.030 C 
ATOM      5  C   LIG    1       23.896 -20.404   3.960  0.00  0.00    +0.047 C 
ATOM      6  C   LIG    1       22.878 -19.533   4.329  0.00  0.00    +0.118 C 
ATOM      7  N   LIG    1       26.397 -17.766   3.154  0.00  0.00    -0.360 NA
ATOM      8  H   LIG    1       27.278 -18.147   2.842  0.00  0.00    +0.165 HD
ATOM      9  C   LIG    1       23.057 -18.150   4.310  0.00  0.00    +0.055 C 
ATOM     10  C   LIG    1       26.111 -16.433   3.265  0.00  0.00    +0.087 C 
ENDROOT
BRANCH   6  11
ATOM     11  O   LIG    1       21.656 -20.001   4.721  0.00  0.00    -0.507 OA
ATOM     12  H   LIG    1       21.581 -20.932   4.454  0.00  0.00    +0.292 HD
ENDBRANCH   6  11
BRANCH   1  13
ATOM     13  C   LIG    1       24.101 -14.998   3.958  0.00  0.00    +0.067 C 
BRANCH  13  14
ATOM     14  CA  LIG    1       24.959 -13.745   3.714  0.00  0.00    +0.165 C 
BRANCH  14  15
ATOM     15  N   LIG    1       25.692 -13.260   4.930  0.00  0.00    -0.318 NA
ATOM     16  H1  LIG    1       25.865 -12.254   4.807  0.00  0.00    +0.119 HD
ATOM     17  H2  LIG    1       25.031 -13.290   5.713  0.00  0.00    +0.119 HD
ENDBRANCH  14  15
BRANCH  14  18
ATOM     18  C   LIG    1       24.121 -12.589   3.148  0.00  0.00    +0.322 C 
ATOM     19  O   LIG    1       23.659 -11.663   3.796  0.00  0.00    -0.249 OA
BRANCH  18  20
ATOM     20  OXT LIG    1       23.910 -12.738   1.812  0.00  0.00    -0.479 OA
ATOM     21  HXT LIG    1       24.772 -13.061   1.446  0.00  0.00    +0.295 HD
ENDBRANCH  18  20
ENDBRANCH  14  18
ENDBRANCH  13  14
ENDBRANCH   1  13
TORSDOF 6
ENDMDL
MODEL 5
REMARK VINA RESULT:      -4.4      2.499      5.583
REMARK  Name = *****
REMARK                            x       y       z     vdW  Elec       q    Type
REMARK                         _______ _______ _______ _____ _____    ______ ____
ROOT
ATOM      1  C   LIG    1       25.922 -18.276   3.803  0.00  0.00    -0.020 C 
ATOM      2  C   LIG    1       25.004 -19.271   4.274  0.00  0.00    +0.006 C 
ATOM      3  C   LIG    1       25.749 -20.240   4.948  0.00  0.00    +0.047 C 
ATOM      4  C   LIG    1       25.171 -21.377   5.528  0.00  0.00    +0.030 C 
ATOM      5  C   LIG    1       23.788 -21.537   5.408  0.00  0.00    +0.047 C 
ATOM      6  C   LIG    1       23.028 -20.585   4.739  0.00  0.00    +0.118 C 
ATOM      7  N   LIG    1       27.065 -19.842   4.908  0.00  0.00    -0.360 NA
ATOM      8  H   LIG    1       27.834 -20.351   5.320  0.00  0.00    +0.165 HD
ATOM      9  C   LIG    1       23.609 -19.448   4.176  0.00  0.00    +0.055 C 
ATOM     10  C   LIG    1       27.180 -18.666   4.220  0.00  0.00    +0.087 C 
ENDROOT
BRANCH   6  11
ATOM     11  O   LIG    1       21.677 -20.730   4.601  0.00  0.00    -0.507 OA
ATOM     12  H   LIG    1       21.389 -20.224   3.823  0.00  0.00    +0.292 HD
ENDBRANCH   6  11
BRANCH   1  13
ATOM     13  C   LIG    1       25.607 -17.044   3.005  0.00  0.00    +0.067 C 
BRANCH  13  14
ATOM     14  CA  LIG    1       25.827 -15.721   3.758  0.00  0.00    +0.165 C 
BRANCH  14  15
ATOM     15  N   LIG    1       24.578 -14.913   3.953  0.00  0.00    -0.318 NA
ATOM     16  H1  LIG    1       24.039 -14.960   3.078  0.00  0.00    +0.119 HD
ATOM     17  H2  LIG    1       23.989 -15.424   4.618  0.00  0.00    +0.119 HD
ENDBRANCH  14  15
BRANCH  14  18
ATOM     18  C   LIG    1       26.880 -14.845   3.064  0.00  0.00    +0.322 C 
ATOM     19  O   LIG    1       26.780 -14.365   1.945  0.00  0.00    -0.249 OA
BRANCH  18  20
ATOM     20  OXT LIG    1       27.987 -14.692   3.840  0.00  0.00    -0.479 OA
ATOM     21  HXT LIG    1       28.428 -15.578   3.844  0.00  0.00    +0.295 HD
ENDBRANCH  18  20
ENDBRANCH  14  18
ENDBRANCH  13  14
ENDBRANCH   1  13
TORSDOF 6
ENDMDL
MODEL 6
REMARK VINA RESULT:      -4.4      2.323      3.049
REMARK  Name = *****
REMARK                            x       y       z     vdW  Elec       q    Type
REMARK                         _______ _______ _______ _____ _____    ______ ____
ROOT
ATOM      1  C   LIG    1       24.897 -17.645   3.652  0.00  0.00    -0.020 C 
ATOM      2  C   LIG    1       25.037 -16.219   3.706  0.00  0.00    +0.006 C 
ATOM      3  C   LIG    1       26.374 -15.920   3.437  0.00  0.00    +0.047 C 
ATOM      4  C   LIG    1       26.872 -14.610   3.424  0.00  0.00    +0.030 C 
ATOM      5  C   LIG    1       25.980 -13.572   3.705  0.00  0.00    +0.047 C 
ATOM      6  C   LIG    1       24.646 -13.848   3.977  0.00  0.00    +0.118 C 
ATOM      7  N   LIG    1       27.019 -17.112   3.207  0.00  0.00    -0.360 NA
ATOM      8  H   LIG    1       28.001 -17.203   2.985  0.00  0.00    +0.165 HD
ATOM      9  C   LIG    1       24.154 -15.153   3.974  0.00  0.00    +0.055 C 
ATOM     10  C   LIG    1       26.143 -18.154   3.337  0.00  0.00    +0.087 C 
ENDROOT
BRANCH   6  11
ATOM     11  O   LIG    1       23.762 -12.847   4.266  0.00  0.00    -0.507 OA
ATOM     12  H   LIG    1       22.862 -13.170   4.094  0.00  0.00    +0.292 HD
ENDBRANCH   6  11
BRANCH   1  13
ATOM     13  C   LIG    1       23.656 -18.454   3.891  0.00  0.00    +0.067 C 
BRANCH  13  14
ATOM     14  CA  LIG    1       23.914 -19.906   4.326  0.00  0.00    +0.165 C 
BRANCH  14  15
ATOM     15  N   LIG    1       23.924 -20.891   3.195  0.00  0.00    -0.318 NA
ATOM     16  H1  LIG    1       24.011 -21.831   3.603  0.00  0.00    +0.119 HD
ATOM     17  H2  LIG    1       22.981 -20.898   2.792  0.00  0.00    +0.119 HD
ENDBRANCH  14  15
BRANCH  14  18
ATOM     18  C   LIG    1       22.895 -20.369   5.377  0.00  0.00    +0.322 C 
ATOM     19  O   LIG    1       22.952 -20.137   6.574  0.00  0.00    -0.249 OA
BRANCH  18  20
ATOM     20  OXT LIG    1       21.913 -21.125   4.814  0.00  0.00    -0.479 OA
ATOM     21  HXT LIG    1       22.220 -22.062   4.903  0.00  0.00    +0.295 HD
ENDBRANCH  18  20
ENDBRANCH  14  18
ENDBRANCH  13  14
ENDBRANCH   1  13
TORSDOF 6
ENDMDL
MODEL 7
REMARK VINA RESULT:      -4.4      2.653      5.622
REMARK  Name = *****
REMARK                            x       y       z     vdW  Elec       q    Type
REMARK                         _______ _______ _______ _____ _____    ______ ____
ROOT
ATOM      1  C   LIG    1       25.253 -14.753   3.770  0.00  0.00    -0.020 C 
ATOM      2  C   LIG    1       24.928 -16.149   3.719  0.00  0.00    +0.006 C 
ATOM      3  C   LIG    1       23.597 -16.282   4.119  0.00  0.00    +0.047 C 
ATOM      4  C   LIG    1       22.949 -17.522   4.202  0.00  0.00    +0.030 C 
ATOM      5  C   LIG    1       23.685 -18.664   3.877  0.00  0.00    +0.047 C 
ATOM      6  C   LIG    1       25.012 -18.553   3.479  0.00  0.00    +0.118 C 
ATOM      7  N   LIG    1       23.123 -15.019   4.383  0.00  0.00    -0.360 NA
ATOM      8  H   LIG    1       22.184 -14.808   4.691  0.00  0.00    +0.165 HD
ATOM      9  C   LIG    1       25.646 -17.315   3.385  0.00  0.00    +0.055 C 
ATOM     10  C   LIG    1       24.110 -14.094   4.180  0.00  0.00    +0.087 C 
ENDROOT
BRANCH   6  11
ATOM     11  O   LIG    1       25.751 -19.660   3.170  0.00  0.00    -0.507 OA
ATOM     12  H   LIG    1       25.405 -20.414   3.675  0.00  0.00    +0.292 HD
ENDBRANCH   6  11
BRANCH   1  13
ATOM     13  C   LIG    1       26.570 -14.107   3.453  0.00  0.00    +0.067 C 
BRANCH  13  14
ATOM     14  CA  LIG    1       27.478 -13.875   4.672  0.00  0.00    +0.165 C 
BRANCH  14  15
ATOM     15  N   LIG    1       26.766 -13.317   5.869  0.00  0.00    -0.318 NA
ATOM     16  H1  LIG    1       25.758 -13.465   5.727  0.00  0.00    +0.119 HD
ATOM     17  H2  LIG    1       26.983 -13.928   6.662  0.00  0.00    +0.119 HD
ENDBRANCH  14  15
BRANCH  14  18
ATOM     18  C   LIG    1       28.661 -12.958   4.328  0.00  0.00    +0.322 C 
ATOM     19  O   LIG    1       29.385 -13.067   3.350  0.00  0.00    -0.249 OA
BRANCH  18  20
ATOM     20  OXT LIG    1       28.844 -12.006   5.283  0.00  0.00    -0.479 OA
ATOM     21  HXT LIG    1       29.276 -12.475   6.040  0.00  0.00    +0.295 HD
ENDBRANCH  18  20
ENDBRANCH  14  18
ENDBRANCH  13  14
ENDBRANCH   1  13
TORSDOF 6
ENDMDL
MODEL 8
REMARK VINA RESULT:      -4.1      1.834      2.197
REMARK  Name = *****
REMARK                            x       y       z     vdW  Elec       q    Type
REMARK                         _______ _______ _______ _____ _____    ______ ____
ROOT
ATOM      1  C   LIG    1       24.373 -17.157   3.720  0.00  0.00    -0.020 C 
ATOM      2  C   LIG    1       25.052 -15.894   3.684  0.00  0.00    +0.006 C 
ATOM      3  C   LIG    1       24.151 -14.924   4.129  0.00  0.00    +0.047 C 
ATOM      4  C   LIG    1       24.478 -13.564   4.207  0.00  0.00    +0.030 C 
ATOM      5  C   LIG    1       25.761 -13.178   3.810  0.00  0.00    +0.047 C 
ATOM      6  C   LIG    1       26.671 -14.128   3.362  0.00  0.00    +0.118 C 
ATOM      7  N   LIG    1       22.979 -15.570   4.443  0.00  0.00    -0.360 NA
ATOM      8  H   LIG    1       22.147 -15.117   4.793  0.00  0.00    +0.165 HD
ATOM      9  C   LIG    1       26.344 -15.482   3.300  0.00  0.00    +0.055 C 
ATOM     10  C   LIG    1       23.100 -16.910   4.198  0.00  0.00    +0.087 C 
ENDROOT
BRANCH   6  11
ATOM     11  O   LIG    1       27.925 -13.768   2.958  0.00  0.00    -0.507 OA
ATOM     12  H   LIG    1       28.382 -13.345   3.704  0.00  0.00    +0.292 HD
ENDBRANCH   6  11
BRANCH   1  13
ATOM     13  C   LIG    1       24.912 -18.499   3.317  0.00  0.00    +0.067 C 
BRANCH  13  14
ATOM     14  CA  LIG    1       24.942 -19.541   4.448  0.00  0.00    +0.165 C 
BRANCH  14  15
ATOM     15  N   LIG    1       26.165 -20.409   4.447  0.00  0.00    -0.318 NA
ATOM     16  H1  LIG    1       26.430 -20.570   3.466  0.00  0.00    +0.119 HD
ATOM     17  H2  LIG    1       26.938 -19.842   4.809  0.00  0.00    +0.119 HD
ENDBRANCH  14  15
BRANCH  14  18
ATOM     18  C   LIG    1       23.697 -20.439   4.420  0.00  0.00    +0.322 C 
ATOM     19  O   LIG    1       22.642 -20.212   4.992  0.00  0.00    -0.249 OA
BRANCH  18  20
ATOM     20  OXT LIG    1       23.920 -21.571   3.698  0.00  0.00    -0.479 OA
ATOM     21  HXT LIG    1       24.556 -22.104   4.238  0.00  0.00    +0.295 HD
ENDBRANCH  18  20
ENDBRANCH  14  18
ENDBRANCH  13  14
ENDBRANCH   1  13
TORSDOF 6
ENDMDL
MODEL 9
REMARK VINA RESULT:      -3.9      2.801      5.721
REMARK  Name = *****
REMARK                            x       y       z     vdW  Elec       q    Type
REMARK                         _______ _______ _______ _____ _____    ______ ____
ROOT
ATOM      1  C   LIG    1       25.383 -16.026   3.635  0.00  0.00    -0.020 C 
ATOM      2  C   LIG    1       24.589 -17.211   3.777  0.00  0.00    +0.006 C 
ATOM      3  C   LIG    1       25.425 -18.304   3.541  0.00  0.00    +0.047 C 
ATOM      4  C   LIG    1       24.973 -19.630   3.582  0.00  0.00    +0.030 C 
ATOM      5  C   LIG    1       23.621 -19.848   3.862  0.00  0.00    +0.047 C 
ATOM      6  C   LIG    1       22.772 -18.774   4.097  0.00  0.00    +0.118 C 
ATOM      7  N   LIG    1       26.682 -17.807   3.286  0.00  0.00    -0.360 NA
ATOM      8  H   LIG    1       27.494 -18.372   3.082  0.00  0.00    +0.165 HD
ATOM      9  C   LIG    1       23.232 -17.458   4.070  0.00  0.00    +0.055 C 
ATOM     10  C   LIG    1       26.667 -16.441   3.337  0.00  0.00    +0.087 C 
ENDROOT
BRANCH   6  11
ATOM     11  O   LIG    1       21.446 -18.968   4.360  0.00  0.00    -0.507 OA
ATOM     12  H   LIG    1       20.996 -18.106   4.337  0.00  0.00    +0.292 HD
ENDBRANCH   6  11
BRANCH   1  13
ATOM     13  C   LIG    1       24.933 -14.600   3.771  0.00  0.00    +0.067 C 
BRANCH  13  14
ATOM     14  CA  LIG    1       25.957 -13.559   3.291  0.00  0.00    +0.165 C 
BRANCH  14  15
ATOM     15  N   LIG    1       26.541 -13.853   1.940  0.00  0.00    -0.318 NA
ATOM     16  H1  LIG    1       25.767 -14.124   1.320  0.00  0.00    +0.119 HD
ATOM     17  H2  LIG    1       26.854 -12.960   1.546  0.00  0.00    +0.119 HD
ENDBRANCH  14  15
BRANCH  14  18
ATOM     18  C   LIG    1       27.104 -13.388   4.298  0.00  0.00    +0.322 C 
ATOM     19  O   LIG    1       28.294 -13.380   4.026  0.00  0.00    -0.249 OA
BRANCH  18  20
ATOM     20  OXT LIG    1       26.633 -13.284   5.571  0.00  0.00    -0.479 OA
ATOM     21  HXT LIG    1       26.144 -14.129   5.738  0.00  0.00    +0.295 HD
ENDBRANCH  18  20
ENDBRANCH  14  18
ENDBRANCH  13  14
ENDBRANCH   1  13
TORSDOF 6
ENDMDL
