MODEL 1
REMARK VINA RESULT:      -8.3      0.000      0.000
REMARK  Name = *****
REMARK                            x       y       z     vdW  Elec       q    Type
REMARK                         _______ _______ _______ _____ _____    ______ ____
ROOT
ATOM      1  C   LIG    1       23.593 -21.982   6.747  0.00  0.00    +0.165 C 
ATOM      2  C   LIG    1       23.900 -23.345   6.174  0.00  0.00    +0.013 A 
ATOM      3  C   LIG    1       24.566 -23.418   4.945  0.00  0.00    +0.133 A 
ATOM      4  C   LIG    1       25.028 -24.641   4.465  0.00  0.00    +0.046 A 
ATOM      5  C   LIG    1       24.763 -25.810   5.179  0.00  0.00    +0.004 A 
ATOM      6  C   LIG    1       24.028 -25.755   6.363  0.00  0.00    +0.001 A 
ATOM      7  O   LIG    1       24.796 -22.312   4.159  0.00  0.00    -0.455 OA
ATOM      8  C   LIG    1       24.048 -21.184   4.416  0.00  0.00    +0.133 A 
ATOM      9  C   LIG    1       23.954 -20.239   3.396  0.00  0.00    +0.046 A 
ATOM     10  C   LIG    1       23.237 -19.061   3.605  0.00  0.00    +0.004 A 
ATOM     11  C   LIG    1       22.627 -18.820   4.836  0.00  0.00    +0.001 A 
ATOM     12  C   LIG    1       22.720 -19.765   5.860  0.00  0.00    +0.008 A 
ATOM     13  C   LIG    1       23.603 -24.525   6.868  0.00  0.00    +0.008 A 
ATOM     14  C   LIG    1       23.424 -20.959   5.649  0.00  0.00    +0.013 A 
ENDROOT
BRANCH   1  15
ATOM     15  C   LIG    1       24.703 -21.541   7.689  0.00  0.00    +0.319 C 
ATOM     16  O   LIG    1       24.611 -20.596   8.488  0.00  0.00    -0.250 OA
BRANCH  15  17
ATOM     17  O   LIG    1       25.842 -22.291   7.570  0.00  0.00    -0.459 OA
BRANCH  17  18
ATOM     18  C   LIG    1       26.939 -21.838   8.353  0.00  0.00    +0.282 C 
BRANCH  18  19
ATOM     19  C   LIG    1       28.296 -21.808   7.644  0.00  0.00    +0.175 C 
BRANCH  19  20
ATOM     20  N   LIG    1       29.051 -20.437   7.448  0.00  0.00    +0.247 N 
ATOM     21  C   LIG    1       28.281 -19.459   8.393  0.00  0.00    +0.193 C 
BRANCH  20  23
ATOM     22  C   LIG    1       27.513 -19.814   5.398  0.00  0.00    +0.063 C 
ATOM     23  C   LIG    1       28.927 -19.838   5.979  0.00  0.00    +0.060 C 
ATOM     24  C   LIG    1       29.547 -18.431   5.859  0.00  0.00    +0.063 C 
ENDBRANCH  20  23
BRANCH  20  25
ATOM     25  C   LIG    1       30.577 -20.545   7.944  0.00  0.00    +0.060 C 
ATOM     26  C   LIG    1       30.831 -21.789   8.814  0.00  0.00    +0.063 C 
ATOM     27  C   LIG    1       31.060 -19.310   8.726  0.00  0.00    +0.063 C 
ENDBRANCH  20  25
ENDBRANCH  19  20
ENDBRANCH  18  19
ENDBRANCH  17  18
ENDBRANCH  15  17
ENDBRANCH   1  15
TORSDOF 7
ENDMDL
MODEL 2
REMARK VINA RESULT:      -8.2      1.468      4.396
REMARK  Name = *****
REMARK                            x       y       z     vdW  Elec       q    Type
REMARK                         _______ _______ _______ _____ _____    ______ ____
ROOT
ATOM      1  C   LIG    1       25.521 -21.365   5.318  0.00  0.00    +0.165 C 
ATOM      2  C   LIG    1       24.505 -20.357   4.835  0.00  0.00    +0.013 A 
ATOM      3  C   LIG    1       23.218 -20.391   5.385  0.00  0.00    +0.133 A 
ATOM      4  C   LIG    1       22.305 -19.376   5.107  0.00  0.00    +0.046 A 
ATOM      5  C   LIG    1       22.651 -18.358   4.218  0.00  0.00    +0.004 A 
ATOM      6  C   LIG    1       23.903 -18.363   3.601  0.00  0.00    +0.001 A 
ATOM      7  O   LIG    1       22.791 -21.405   6.213  0.00  0.00    -0.455 OA
ATOM      8  C   LIG    1       23.516 -22.576   6.207  0.00  0.00    +0.133 A 
ATOM      9  C   LIG    1       22.876 -23.720   6.682  0.00  0.00    +0.046 A 
ATOM     10  C   LIG    1       23.566 -24.931   6.732  0.00  0.00    +0.004 A 
ATOM     11  C   LIG    1       24.898 -24.996   6.321  0.00  0.00    +0.001 A 
ATOM     12  C   LIG    1       25.541 -23.853   5.844  0.00  0.00    +0.008 A 
ATOM     13  C   LIG    1       24.834 -19.355   3.913  0.00  0.00    +0.008 A 
ATOM     14  C   LIG    1       24.846 -22.636   5.776  0.00  0.00    +0.013 A 
ENDROOT
BRANCH   1  15
ATOM     15  C   LIG    1       26.343 -20.785   6.457  0.00  0.00    +0.319 C 
ATOM     16  O   LIG    1       25.866 -20.359   7.521  0.00  0.00    -0.250 OA
BRANCH  15  17
ATOM     17  O   LIG    1       27.688 -20.767   6.198  0.00  0.00    -0.459 OA
BRANCH  17  18
ATOM     18  C   LIG    1       28.307 -19.495   6.348  0.00  0.00    +0.282 C 
BRANCH  18  19
ATOM     19  C   LIG    1       28.904 -19.204   7.727  0.00  0.00    +0.175 C 
BRANCH  19  20
ATOM     20  N   LIG    1       30.399 -19.599   8.037  0.00  0.00    +0.247 N 
ATOM     21  C   LIG    1       31.140 -19.300   6.695  0.00  0.00    +0.193 C 
BRANCH  20  23
ATOM     22  C   LIG    1       31.586 -21.475   9.461  0.00  0.00    +0.063 C 
ATOM     23  C   LIG    1       30.607 -21.149   8.333  0.00  0.00    +0.060 C 
ATOM     24  C   LIG    1       29.276 -21.887   8.589  0.00  0.00    +0.063 C 
ENDBRANCH  20  23
BRANCH  20  25
ATOM     25  C   LIG    1       31.014 -18.663   9.191  0.00  0.00    +0.060 C 
ATOM     26  C   LIG    1       29.956 -17.759   9.849  0.00  0.00    +0.063 C 
ATOM     27  C   LIG    1       32.170 -17.768   8.707  0.00  0.00    +0.063 C 
ENDBRANCH  20  25
ENDBRANCH  19  20
ENDBRANCH  18  19
ENDBRANCH  17  18
ENDBRANCH  15  17
ENDBRANCH   1  15
TORSDOF 7
ENDMDL
MODEL 3
REMARK VINA RESULT:      -8.2      0.586      2.035
REMARK  Name = *****
REMARK                            x       y       z     vdW  Elec       q    Type
REMARK                         _______ _______ _______ _____ _____    ______ ____
ROOT
ATOM      1  C   LIG    1       23.451 -21.845   6.680  0.00  0.00    +0.165 C 
ATOM      2  C   LIG    1       23.808 -23.212   6.147  0.00  0.00    +0.013 A 
ATOM      3  C   LIG    1       24.553 -23.294   4.965  0.00  0.00    +0.133 A 
ATOM      4  C   LIG    1       25.057 -24.518   4.532  0.00  0.00    +0.046 A 
ATOM      5  C   LIG    1       24.759 -25.680   5.244  0.00  0.00    +0.004 A 
ATOM      6  C   LIG    1       23.948 -25.618   6.377  0.00  0.00    +0.001 A 
ATOM      7  O   LIG    1       24.822 -22.196   4.179  0.00  0.00    -0.455 OA
ATOM      8  C   LIG    1       24.047 -21.073   4.372  0.00  0.00    +0.133 A 
ATOM      9  C   LIG    1       24.010 -20.143   3.335  0.00  0.00    +0.046 A 
ATOM     10  C   LIG    1       23.269 -18.970   3.480  0.00  0.00    +0.004 A 
ATOM     11  C   LIG    1       22.578 -18.720   4.666  0.00  0.00    +0.001 A 
ATOM     12  C   LIG    1       22.614 -19.649   5.707  0.00  0.00    +0.008 A 
ATOM     13  C   LIG    1       23.478 -24.386   6.836  0.00  0.00    +0.008 A 
ATOM     14  C   LIG    1       23.343 -20.839   5.558  0.00  0.00    +0.013 A 
ENDROOT
BRANCH   1  15
ATOM     15  C   LIG    1       24.493 -21.379   7.685  0.00  0.00    +0.319 C 
ATOM     16  O   LIG    1       24.253 -20.639   8.652  0.00  0.00    -0.250 OA
BRANCH  15  17
ATOM     17  O   LIG    1       25.750 -21.853   7.418  0.00  0.00    -0.459 OA
BRANCH  17  18
ATOM     18  C   LIG    1       26.744 -21.471   8.361  0.00  0.00    +0.282 C 
BRANCH  18  19
ATOM     19  C   LIG    1       27.489 -20.170   8.052  0.00  0.00    +0.175 C 
BRANCH  19  20
ATOM     20  N   LIG    1       28.869 -20.216   7.290  0.00  0.00    +0.247 N 
ATOM     21  C   LIG    1       29.257 -21.729   7.331  0.00  0.00    +0.193 C 
BRANCH  20  23
ATOM     22  C   LIG    1       29.585 -18.392   9.055  0.00  0.00    +0.063 C 
ATOM     23  C   LIG    1       30.039 -19.428   8.027  0.00  0.00    +0.060 C 
ATOM     24  C   LIG    1       31.067 -20.374   8.682  0.00  0.00    +0.063 C 
ENDBRANCH  20  23
BRANCH  20  25
ATOM     25  C   LIG    1       28.694 -19.766   5.755  0.00  0.00    +0.060 C 
ATOM     26  C   LIG    1       29.333 -18.397   5.463  0.00  0.00    +0.063 C 
ATOM     27  C   LIG    1       27.227 -19.717   5.291  0.00  0.00    +0.063 C 
ENDBRANCH  20  25
ENDBRANCH  19  20
ENDBRANCH  18  19
ENDBRANCH  17  18
ENDBRANCH  15  17
ENDBRANCH   1  15
TORSDOF 7
ENDMDL
MODEL 4
REMARK VINA RESULT:      -8.1      2.465      6.508
REMARK  Name = *****
REMARK                            x       y       z     vdW  Elec       q    Type
REMARK                         _______ _______ _______ _____ _____    ______ ____
ROOT
ATOM      1  C   LIG    1       24.704 -21.351   6.501  0.00  0.00    +0.165 C 
ATOM      2  C   LIG    1       24.087 -20.306   5.603  0.00  0.00    +0.013 A 
ATOM      3  C   LIG    1       24.903 -19.669   4.661  0.00  0.00    +0.133 A 
ATOM      4  C   LIG    1       24.346 -18.834   3.695  0.00  0.00    +0.046 A 
ATOM      5  C   LIG    1       22.975 -18.575   3.710  0.00  0.00    +0.004 A 
ATOM      6  C   LIG    1       22.168 -19.141   4.698  0.00  0.00    +0.001 A 
ATOM      7  O   LIG    1       26.270 -19.826   4.636  0.00  0.00    -0.455 OA
ATOM      8  C   LIG    1       26.871 -20.328   5.770  0.00  0.00    +0.133 A 
ATOM      9  C   LIG    1       28.237 -20.092   5.920  0.00  0.00    +0.046 A 
ATOM     10  C   LIG    1       28.911 -20.601   7.030  0.00  0.00    +0.004 A 
ATOM     11  C   LIG    1       28.225 -21.357   7.981  0.00  0.00    +0.001 A 
ATOM     12  C   LIG    1       26.858 -21.595   7.832  0.00  0.00    +0.008 A 
ATOM     13  C   LIG    1       22.718 -20.013   5.639  0.00  0.00    +0.008 A 
ATOM     14  C   LIG    1       26.172 -21.070   6.727  0.00  0.00    +0.013 A 
ENDROOT
BRANCH   1  15
ATOM     15  C   LIG    1       24.537 -22.736   5.897  0.00  0.00    +0.319 C 
ATOM     16  O   LIG    1       24.732 -23.009   4.703  0.00  0.00    -0.250 OA
BRANCH  15  17
ATOM     17  O   LIG    1       24.135 -23.677   6.808  0.00  0.00    -0.459 OA
BRANCH  17  18
ATOM     18  C   LIG    1       24.972 -24.824   6.889  0.00  0.00    +0.282 C 
BRANCH  18  19
ATOM     19  C   LIG    1       24.326 -26.150   6.479  0.00  0.00    +0.175 C 
BRANCH  19  20
ATOM     20  N   LIG    1       25.218 -27.439   6.305  0.00  0.00    +0.247 N 
ATOM     21  C   LIG    1       26.179 -27.385   7.536  0.00  0.00    +0.193 C 
BRANCH  20  23
ATOM     22  C   LIG    1       25.646 -26.521   3.870  0.00  0.00    +0.063 C 
ATOM     23  C   LIG    1       26.140 -27.413   5.008  0.00  0.00    +0.060 C 
ATOM     24  C   LIG    1       27.606 -27.056   5.332  0.00  0.00    +0.063 C 
ENDBRANCH  20  23
BRANCH  20  25
ATOM     25  C   LIG    1       24.325 -28.773   6.401  0.00  0.00    +0.060 C 
ATOM     26  C   LIG    1       24.328 -29.388   7.813  0.00  0.00    +0.063 C 
ATOM     27  C   LIG    1       24.744 -29.868   5.404  0.00  0.00    +0.063 C 
ENDBRANCH  20  25
ENDBRANCH  19  20
ENDBRANCH  18  19
ENDBRANCH  17  18
ENDBRANCH  15  17
ENDBRANCH   1  15
TORSDOF 7
ENDMDL
MODEL 5
REMARK VINA RESULT:      -7.9      1.318      4.257
REMARK  Name = *****
REMARK                            x       y       z     vdW  Elec       q    Type
REMARK                         _______ _______ _______ _____ _____    ______ ____
ROOT
ATOM      1  C   LIG    1       25.539 -21.874   6.529  0.00  0.00    +0.165 C 
ATOM      2  C   LIG    1       24.515 -21.095   5.739  0.00  0.00    +0.013 A 
ATOM      3  C   LIG    1       23.210 -21.594   5.662  0.00  0.00    +0.133 A 
ATOM      4  C   LIG    1       22.193 -20.827   5.099  0.00  0.00    +0.046 A 
ATOM      5  C   LIG    1       22.490 -19.581   4.546  0.00  0.00    +0.004 A 
ATOM      6  C   LIG    1       23.805 -19.112   4.545  0.00  0.00    +0.001 A 
ATOM      7  O   LIG    1       22.865 -22.844   6.125  0.00  0.00    -0.455 OA
ATOM      8  C   LIG    1       23.885 -23.745   6.337  0.00  0.00    +0.133 A 
ATOM      9  C   LIG    1       23.539 -25.095   6.381  0.00  0.00    +0.046 A 
ATOM     10  C   LIG    1       24.520 -26.056   6.623  0.00  0.00    +0.004 A 
ATOM     11  C   LIG    1       25.843 -25.668   6.836  0.00  0.00    +0.001 A 
ATOM     12  C   LIG    1       26.193 -24.317   6.792  0.00  0.00    +0.008 A 
ATOM     13  C   LIG    1       24.817 -19.861   5.147  0.00  0.00    +0.008 A 
ATOM     14  C   LIG    1       25.213 -23.349   6.531  0.00  0.00    +0.013 A 
ENDROOT
BRANCH   1  15
ATOM     15  C   LIG    1       25.604 -21.364   7.960  0.00  0.00    +0.319 C 
ATOM     16  O   LIG    1       24.765 -20.608   8.475  0.00  0.00    -0.250 OA
BRANCH  15  17
ATOM     17  O   LIG    1       26.699 -21.818   8.646  0.00  0.00    -0.459 OA
BRANCH  17  18
ATOM     18  C   LIG    1       27.951 -21.468   8.069  0.00  0.00    +0.282 C 
BRANCH  18  19
ATOM     19  C   LIG    1       28.431 -20.039   8.336  0.00  0.00    +0.175 C 
BRANCH  19  20
ATOM     20  N   LIG    1       29.764 -19.520   7.672  0.00  0.00    +0.247 N 
ATOM     21  C   LIG    1       30.790 -20.659   7.977  0.00  0.00    +0.193 C 
BRANCH  20  23
ATOM     22  C   LIG    1       29.817 -17.888   9.744  0.00  0.00    +0.063 C 
ATOM     23  C   LIG    1       30.344 -18.198   8.342  0.00  0.00    +0.060 C 
ATOM     24  C   LIG    1       31.886 -18.174   8.364  0.00  0.00    +0.063 C 
ENDBRANCH  20  23
BRANCH  20  25
ATOM     25  C   LIG    1       29.598 -19.382   6.078  0.00  0.00    +0.060 C 
ATOM     26  C   LIG    1       29.558 -17.916   5.611  0.00  0.00    +0.063 C 
ATOM     27  C   LIG    1       28.350 -20.093   5.525  0.00  0.00    +0.063 C 
ENDBRANCH  20  25
ENDBRANCH  19  20
ENDBRANCH  18  19
ENDBRANCH  17  18
ENDBRANCH  15  17
ENDBRANCH   1  15
TORSDOF 7
ENDMDL
MODEL 6
REMARK VINA RESULT:      -7.7      2.682      6.795
REMARK  Name = *****
REMARK                            x       y       z     vdW  Elec       q    Type
REMARK                         _______ _______ _______ _____ _____    ______ ____
ROOT
ATOM      1  C   LIG    1       25.138 -21.589   6.675  0.00  0.00    +0.165 C 
ATOM      2  C   LIG    1       24.372 -20.625   5.801  0.00  0.00    +0.013 A 
ATOM      3  C   LIG    1       25.074 -19.901   4.831  0.00  0.00    +0.133 A 
ATOM      4  C   LIG    1       24.390 -19.138   3.888  0.00  0.00    +0.046 A 
ATOM      5  C   LIG    1       23.000 -19.038   3.953  0.00  0.00    +0.004 A 
ATOM      6  C   LIG    1       22.299 -19.691   4.968  0.00  0.00    +0.001 A 
ATOM      7  O   LIG    1       26.449 -19.899   4.756  0.00  0.00    -0.455 OA
ATOM      8  C   LIG    1       27.144 -20.326   5.866  0.00  0.00    +0.133 A 
ATOM      9  C   LIG    1       28.478 -19.934   5.967  0.00  0.00    +0.046 A 
ATOM     10  C   LIG    1       29.246 -20.360   7.051  0.00  0.00    +0.004 A 
ATOM     11  C   LIG    1       28.687 -21.187   8.025  0.00  0.00    +0.001 A 
ATOM     12  C   LIG    1       27.352 -21.581   7.926  0.00  0.00    +0.008 A 
ATOM     13  C   LIG    1       22.980 -20.491   5.887  0.00  0.00    +0.008 A 
ATOM     14  C   LIG    1       26.570 -21.142   6.847  0.00  0.00    +0.013 A 
ENDROOT
BRANCH   1  15
ATOM     15  C   LIG    1       25.108 -22.986   6.075  0.00  0.00    +0.319 C 
ATOM     16  O   LIG    1       24.847 -23.234   4.888  0.00  0.00    -0.250 OA
BRANCH  15  17
ATOM     17  O   LIG    1       25.396 -23.970   6.983  0.00  0.00    -0.459 OA
BRANCH  17  18
ATOM     18  C   LIG    1       25.000 -25.278   6.590  0.00  0.00    +0.282 C 
BRANCH  18  19
ATOM     19  C   LIG    1       25.918 -26.416   7.046  0.00  0.00    +0.175 C 
BRANCH  19  20
ATOM     20  N   LIG    1       25.501 -27.915   6.786  0.00  0.00    +0.247 N 
ATOM     21  C   LIG    1       23.949 -27.837   6.615  0.00  0.00    +0.193 C 
BRANCH  20  23
ATOM     22  C   LIG    1       26.468 -28.235   9.219  0.00  0.00    +0.063 C 
ATOM     23  C   LIG    1       25.772 -28.882   8.021  0.00  0.00    +0.060 C 
ATOM     24  C   LIG    1       24.494 -29.597   8.504  0.00  0.00    +0.063 C 
ENDBRANCH  20  23
BRANCH  20  25
ATOM     25  C   LIG    1       26.147 -28.464   5.419  0.00  0.00    +0.060 C 
ATOM     26  C   LIG    1       26.179 -27.398   4.309  0.00  0.00    +0.063 C 
ATOM     27  C   LIG    1       25.441 -29.712   4.861  0.00  0.00    +0.063 C 
ENDBRANCH  20  25
ENDBRANCH  19  20
ENDBRANCH  18  19
ENDBRANCH  17  18
ENDBRANCH  15  17
ENDBRANCH   1  15
TORSDOF 7
ENDMDL
MODEL 7
REMARK VINA RESULT:      -7.5      1.214      3.723
REMARK  Name = *****
REMARK                            x       y       z     vdW  Elec       q    Type
REMARK                         _______ _______ _______ _____ _____    ______ ____
ROOT
ATOM      1  C   LIG    1       25.192 -21.381   6.190  0.00  0.00    +0.165 C 
ATOM      2  C   LIG    1       24.086 -20.731   5.393  0.00  0.00    +0.013 A 
ATOM      3  C   LIG    1       22.816 -21.319   5.411  0.00  0.00    +0.133 A 
ATOM      4  C   LIG    1       21.727 -20.662   4.842  0.00  0.00    +0.046 A 
ATOM      5  C   LIG    1       21.917 -19.445   4.188  0.00  0.00    +0.004 A 
ATOM      6  C   LIG    1       23.195 -18.893   4.094  0.00  0.00    +0.001 A 
ATOM      7  O   LIG    1       22.576 -22.550   5.977  0.00  0.00    -0.455 OA
ATOM      8  C   LIG    1       23.663 -23.365   6.206  0.00  0.00    +0.133 A 
ATOM      9  C   LIG    1       23.411 -24.728   6.361  0.00  0.00    +0.046 A 
ATOM     10  C   LIG    1       24.465 -25.602   6.627  0.00  0.00    +0.004 A 
ATOM     11  C   LIG    1       25.766 -25.114   6.751  0.00  0.00    +0.001 A 
ATOM     12  C   LIG    1       26.021 -23.751   6.596  0.00  0.00    +0.008 A 
ATOM     13  C   LIG    1       24.279 -19.528   4.702  0.00  0.00    +0.008 A 
ATOM     14  C   LIG    1       24.967 -22.870   6.311  0.00  0.00    +0.013 A 
ENDROOT
BRANCH   1  15
ATOM     15  C   LIG    1       25.280 -20.764   7.576  0.00  0.00    +0.319 C 
ATOM     16  O   LIG    1       24.325 -20.663   8.362  0.00  0.00    -0.250 OA
BRANCH  15  17
ATOM     17  O   LIG    1       26.535 -20.312   7.887  0.00  0.00    -0.459 OA
BRANCH  17  18
ATOM     18  C   LIG    1       27.369 -21.266   8.534  0.00  0.00    +0.282 C 
BRANCH  18  19
ATOM     19  C   LIG    1       28.772 -21.432   7.944  0.00  0.00    +0.175 C 
BRANCH  19  20
ATOM     20  N   LIG    1       29.657 -20.160   7.649  0.00  0.00    +0.247 N 
ATOM     21  C   LIG    1       28.987 -19.043   8.513  0.00  0.00    +0.193 C 
BRANCH  20  23
ATOM     22  C   LIG    1       28.287 -19.981   5.402  0.00  0.00    +0.063 C 
ATOM     23  C   LIG    1       29.589 -19.665   6.138  0.00  0.00    +0.060 C 
ATOM     24  C   LIG    1       29.900 -18.161   5.994  0.00  0.00    +0.063 C 
ENDBRANCH  20  23
BRANCH  20  25
ATOM     25  C   LIG    1       31.166 -20.378   8.160  0.00  0.00    +0.060 C 
ATOM     26  C   LIG    1       31.318 -21.631   9.042  0.00  0.00    +0.063 C 
ATOM     27  C   LIG    1       31.733 -19.176   8.938  0.00  0.00    +0.063 C 
ENDBRANCH  20  25
ENDBRANCH  19  20
ENDBRANCH  18  19
ENDBRANCH  17  18
ENDBRANCH  15  17
ENDBRANCH   1  15
TORSDOF 7
ENDMDL
MODEL 8
REMARK VINA RESULT:      -6.9      1.545      2.661
REMARK  Name = *****
REMARK                            x       y       z     vdW  Elec       q    Type
REMARK                         _______ _______ _______ _____ _____    ______ ____
ROOT
ATOM      1  C   LIG    1       25.361 -22.643   7.350  0.00  0.00    +0.165 C 
ATOM      2  C   LIG    1       25.383 -24.007   6.702  0.00  0.00    +0.013 A 
ATOM      3  C   LIG    1       25.050 -24.108   5.346  0.00  0.00    +0.133 A 
ATOM      4  C   LIG    1       25.229 -25.309   4.663  0.00  0.00    +0.046 A 
ATOM      5  C   LIG    1       25.677 -26.437   5.351  0.00  0.00    +0.004 A 
ATOM      6  C   LIG    1       25.932 -26.365   6.721  0.00  0.00    +0.001 A 
ATOM      7  O   LIG    1       24.537 -23.052   4.627  0.00  0.00    -0.455 OA
ATOM      8  C   LIG    1       24.013 -21.996   5.339  0.00  0.00    +0.133 A 
ATOM      9  C   LIG    1       23.129 -21.154   4.665  0.00  0.00    +0.046 A 
ATOM     10  C   LIG    1       22.588 -20.048   5.321  0.00  0.00    +0.004 A 
ATOM     11  C   LIG    1       22.941 -19.775   6.643  0.00  0.00    +0.001 A 
ATOM     12  C   LIG    1       23.825 -20.616   7.320  0.00  0.00    +0.008 A 
ATOM     13  C   LIG    1       25.795 -25.151   7.397  0.00  0.00    +0.008 A 
ATOM     14  C   LIG    1       24.358 -21.739   6.671  0.00  0.00    +0.013 A 
ENDROOT
BRANCH   1  15
ATOM     15  C   LIG    1       26.740 -22.007   7.295  0.00  0.00    +0.319 C 
ATOM     16  O   LIG    1       27.347 -21.735   6.248  0.00  0.00    -0.250 OA
BRANCH  15  17
ATOM     17  O   LIG    1       27.270 -21.761   8.534  0.00  0.00    -0.459 OA
BRANCH  17  18
ATOM     18  C   LIG    1       28.569 -21.182   8.522  0.00  0.00    +0.282 C 
BRANCH  18  19
ATOM     19  C   LIG    1       28.617 -19.653   8.590  0.00  0.00    +0.175 C 
BRANCH  19  20
ATOM     20  N   LIG    1       30.007 -18.908   8.587  0.00  0.00    +0.247 N 
ATOM     21  C   LIG    1       30.998 -19.986   9.135  0.00  0.00    +0.193 C 
BRANCH  20  23
ATOM     22  C   LIG    1       30.404 -18.031  11.042  0.00  0.00    +0.063 C 
ATOM     23  C   LIG    1       30.080 -17.675   9.591  0.00  0.00    +0.060 C 
ATOM     24  C   LIG    1       31.049 -16.576   9.110  0.00  0.00    +0.063 C 
ENDBRANCH  20  23
BRANCH  20  25
ATOM     25  C   LIG    1       30.445 -18.512   7.091  0.00  0.00    +0.060 C 
ATOM     26  C   LIG    1       29.292 -18.650   6.080  0.00  0.00    +0.063 C 
ATOM     27  C   LIG    1       31.641 -19.324   6.563  0.00  0.00    +0.063 C 
ENDBRANCH  20  25
ENDBRANCH  19  20
ENDBRANCH  18  19
ENDBRANCH  17  18
ENDBRANCH  15  17
ENDBRANCH   1  15
TORSDOF 7
ENDMDL
MODEL 9
REMARK VINA RESULT:      -6.6      4.557      7.742
REMARK  Name = *****
REMARK                            x       y       z     vdW  Elec       q    Type
REMARK                         _______ _______ _______ _____ _____    ______ ____
ROOT
ATOM      1  C   LIG    1       25.974 -28.984   7.387  0.00  0.00    +0.165 C 
ATOM      2  C   LIG    1       25.384 -30.237   6.783  0.00  0.00    +0.013 A 
ATOM      3  C   LIG    1       24.334 -30.872   7.456  0.00  0.00    +0.133 A 
ATOM      4  C   LIG    1       23.642 -31.919   6.854  0.00  0.00    +0.046 A 
ATOM      5  C   LIG    1       24.043 -32.385   5.602  0.00  0.00    +0.004 A 
ATOM      6  C   LIG    1       25.142 -31.812   4.961  0.00  0.00    +0.001 A 
ATOM      7  O   LIG    1       23.935 -30.507   8.722  0.00  0.00    -0.455 OA
ATOM      8  C   LIG    1       24.812 -29.751   9.470  0.00  0.00    +0.133 A 
ATOM      9  C   LIG    1       24.624 -29.745  10.851  0.00  0.00    +0.046 A 
ATOM     10  C   LIG    1       25.458 -28.975  11.661  0.00  0.00    +0.004 A 
ATOM     11  C   LIG    1       26.470 -28.202  11.092  0.00  0.00    +0.001 A 
ATOM     12  C   LIG    1       26.661 -28.207   9.709  0.00  0.00    +0.008 A 
ATOM     13  C   LIG    1       25.809 -30.733   5.544  0.00  0.00    +0.008 A 
ATOM     14  C   LIG    1       25.836 -28.993   8.892  0.00  0.00    +0.013 A 
ENDROOT
BRANCH   1  15
ATOM     15  C   LIG    1       25.293 -27.750   6.819  0.00  0.00    +0.319 C 
ATOM     16  O   LIG    1       24.136 -27.731   6.372  0.00  0.00    -0.250 OA
BRANCH  15  17
ATOM     17  O   LIG    1       26.089 -26.636   6.840  0.00  0.00    -0.459 OA
BRANCH  17  18
ATOM     18  C   LIG    1       25.476 -25.456   6.335  0.00  0.00    +0.282 C 
BRANCH  18  19
ATOM     19  C   LIG    1       25.717 -24.181   7.149  0.00  0.00    +0.175 C 
BRANCH  19  20
ATOM     20  N   LIG    1       25.115 -22.809   6.658  0.00  0.00    +0.247 N 
ATOM     21  C   LIG    1       24.949 -23.015   5.117  0.00  0.00    +0.193 C 
BRANCH  20  23
ATOM     22  C   LIG    1       27.515 -21.922   7.300  0.00  0.00    +0.063 C 
ATOM     23  C   LIG    1       26.098 -21.571   6.845  0.00  0.00    +0.060 C 
ATOM     24  C   LIG    1       26.176 -20.682   5.587  0.00  0.00    +0.063 C 
ENDBRANCH  20  23
BRANCH  20  25
ATOM     25  C   LIG    1       23.666 -22.550   7.306  0.00  0.00    +0.060 C 
ATOM     26  C   LIG    1       22.588 -23.494   6.744  0.00  0.00    +0.063 C 
ATOM     27  C   LIG    1       23.166 -21.104   7.141  0.00  0.00    +0.063 C 
ENDBRANCH  20  25
ENDBRANCH  19  20
ENDBRANCH  18  19
ENDBRANCH  17  18
ENDBRANCH  15  17
ENDBRANCH   1  15
TORSDOF 7
ENDMDL
