MODEL 1
REMARK VINA RESULT:      -6.5      0.000      0.000
REMARK  Name = *****
REMARK                            x       y       z     vdW  Elec       q    Type
REMARK                         _______ _______ _______ _____ _____    ______ ____
ROOT
ATOM      1  C   LIG    1       25.510 -21.638   6.017  0.00  0.00    +0.053 C 
ENDROOT
BRANCH   1   2
ATOM      2  C   LIG    1       24.573 -20.647   5.362  0.00  0.00    -0.046 A 
ATOM      3  C   LIG    1       23.296 -20.408   5.888  0.00  0.00    +0.003 A 
ATOM      4  C   LIG    1       22.443 -19.484   5.281  0.00  0.00    +0.000 A 
ATOM      5  C   LIG    1       22.849 -18.801   4.138  0.00  0.00    +0.000 A 
ATOM      6  C   LIG    1       24.111 -19.041   3.598  0.00  0.00    +0.000 A 
ATOM      7  C   LIG    1       24.968 -19.960   4.206  0.00  0.00    +0.003 A 
ENDBRANCH   1   2
BRANCH   1   8
ATOM      8  C   LIG    1       24.929 -23.061   6.219  0.00  0.00    +0.055 C 
ATOM      9  C   LIG    1       25.783 -23.875   7.200  0.00  0.00    +0.024 C 
BRANCH   8  11
ATOM     10  C   LIG    1       25.107 -25.141   4.922  0.00  0.00    +0.101 C 
ATOM     11  N   LIG    1       24.845 -23.708   4.892  0.00  0.00    -0.316 NA
ATOM     12  H   LIG    1       23.910 -23.556   4.511  0.00  0.00    +0.122 HD
ENDBRANCH   8  11
ENDBRANCH   1   8
TORSDOF 3
ENDMDL
MODEL 2
REMARK VINA RESULT:      -6.5      0.026      1.455
REMARK  Name = *****
REMARK                            x       y       z     vdW  Elec       q    Type
REMARK                         _______ _______ _______ _____ _____    ______ ____
ROOT
ATOM      1  C   LIG    1       25.503 -21.638   6.047  0.00  0.00    +0.053 C 
ENDROOT
BRANCH   1   2
ATOM      2  C   LIG    1       24.586 -20.645   5.368  0.00  0.00    -0.046 A 
ATOM      3  C   LIG    1       24.998 -19.949   4.223  0.00  0.00    +0.003 A 
ATOM      4  C   LIG    1       24.138 -19.043   3.599  0.00  0.00    +0.000 A 
ATOM      5  C   LIG    1       22.868 -18.811   4.118  0.00  0.00    +0.000 A 
ATOM      6  C   LIG    1       22.452 -19.486   5.265  0.00  0.00    +0.000 A 
ATOM      7  C   LIG    1       23.307 -20.398   5.886  0.00  0.00    +0.003 A 
ENDBRANCH   1   2
BRANCH   1   8
ATOM      8  C   LIG    1       24.920 -23.064   6.220  0.00  0.00    +0.055 C 
ATOM      9  C   LIG    1       25.759 -23.892   7.202  0.00  0.00    +0.024 C 
BRANCH   8  11
ATOM     10  C   LIG    1       25.077 -25.132   4.902  0.00  0.00    +0.101 C 
ATOM     11  N   LIG    1       24.855 -23.692   4.883  0.00  0.00    -0.316 NA
ATOM     12  H   LIG    1       23.936 -23.510   4.478  0.00  0.00    +0.122 HD
ENDBRANCH   8  11
ENDBRANCH   1   8
TORSDOF 3
ENDMDL
MODEL 3
REMARK VINA RESULT:      -6.3      1.711      2.461
REMARK  Name = *****
REMARK                            x       y       z     vdW  Elec       q    Type
REMARK                         _______ _______ _______ _____ _____    ______ ____
ROOT
ATOM      1  C   LIG    1       23.657 -21.378   7.019  0.00  0.00    +0.053 C 
ENDROOT
BRANCH   1   2
ATOM      2  C   LIG    1       23.641 -20.473   5.806  0.00  0.00    -0.046 A 
ATOM      3  C   LIG    1       22.525 -19.675   5.516  0.00  0.00    +0.003 A 
ATOM      4  C   LIG    1       22.526 -18.837   4.400  0.00  0.00    +0.000 A 
ATOM      5  C   LIG    1       23.632 -18.797   3.555  0.00  0.00    +0.000 A 
ATOM      6  C   LIG    1       24.742 -19.597   3.825  0.00  0.00    +0.000 A 
ATOM      7  C   LIG    1       24.745 -20.431   4.944  0.00  0.00    +0.003 A 
ENDBRANCH   1   2
BRANCH   1   8
ATOM      8  C   LIG    1       24.959 -22.197   7.215  0.00  0.00    +0.055 C 
ATOM      9  C   LIG    1       24.711 -23.694   6.992  0.00  0.00    +0.024 C 
BRANCH   8  11
ATOM     10  C   LIG    1       26.081 -20.601   8.709  0.00  0.00    +0.101 C 
ATOM     11  N   LIG    1       25.468 -21.917   8.574  0.00  0.00    -0.316 NA
ATOM     12  H   LIG    1       24.694 -21.984   9.236  0.00  0.00    +0.122 HD
ENDBRANCH   8  11
ENDBRANCH   1   8
TORSDOF 3
ENDMDL
MODEL 4
REMARK VINA RESULT:      -6.2      2.158      3.797
REMARK  Name = *****
REMARK                            x       y       z     vdW  Elec       q    Type
REMARK                         _______ _______ _______ _____ _____    ______ ____
ROOT
ATOM      1  C   LIG    1       23.702 -21.031   7.127  0.00  0.00    +0.053 C 
ENDROOT
BRANCH   1   2
ATOM      2  C   LIG    1       25.184 -20.728   7.116  0.00  0.00    -0.046 A 
ATOM      3  C   LIG    1       25.912 -20.648   8.312  0.00  0.00    +0.003 A 
ATOM      4  C   LIG    1       27.281 -20.377   8.289  0.00  0.00    +0.000 A 
ATOM      5  C   LIG    1       27.934 -20.170   7.077  0.00  0.00    +0.000 A 
ATOM      6  C   LIG    1       27.218 -20.232   5.882  0.00  0.00    +0.000 A 
ATOM      7  C   LIG    1       25.850 -20.509   5.903  0.00  0.00    +0.003 A 
ENDBRANCH   1   2
BRANCH   1   8
ATOM      8  C   LIG    1       23.159 -21.716   5.846  0.00  0.00    +0.055 C 
ATOM      9  C   LIG    1       22.241 -20.773   5.058  0.00  0.00    +0.024 C 
BRANCH   8  11
ATOM     10  C   LIG    1       23.355 -24.000   6.731  0.00  0.00    +0.101 C 
ATOM     11  N   LIG    1       22.460 -22.952   6.256  0.00  0.00    -0.316 NA
ATOM     12  H   LIG    1       21.801 -22.726   7.002  0.00  0.00    +0.122 HD
ENDBRANCH   8  11
ENDBRANCH   1   8
TORSDOF 3
ENDMDL
MODEL 5
REMARK VINA RESULT:      -6.2      4.373      5.556
REMARK  Name = *****
REMARK                            x       y       z     vdW  Elec       q    Type
REMARK                         _______ _______ _______ _____ _____    ______ ____
ROOT
ATOM      1  C   LIG    1       29.181 -20.096   6.733  0.00  0.00    +0.053 C 
ENDROOT
BRANCH   1   2
ATOM      2  C   LIG    1       27.702 -20.327   6.956  0.00  0.00    -0.046 A 
ATOM      3  C   LIG    1       26.810 -20.378   5.876  0.00  0.00    +0.003 A 
ATOM      4  C   LIG    1       25.449 -20.601   6.093  0.00  0.00    +0.000 A 
ATOM      5  C   LIG    1       24.963 -20.762   7.388  0.00  0.00    +0.000 A 
ATOM      6  C   LIG    1       25.838 -20.700   8.471  0.00  0.00    +0.000 A 
ATOM      7  C   LIG    1       27.200 -20.482   8.256  0.00  0.00    +0.003 A 
ENDBRANCH   1   2
BRANCH   1   8
ATOM      8  C   LIG    1       29.998 -19.775   8.012  0.00  0.00    +0.055 C 
ATOM      9  C   LIG    1       30.363 -18.287   8.079  0.00  0.00    +0.024 C 
BRANCH   8  11
ATOM     10  C   LIG    1       31.162 -21.694   9.012  0.00  0.00    +0.101 C 
ATOM     11  N   LIG    1       31.198 -20.639   8.008  0.00  0.00    -0.316 NA
ATOM     12  H   LIG    1       31.291 -21.069   7.088  0.00  0.00    +0.122 HD
ENDBRANCH   8  11
ENDBRANCH   1   8
TORSDOF 3
ENDMDL
MODEL 6
REMARK VINA RESULT:      -6.1      2.667      3.743
REMARK  Name = *****
REMARK                            x       y       z     vdW  Elec       q    Type
REMARK                         _______ _______ _______ _____ _____    ______ ____
ROOT
ATOM      1  C   LIG    1       23.570 -24.597   6.529  0.00  0.00    +0.053 C 
ENDROOT
BRANCH   1   2
ATOM      2  C   LIG    1       24.144 -23.268   6.967  0.00  0.00    -0.046 A 
ATOM      3  C   LIG    1       25.463 -23.171   7.434  0.00  0.00    +0.003 A 
ATOM      4  C   LIG    1       25.985 -21.937   7.827  0.00  0.00    +0.000 A 
ATOM      5  C   LIG    1       25.195 -20.792   7.770  0.00  0.00    +0.000 A 
ATOM      6  C   LIG    1       23.878 -20.878   7.321  0.00  0.00    +0.000 A 
ATOM      7  C   LIG    1       23.356 -22.110   6.923  0.00  0.00    +0.003 A 
ENDBRANCH   1   2
BRANCH   1   8
ATOM      8  C   LIG    1       24.614 -25.646   6.066  0.00  0.00    +0.055 C 
ATOM      9  C   LIG    1       25.134 -25.328   4.659  0.00  0.00    +0.024 C 
BRANCH   8  11
ATOM     10  C   LIG    1       24.682 -28.003   5.375  0.00  0.00    +0.101 C 
ATOM     11  N   LIG    1       23.975 -26.978   6.132  0.00  0.00    -0.316 NA
ATOM     12  H   LIG    1       23.926 -27.272   7.108  0.00  0.00    +0.122 HD
ENDBRANCH   8  11
ENDBRANCH   1   8
TORSDOF 3
ENDMDL
MODEL 7
REMARK VINA RESULT:      -6.1      2.665      3.632
REMARK  Name = *****
REMARK                            x       y       z     vdW  Elec       q    Type
REMARK                         _______ _______ _______ _____ _____    ______ ____
ROOT
ATOM      1  C   LIG    1       23.563 -24.583   6.533  0.00  0.00    +0.053 C 
ENDROOT
BRANCH   1   2
ATOM      2  C   LIG    1       24.134 -23.252   6.969  0.00  0.00    -0.046 A 
ATOM      3  C   LIG    1       23.363 -22.082   6.909  0.00  0.00    +0.003 A 
ATOM      4  C   LIG    1       23.897 -20.861   7.324  0.00  0.00    +0.000 A 
ATOM      5  C   LIG    1       25.208 -20.791   7.788  0.00  0.00    +0.000 A 
ATOM      6  C   LIG    1       25.989 -21.945   7.839  0.00  0.00    +0.000 A 
ATOM      7  C   LIG    1       25.455 -23.168   7.431  0.00  0.00    +0.003 A 
ENDBRANCH   1   2
BRANCH   1   8
ATOM      8  C   LIG    1       24.610 -25.631   6.074  0.00  0.00    +0.055 C 
ATOM      9  C   LIG    1       25.129 -25.317   4.665  0.00  0.00    +0.024 C 
BRANCH   8  11
ATOM     10  C   LIG    1       24.678 -27.988   5.382  0.00  0.00    +0.101 C 
ATOM     11  N   LIG    1       23.975 -26.964   6.144  0.00  0.00    -0.316 NA
ATOM     12  H   LIG    1       23.933 -27.258   7.121  0.00  0.00    +0.122 HD
ENDBRANCH   8  11
ENDBRANCH   1   8
TORSDOF 3
ENDMDL
MODEL 8
REMARK VINA RESULT:      -6.0      2.166      2.705
REMARK  Name = *****
REMARK                            x       y       z     vdW  Elec       q    Type
REMARK                         _______ _______ _______ _____ _____    ______ ____
ROOT
ATOM      1  C   LIG    1       25.912 -21.249   6.162  0.00  0.00    +0.053 C 
ENDROOT
BRANCH   1   2
ATOM      2  C   LIG    1       24.827 -20.466   5.458  0.00  0.00    -0.046 A 
ATOM      3  C   LIG    1       23.530 -20.396   5.986  0.00  0.00    +0.003 A 
ATOM      4  C   LIG    1       22.538 -19.661   5.333  0.00  0.00    +0.000 A 
ATOM      5  C   LIG    1       22.826 -19.001   4.142  0.00  0.00    +0.000 A 
ATOM      6  C   LIG    1       24.108 -19.075   3.599  0.00  0.00    +0.000 A 
ATOM      7  C   LIG    1       25.102 -19.804   4.254  0.00  0.00    +0.003 A 
ENDBRANCH   1   2
BRANCH   1   8
ATOM      8  C   LIG    1       26.881 -20.403   7.028  0.00  0.00    +0.055 C 
ATOM      9  C   LIG    1       28.241 -20.237   6.338  0.00  0.00    +0.024 C 
BRANCH   8  11
ATOM     10  C   LIG    1       25.895 -21.954   8.660  0.00  0.00    +0.101 C 
ATOM     11  N   LIG    1       27.007 -21.066   8.344  0.00  0.00    -0.316 NA
ATOM     12  H   LIG    1       27.871 -21.609   8.358  0.00  0.00    +0.122 HD
ENDBRANCH   8  11
ENDBRANCH   1   8
TORSDOF 3
ENDMDL
MODEL 9
REMARK VINA RESULT:      -6.0      3.127      4.653
REMARK  Name = *****
REMARK                            x       y       z     vdW  Elec       q    Type
REMARK                         _______ _______ _______ _____ _____    ______ ____
ROOT
ATOM      1  C   LIG    1       25.859 -21.083   8.550  0.00  0.00    +0.053 C 
ENDROOT
BRANCH   1   2
ATOM      2  C   LIG    1       25.142 -22.196   7.817  0.00  0.00    -0.046 A 
ATOM      3  C   LIG    1       23.789 -22.075   7.470  0.00  0.00    +0.003 A 
ATOM      4  C   LIG    1       23.140 -23.104   6.785  0.00  0.00    +0.000 A 
ATOM      5  C   LIG    1       23.829 -24.268   6.453  0.00  0.00    +0.000 A 
ATOM      6  C   LIG    1       25.171 -24.406   6.805  0.00  0.00    +0.000 A 
ATOM      7  C   LIG    1       25.823 -23.375   7.485  0.00  0.00    +0.003 A 
ENDBRANCH   1   2
BRANCH   1   8
ATOM      8  C   LIG    1       26.974 -20.372   7.740  0.00  0.00    +0.055 C 
ATOM      9  C   LIG    1       26.693 -20.436   6.234  0.00  0.00    +0.024 C 
BRANCH   8  11
ATOM     10  C   LIG    1       29.384 -20.536   7.288  0.00  0.00    +0.101 C 
ATOM     11  N   LIG    1       28.262 -21.007   8.090  0.00  0.00    -0.316 NA
ATOM     12  H   LIG    1       28.465 -20.821   9.073  0.00  0.00    +0.122 HD
ENDBRANCH   8  11
ENDBRANCH   1   8
TORSDOF 3
ENDMDL
