MODEL 1
REMARK VINA RESULT:      -4.0      0.000      0.000
REMARK  Name = *****
REMARK                            x       y       z     vdW  Elec       q    Type
REMARK                         _______ _______ _______ _____ _____    ______ ____
ROOT
ATOM      1  C   LIG    1       25.515 -18.932   4.011  0.00  0.00    +0.045 C 
ATOM      2  C   LIG    1       26.100 -19.799   4.879  0.00  0.00    +0.046 C 
ATOM      3  C   LIG    1       25.302 -20.745   5.764  0.00  0.00    +0.188 C 
ATOM      4  O   LIG    1       24.143 -21.069   5.589  0.00  0.00    -0.287 OA
ATOM      5  C   LIG    1       26.034 -21.298   6.943  0.00  0.00    +0.054 C 
ATOM      6  C   LIG    1       27.358 -21.158   7.062  0.00  0.00    +0.042 C 
ATOM      7  C   LIG    1       28.133 -20.495   6.052  0.00  0.00    +0.124 C 
ATOM      8  F   LIG    1       29.475 -20.510   6.172  0.00  0.00    -0.205 F 
ATOM      9  C   LIG    1       27.559 -19.855   5.028  0.00  0.00    +0.052 C 
ENDROOT
BRANCH   1  10
ATOM     10  C   LIG    1       24.042 -18.855   3.838  0.00  0.00    -0.003 A 
ATOM     11  C   LIG    1       23.385 -19.799   3.032  0.00  0.00    +0.011 A 
ATOM     12  C   LIG    1       21.993 -19.778   2.908  0.00  0.00    +0.020 A 
ATOM     13  C   LIG    1       21.252 -18.824   3.599  0.00  0.00    +0.041 A 
ATOM     14 CL   LIG    1       19.536 -18.815   3.466  0.00  0.00    -0.084 Cl
ATOM     15  C   LIG    1       21.890 -17.883   4.406  0.00  0.00    +0.020 A 
ATOM     16  C   LIG    1       23.284 -17.893   4.519  0.00  0.00    +0.011 A 
ENDBRANCH   1  10
BRANCH   1  17
ATOM     17  N   LIG    1       26.243 -17.978   3.290  0.00  0.00    -0.343 N 
ATOM     18  H   LIG    1       27.181 -18.284   3.061  0.00  0.00    +0.146 HD
BRANCH  17  19
ATOM     19  C   LIG    1       26.030 -16.537   3.263  0.00  0.00    +0.102 C 
BRANCH  19  20
ATOM     20  C   LIG    1       27.260 -15.791   3.792  0.00  0.00    +0.028 C 
BRANCH  20  21
ATOM     21  C   LIG    1       27.220 -14.272   3.610  0.00  0.00    +0.097 C 
BRANCH  21  25
ATOM     22  N   LIG    1       26.961 -13.334   5.822  0.00  0.00    -0.329 N 
ATOM     23  H   LIG    1       27.907 -13.635   6.024  0.00  0.00    +0.145 HD
ATOM     24  H   LIG    1       26.398 -12.981   6.585  0.00  0.00    +0.145 HD
ATOM     25  C   LIG    1       26.339 -13.614   4.643  0.00  0.00    +0.210 C 
ATOM     26  O   LIG    1       25.144 -13.386   4.471  0.00  0.00    -0.276 OA
ENDBRANCH  21  25
ENDBRANCH  20  21
ENDBRANCH  19  20
ENDBRANCH  17  19
ENDBRANCH   1  17
TORSDOF 6
ENDMDL
MODEL 2
REMARK VINA RESULT:      -3.8      0.916      1.363
REMARK  Name = *****
REMARK                            x       y       z     vdW  Elec       q    Type
REMARK                         _______ _______ _______ _____ _____    ______ ____
ROOT
ATOM      1  C   LIG    1       25.412 -18.940   4.032  0.00  0.00    +0.045 C 
ATOM      2  C   LIG    1       26.041 -19.782   4.895  0.00  0.00    +0.046 C 
ATOM      3  C   LIG    1       25.291 -20.735   5.813  0.00  0.00    +0.188 C 
ATOM      4  O   LIG    1       24.136 -21.088   5.675  0.00  0.00    -0.287 OA
ATOM      5  C   LIG    1       26.069 -21.254   6.978  0.00  0.00    +0.054 C 
ATOM      6  C   LIG    1       27.392 -21.081   7.058  0.00  0.00    +0.042 C 
ATOM      7  C   LIG    1       28.123 -20.413   6.019  0.00  0.00    +0.124 C 
ATOM      8  F   LIG    1       29.467 -20.395   6.101  0.00  0.00    -0.205 F 
ATOM      9  C   LIG    1       27.505 -19.800   5.003  0.00  0.00    +0.052 C 
ENDROOT
BRANCH   1  10
ATOM     10  C   LIG    1       23.933 -18.901   3.899  0.00  0.00    -0.003 A 
ATOM     11  C   LIG    1       23.210 -17.838   4.463  0.00  0.00    +0.011 A 
ATOM     12  C   LIG    1       21.825 -17.755   4.293  0.00  0.00    +0.020 A 
ATOM     13  C   LIG    1       21.161 -18.725   3.547  0.00  0.00    +0.041 A 
ATOM     14 CL   LIG    1       19.459 -18.607   3.318  0.00  0.00    -0.084 Cl
ATOM     15  C   LIG    1       21.866 -19.784   2.978  0.00  0.00    +0.020 A 
ATOM     16  C   LIG    1       23.250 -19.877   3.160  0.00  0.00    +0.011 A 
ENDBRANCH   1  10
BRANCH   1  17
ATOM     17  N   LIG    1       26.097 -17.978   3.279  0.00  0.00    -0.343 N 
ATOM     18  H   LIG    1       26.280 -18.276   2.329  0.00  0.00    +0.146 HD
BRANCH  17  19
ATOM     19  C   LIG    1       26.949 -16.907   3.777  0.00  0.00    +0.102 C 
BRANCH  19  20
ATOM     20  C   LIG    1       26.349 -15.535   3.453  0.00  0.00    +0.028 C 
BRANCH  20  21
ATOM     21  C   LIG    1       27.357 -14.487   2.978  0.00  0.00    +0.097 C 
BRANCH  21  25
ATOM     22  N   LIG    1       26.942 -13.580   5.179  0.00  0.00    -0.329 N 
ATOM     23  H   LIG    1       26.061 -14.079   5.182  0.00  0.00    +0.145 HD
ATOM     24  H   LIG    1       27.119 -12.917   5.924  0.00  0.00    +0.145 HD
ATOM     25  C   LIG    1       27.777 -13.572   4.103  0.00  0.00    +0.210 C 
ATOM     26  O   LIG    1       28.760 -12.838   4.050  0.00  0.00    -0.276 OA
ENDBRANCH  21  25
ENDBRANCH  20  21
ENDBRANCH  19  20
ENDBRANCH  17  19
ENDBRANCH   1  17
TORSDOF 6
ENDMDL
MODEL 3
REMARK VINA RESULT:      -3.1      3.535      6.702
REMARK  Name = *****
REMARK                            x       y       z     vdW  Elec       q    Type
REMARK                         _______ _______ _______ _____ _____    ______ ____
ROOT
ATOM      1  C   LIG    1       25.506 -16.782   3.447  0.00  0.00    +0.045 C 
ATOM      2  C   LIG    1       24.203 -16.702   3.829  0.00  0.00    +0.046 C 
ATOM      3  C   LIG    1       23.570 -15.419   4.345  0.00  0.00    +0.188 C 
ATOM      4  O   LIG    1       24.012 -14.297   4.183  0.00  0.00    -0.287 OA
ATOM      5  C   LIG    1       22.304 -15.589   5.118  0.00  0.00    +0.054 C 
ATOM      6  C   LIG    1       21.659 -16.760   5.138  0.00  0.00    +0.042 C 
ATOM      7  C   LIG    1       22.140 -17.892   4.398  0.00  0.00    +0.124 C 
ATOM      8  F   LIG    1       21.369 -18.995   4.355  0.00  0.00    -0.205 F 
ATOM      9  C   LIG    1       23.328 -17.880   3.783  0.00  0.00    +0.052 C 
ENDROOT
BRANCH   1  10
ATOM     10  C   LIG    1       26.414 -15.607   3.480  0.00  0.00    -0.003 A 
ATOM     11  C   LIG    1       26.250 -14.572   2.545  0.00  0.00    +0.011 A 
ATOM     12  C   LIG    1       27.056 -13.432   2.601  0.00  0.00    +0.020 A 
ATOM     13  C   LIG    1       28.020 -13.316   3.599  0.00  0.00    +0.041 A 
ATOM     14 CL   LIG    1       28.995 -11.900   3.683  0.00  0.00    -0.084 Cl
ATOM     15  C   LIG    1       28.192 -14.333   4.537  0.00  0.00    +0.020 A 
ATOM     16  C   LIG    1       27.395 -15.481   4.473  0.00  0.00    +0.011 A 
ENDBRANCH   1  10
BRANCH   1  17
ATOM     17  N   LIG    1       26.117 -17.990   3.091  0.00  0.00    -0.343 N 
ATOM     18  H   LIG    1       25.885 -18.290   2.153  0.00  0.00    +0.146 HD
BRANCH  17  19
ATOM     19  C   LIG    1       26.598 -19.035   3.985  0.00  0.00    +0.102 C 
BRANCH  19  20
ATOM     20  C   LIG    1       25.555 -20.147   4.136  0.00  0.00    +0.028 C 
BRANCH  20  21
ATOM     21  C   LIG    1       25.277 -20.578   5.578  0.00  0.00    +0.097 C 
BRANCH  21  25
ATOM     22  N   LIG    1       23.230 -21.570   4.763  0.00  0.00    -0.329 N 
ATOM     23  H   LIG    1       23.706 -21.755   3.888  0.00  0.00    +0.145 HD
ATOM     24  H   LIG    1       22.230 -21.726   4.805  0.00  0.00    +0.145 HD
ATOM     25  C   LIG    1       23.816 -20.895   5.789  0.00  0.00    +0.210 C 
ATOM     26  O   LIG    1       23.181 -20.538   6.778  0.00  0.00    -0.276 OA
ENDBRANCH  21  25
ENDBRANCH  20  21
ENDBRANCH  19  20
ENDBRANCH  17  19
ENDBRANCH   1  17
TORSDOF 6
ENDMDL
MODEL 4
REMARK VINA RESULT:      -2.8      2.854      5.572
REMARK  Name = *****
REMARK                            x       y       z     vdW  Elec       q    Type
REMARK                         _______ _______ _______ _____ _____    ______ ____
ROOT
ATOM      1  C   LIG    1       25.555 -17.002   3.648  0.00  0.00    +0.045 C 
ATOM      2  C   LIG    1       25.303 -15.666   3.646  0.00  0.00    +0.046 C 
ATOM      3  C   LIG    1       23.907 -15.090   3.824  0.00  0.00    +0.188 C 
ATOM      4  O   LIG    1       22.952 -15.680   4.293  0.00  0.00    -0.287 OA
ATOM      5  C   LIG    1       23.728 -13.679   3.368  0.00  0.00    +0.054 C 
ATOM      6  C   LIG    1       24.780 -12.915   3.056  0.00  0.00    +0.042 C 
ATOM      7  C   LIG    1       26.123 -13.408   3.171  0.00  0.00    +0.124 C 
ATOM      8  F   LIG    1       27.135 -12.543   2.971  0.00  0.00    -0.205 F 
ATOM      9  C   LIG    1       26.382 -14.692   3.444  0.00  0.00    +0.052 C 
ENDROOT
BRANCH   1  10
ATOM     10  C   LIG    1       24.485 -18.011   3.852  0.00  0.00    -0.003 A 
ATOM     11  C   LIG    1       24.732 -19.361   3.554  0.00  0.00    +0.011 A 
ATOM     12  C   LIG    1       23.757 -20.331   3.799  0.00  0.00    +0.020 A 
ATOM     13  C   LIG    1       22.536 -19.958   4.355  0.00  0.00    +0.041 A 
ATOM     14 CL   LIG    1       21.344 -21.157   4.680  0.00  0.00    -0.084 Cl
ATOM     15  C   LIG    1       22.276 -18.623   4.660  0.00  0.00    +0.020 A 
ATOM     16  C   LIG    1       23.247 -17.648   4.401  0.00  0.00    +0.011 A 
ENDBRANCH   1  10
BRANCH   1  17
ATOM     17  N   LIG    1       26.818 -17.534   3.360  0.00  0.00    -0.343 N 
ATOM     18  H   LIG    1       26.831 -18.090   2.514  0.00  0.00    +0.146 HD
BRANCH  17  19
ATOM     19  C   LIG    1       27.904 -17.790   4.295  0.00  0.00    +0.102 C 
BRANCH  19  20
ATOM     20  C   LIG    1       27.789 -19.195   4.896  0.00  0.00    +0.028 C 
BRANCH  20  21
ATOM     21  C   LIG    1       28.661 -19.442   6.129  0.00  0.00    +0.097 C 
BRANCH  21  25
ATOM     22  N   LIG    1       29.410 -21.542   7.062  0.00  0.00    -0.329 N 
ATOM     23  H   LIG    1       30.346 -21.305   6.759  0.00  0.00    +0.145 HD
ATOM     24  H   LIG    1       29.243 -22.476   7.415  0.00  0.00    +0.145 HD
ATOM     25  C   LIG    1       28.330 -20.760   6.787  0.00  0.00    +0.210 C 
ATOM     26  O   LIG    1       27.182 -21.133   7.018  0.00  0.00    -0.276 OA
ENDBRANCH  21  25
ENDBRANCH  20  21
ENDBRANCH  19  20
ENDBRANCH  17  19
ENDBRANCH   1  17
TORSDOF 6
ENDMDL
MODEL 5
REMARK VINA RESULT:      -2.7      3.569      6.436
REMARK  Name = *****
REMARK                            x       y       z     vdW  Elec       q    Type
REMARK                         _______ _______ _______ _____ _____    ______ ____
ROOT
ATOM      1  C   LIG    1       25.474 -17.144   3.487  0.00  0.00    +0.045 C 
ATOM      2  C   LIG    1       24.161 -17.086   3.834  0.00  0.00    +0.046 C 
ATOM      3  C   LIG    1       23.476 -15.796   4.259  0.00  0.00    +0.188 C 
ATOM      4  O   LIG    1       23.885 -14.672   4.040  0.00  0.00    -0.287 OA
ATOM      5  C   LIG    1       22.197 -15.963   5.013  0.00  0.00    +0.054 C 
ATOM      6  C   LIG    1       21.589 -17.151   5.088  0.00  0.00    +0.042 C 
ATOM      7  C   LIG    1       22.124 -18.308   4.428  0.00  0.00    +0.124 C 
ATOM      8  F   LIG    1       21.390 -19.437   4.433  0.00  0.00    -0.205 F 
ATOM      9  C   LIG    1       23.326 -18.292   3.839  0.00  0.00    +0.052 C 
ENDROOT
BRANCH   1  10
ATOM     10  C   LIG    1       26.344 -15.939   3.470  0.00  0.00    -0.003 A 
ATOM     11  C   LIG    1       26.108 -14.922   2.530  0.00  0.00    +0.011 A 
ATOM     12  C   LIG    1       26.878 -13.756   2.541  0.00  0.00    +0.020 A 
ATOM     13  C   LIG    1       27.875 -13.595   3.499  0.00  0.00    +0.041 A 
ATOM     14 CL   LIG    1       28.806 -12.147   3.527  0.00  0.00    -0.084 Cl
ATOM     15  C   LIG    1       28.118 -14.594   4.441  0.00  0.00    +0.020 A 
ATOM     16  C   LIG    1       27.359 -15.769   4.421  0.00  0.00    +0.011 A 
ENDBRANCH   1  10
BRANCH   1  17
ATOM     17  N   LIG    1       26.133 -18.349   3.218  0.00  0.00    -0.343 N 
ATOM     18  H   LIG    1       26.746 -18.295   2.413  0.00  0.00    +0.146 HD
BRANCH  17  19
ATOM     19  C   LIG    1       25.713 -19.691   3.597  0.00  0.00    +0.102 C 
BRANCH  19  20
ATOM     20  C   LIG    1       26.220 -20.048   4.998  0.00  0.00    +0.028 C 
BRANCH  20  21
ATOM     21  C   LIG    1       27.632 -19.553   5.318  0.00  0.00    +0.097 C 
BRANCH  21  25
ATOM     22  N   LIG    1       27.440 -21.243   7.035  0.00  0.00    -0.329 N 
ATOM     23  H   LIG    1       26.438 -21.231   6.888  0.00  0.00    +0.145 HD
ATOM     24  H   LIG    1       27.802 -21.765   7.823  0.00  0.00    +0.145 HD
ATOM     25  C   LIG    1       28.287 -20.399   6.384  0.00  0.00    +0.210 C 
ATOM     26  O   LIG    1       29.475 -20.311   6.685  0.00  0.00    -0.276 OA
ENDBRANCH  21  25
ENDBRANCH  20  21
ENDBRANCH  19  20
ENDBRANCH  17  19
ENDBRANCH   1  17
TORSDOF 6
ENDMDL
MODEL 6
REMARK VINA RESULT:      -2.4      2.992      5.063
REMARK  Name = *****
REMARK                            x       y       z     vdW  Elec       q    Type
REMARK                         _______ _______ _______ _____ _____    ______ ____
ROOT
ATOM      1  C   LIG    1       26.031 -16.951   3.665  0.00  0.00    +0.045 C 
ATOM      2  C   LIG    1       25.194 -17.998   3.894  0.00  0.00    +0.046 C 
ATOM      3  C   LIG    1       23.684 -17.841   3.991  0.00  0.00    +0.188 C 
ATOM      4  O   LIG    1       23.043 -16.896   3.576  0.00  0.00    -0.287 OA
ATOM      5  C   LIG    1       22.962 -18.961   4.666  0.00  0.00    +0.054 C 
ATOM      6  C   LIG    1       23.578 -20.115   4.940  0.00  0.00    +0.042 C 
ATOM      7  C   LIG    1       24.948 -20.337   4.575  0.00  0.00    +0.124 C 
ATOM      8  F   LIG    1       25.462 -21.568   4.759  0.00  0.00    -0.205 F 
ATOM      9  C   LIG    1       25.716 -19.356   4.086  0.00  0.00    +0.052 C 
ENDROOT
BRANCH   1  10
ATOM     10  C   LIG    1       25.533 -15.566   3.463  0.00  0.00    -0.003 A 
ATOM     11  C   LIG    1       25.521 -15.010   2.174  0.00  0.00    +0.011 A 
ATOM     12  C   LIG    1       24.998 -13.732   1.959  0.00  0.00    +0.020 A 
ATOM     13  C   LIG    1       24.472 -13.012   3.028  0.00  0.00    +0.041 A 
ATOM     14 CL   LIG    1       23.805 -11.448   2.757  0.00  0.00    -0.084 Cl
ATOM     15  C   LIG    1       24.473 -13.552   4.313  0.00  0.00    +0.020 A 
ATOM     16  C   LIG    1       25.010 -14.825   4.532  0.00  0.00    +0.011 A 
ENDBRANCH   1  10
BRANCH   1  17
ATOM     17  N   LIG    1       27.425 -17.075   3.700  0.00  0.00    -0.343 N 
ATOM     18  H   LIG    1       27.792 -17.641   2.944  0.00  0.00    +0.146 HD
BRANCH  17  19
ATOM     19  C   LIG    1       28.297 -16.933   4.857  0.00  0.00    +0.102 C 
BRANCH  19  20
ATOM     20  C   LIG    1       29.224 -18.146   4.997  0.00  0.00    +0.028 C 
BRANCH  20  21
ATOM     21  C   LIG    1       29.410 -18.653   6.429  0.00  0.00    +0.097 C 
BRANCH  21  25
ATOM     22  N   LIG    1       29.443 -21.066   6.561  0.00  0.00    -0.329 N 
ATOM     23  H   LIG    1       30.410 -21.036   6.260  0.00  0.00    +0.145 HD
ATOM     24  H   LIG    1       28.985 -21.967   6.610  0.00  0.00    +0.145 HD
ATOM     25  C   LIG    1       28.670 -19.949   6.658  0.00  0.00    +0.210 C 
ATOM     26  O   LIG    1       27.461 -20.012   6.868  0.00  0.00    -0.276 OA
ENDBRANCH  21  25
ENDBRANCH  20  21
ENDBRANCH  19  20
ENDBRANCH  17  19
ENDBRANCH   1  17
TORSDOF 6
ENDMDL
MODEL 7
REMARK VINA RESULT:      -1.8      3.328      5.040
REMARK  Name = *****
REMARK                            x       y       z     vdW  Elec       q    Type
REMARK                         _______ _______ _______ _____ _____    ______ ____
ROOT
ATOM      1  C   LIG    1       24.946 -18.786   4.248  0.00  0.00    +0.045 C 
ATOM      2  C   LIG    1       23.651 -19.158   4.430  0.00  0.00    +0.046 C 
ATOM      3  C   LIG    1       23.237 -20.272   5.379  0.00  0.00    +0.188 C 
ATOM      4  O   LIG    1       23.916 -20.719   6.284  0.00  0.00    -0.287 OA
ATOM      5  C   LIG    1       21.878 -20.847   5.146  0.00  0.00    +0.054 C 
ATOM      6  C   LIG    1       21.009 -20.254   4.322  0.00  0.00    +0.042 C 
ATOM      7  C   LIG    1       21.334 -19.029   3.648  0.00  0.00    +0.124 C 
ATOM      8  F   LIG    1       20.364 -18.418   2.942  0.00  0.00    -0.205 F 
ATOM      9  C   LIG    1       22.565 -18.506   3.688  0.00  0.00    +0.052 C 
ENDROOT
BRANCH   1  10
ATOM     10  C   LIG    1       26.065 -19.425   4.986  0.00  0.00    -0.003 A 
ATOM     11  C   LIG    1       25.821 -20.560   5.777  0.00  0.00    +0.011 A 
ATOM     12  C   LIG    1       26.874 -21.209   6.428  0.00  0.00    +0.020 A 
ATOM     13  C   LIG    1       28.175 -20.736   6.279  0.00  0.00    +0.041 A 
ATOM     14 CL   LIG    1       29.474 -21.551   7.061  0.00  0.00    -0.084 Cl
ATOM     15  C   LIG    1       28.434 -19.614   5.494  0.00  0.00    +0.020 A 
ATOM     16  C   LIG    1       27.379 -18.954   4.854  0.00  0.00    +0.011 A 
ENDBRANCH   1  10
BRANCH   1  17
ATOM     17  N   LIG    1       25.335 -17.848   3.284  0.00  0.00    -0.343 N 
ATOM     18  H   LIG    1       25.152 -18.154   2.336  0.00  0.00    +0.146 HD
BRANCH  17  19
ATOM     19  C   LIG    1       26.339 -16.802   3.423  0.00  0.00    +0.102 C 
BRANCH  19  20
ATOM     20  C   LIG    1       25.690 -15.414   3.388  0.00  0.00    +0.028 C 
BRANCH  20  21
ATOM     21  C   LIG    1       26.575 -14.303   2.818  0.00  0.00    +0.097 C 
BRANCH  21  25
ATOM     22  N   LIG    1       28.775 -13.473   3.374  0.00  0.00    -0.329 N 
ATOM     23  H   LIG    1       29.058 -13.682   2.424  0.00  0.00    +0.145 HD
ATOM     24  H   LIG    1       29.491 -13.206   4.038  0.00  0.00    +0.145 HD
ATOM     25  C   LIG    1       27.537 -13.775   3.854  0.00  0.00    +0.210 C 
ATOM     26  O   LIG    1       27.258 -13.665   5.045  0.00  0.00    -0.276 OA
ENDBRANCH  21  25
ENDBRANCH  20  21
ENDBRANCH  19  20
ENDBRANCH  17  19
ENDBRANCH   1  17
TORSDOF 6
ENDMDL
