MODEL 1
REMARK VINA RESULT:      -0.4      0.000      0.000
REMARK  Name = *****
REMARK                            x       y       z     vdW  Elec       q    Type
REMARK                         _______ _______ _______ _____ _____    ______ ____
ROOT
ATOM      1  C   LIG    1       28.243 -18.876   4.946  0.00  0.00    +0.102 C 
ATOM      2  C   LIG    1       27.678 -17.571   4.400  0.00  0.00    +0.006 A 
ATOM      3  C   LIG    1       26.389 -17.492   3.906  0.00  0.00    +0.149 A 
ATOM      4  S   LIG    1       25.937 -15.940   3.411  0.00  0.00    -0.048 S 
ATOM      5  C   LIG    1       27.455 -15.293   3.864  0.00  0.00    +0.144 A 
ATOM      6  S   LIG    1       25.242 -18.826   3.679  0.00  0.00    +0.068 S 
ATOM      7  O   LIG    1       23.998 -18.413   4.278  0.00  0.00    -0.152 OA
ATOM      8  O   LIG    1       25.380 -19.139   2.272  0.00  0.00    -0.152 OA
ATOM      9  N   LIG    1       25.956 -20.096   4.569  0.00  0.00    -0.174 NA
ATOM     10  C   LIG    1       28.318 -16.286   4.309  0.00  0.00    +0.043 A 
ATOM     11  C   LIG    1       27.457 -20.140   4.410  0.00  0.00    +0.133 C 
ENDROOT
BRANCH   5  12
ATOM     12  S   LIG    1       27.630 -13.527   3.730  0.00  0.00    +0.062 S 
ATOM     13  O   LIG    1       27.504 -13.044   5.095  0.00  0.00    -0.153 OA
ATOM     14  O   LIG    1       26.724 -13.154   2.678  0.00  0.00    -0.153 OA
BRANCH  12  15
ATOM     15  N   LIG    1       29.184 -13.160   3.215  0.00  0.00    -0.203 NA
ATOM     16  H   LIG    1       29.694 -12.589   3.889  0.00  0.00    +0.144 HD
ATOM     17  H   LIG    1       29.689 -13.994   2.907  0.00  0.00    +0.144 HD
ENDBRANCH  12  15
ENDBRANCH   5  12
BRANCH   1  18
ATOM     18  N   LIG    1       28.242 -18.730   6.414  0.00  0.00    -0.308 NA
ATOM     19  H   LIG    1       28.281 -17.735   6.644  0.00  0.00    +0.122 HD
BRANCH  18  21
ATOM     20  C   LIG    1       29.204 -20.898   7.054  0.00  0.00    +0.020 C 
ATOM     21  C   LIG    1       29.381 -19.388   7.059  0.00  0.00    +0.078 C 
ENDBRANCH  18  21
ENDBRANCH   1  18
BRANCH   9  22
ATOM     22  C   LIG    1       25.398 -20.378   5.919  0.00  0.00    +0.112 C 
BRANCH  22  23
ATOM     23  C   LIG    1       24.442 -21.572   5.869  0.00  0.00    +0.045 C 
BRANCH  23  24
ATOM     24  C   LIG    1       23.165 -21.354   6.666  0.00  0.00    +0.161 C 
BRANCH  24  25
ATOM     25  O   LIG    1       22.395 -20.373   5.966  0.00  0.00    -0.383 OA
ATOM     26  C   LIG    1       21.873 -20.871   4.743  0.00  0.00    +0.193 C 
ENDBRANCH  24  25
ENDBRANCH  23  24
ENDBRANCH  22  23
ENDBRANCH   9  22
TORSDOF 8
ENDMDL
MODEL 2
REMARK VINA RESULT:       0.4      1.436      1.580
REMARK  Name = *****
REMARK                            x       y       z     vdW  Elec       q    Type
REMARK                         _______ _______ _______ _____ _____    ______ ____
ROOT
ATOM      1  C   LIG    1       26.875 -18.880   3.801  0.00  0.00    +0.102 C 
ATOM      2  C   LIG    1       26.200 -17.525   3.635  0.00  0.00    +0.006 A 
ATOM      3  C   LIG    1       24.837 -17.370   3.805  0.00  0.00    +0.149 A 
ATOM      4  S   LIG    1       24.300 -15.776   3.641  0.00  0.00    -0.048 S 
ATOM      5  C   LIG    1       25.890 -15.211   3.358  0.00  0.00    +0.144 A 
ATOM      6  S   LIG    1       23.639 -18.648   4.088  0.00  0.00    +0.068 S 
ATOM      7  O   LIG    1       22.843 -18.231   5.215  0.00  0.00    -0.152 OA
ATOM      8  O   LIG    1       23.087 -18.876   2.768  0.00  0.00    -0.152 OA
ATOM      9  N   LIG    1       24.607 -19.995   4.489  0.00  0.00    -0.174 NA
ATOM     10  C   LIG    1       26.800 -16.259   3.307  0.00  0.00    +0.043 A 
ATOM     11  C   LIG    1       25.856 -20.080   3.644  0.00  0.00    +0.133 C 
ENDROOT
BRANCH   5  12
ATOM     12  S   LIG    1       26.087 -13.447   3.228  0.00  0.00    +0.062 S 
ATOM     13  O   LIG    1       25.619 -12.934   4.505  0.00  0.00    -0.153 OA
ATOM     14  O   LIG    1       25.475 -13.107   1.973  0.00  0.00    -0.153 OA
BRANCH  12  15
ATOM     15  N   LIG    1       27.720 -13.077   3.113  0.00  0.00    -0.203 NA
ATOM     16  H   LIG    1       28.309 -13.909   3.123  0.00  0.00    +0.144 HD
ATOM     17  H   LIG    1       27.911 -12.438   2.338  0.00  0.00    +0.144 HD
ENDBRANCH  12  15
ENDBRANCH   5  12
BRANCH   1  18
ATOM     18  N   LIG    1       27.566 -18.827   5.103  0.00  0.00    -0.308 NA
ATOM     19  H   LIG    1       28.462 -18.350   4.980  0.00  0.00    +0.122 HD
BRANCH  18  21
ATOM     20  C   LIG    1       29.088 -20.130   6.524  0.00  0.00    +0.020 C 
ATOM     21  C   LIG    1       27.833 -20.152   5.668  0.00  0.00    +0.078 C 
ENDBRANCH  18  21
ENDBRANCH   1  18
BRANCH   9  22
ATOM     22  C   LIG    1       24.725 -20.342   5.930  0.00  0.00    +0.112 C 
BRANCH  22  23
ATOM     23  C   LIG    1       23.823 -21.529   6.275  0.00  0.00    +0.045 C 
BRANCH  23  24
ATOM     24  C   LIG    1       22.339 -21.202   6.191  0.00  0.00    +0.161 C 
BRANCH  24  25
ATOM     25  O   LIG    1       21.902 -21.572   4.881  0.00  0.00    -0.383 OA
ATOM     26  C   LIG    1       20.864 -20.728   4.403  0.00  0.00    +0.193 C 
ENDBRANCH  24  25
ENDBRANCH  23  24
ENDBRANCH  22  23
ENDBRANCH   9  22
TORSDOF 8
ENDMDL
MODEL 3
REMARK VINA RESULT:       1.4      3.232      7.324
REMARK  Name = *****
REMARK                            x       y       z     vdW  Elec       q    Type
REMARK                         _______ _______ _______ _____ _____    ______ ____
ROOT
ATOM      1  C   LIG    1       23.311 -14.923   4.081  0.00  0.00    +0.102 C 
ATOM      2  C   LIG    1       23.975 -16.274   3.849  0.00  0.00    +0.006 A 
ATOM      3  C   LIG    1       25.329 -16.380   3.591  0.00  0.00    +0.149 A 
ATOM      4  S   LIG    1       25.876 -17.971   3.430  0.00  0.00    -0.048 S 
ATOM      5  C   LIG    1       24.311 -18.598   3.727  0.00  0.00    +0.144 A 
ATOM      6  S   LIG    1       26.482 -15.053   3.346  0.00  0.00    +0.068 S 
ATOM      7  O   LIG    1       27.613 -15.321   4.198  0.00  0.00    -0.152 OA
ATOM      8  O   LIG    1       26.578 -14.968   1.903  0.00  0.00    -0.152 OA
ATOM      9  N   LIG    1       25.614 -13.689   3.894  0.00  0.00    -0.174 NA
ATOM     10  C   LIG    1       23.375 -17.581   3.861  0.00  0.00    +0.043 A 
ATOM     11  C   LIG    1       24.160 -13.729   3.486  0.00  0.00    +0.133 C 
ENDROOT
BRANCH   5  12
ATOM     12  S   LIG    1       24.183 -20.369   3.848  0.00  0.00    +0.062 S 
ATOM     13  O   LIG    1       24.295 -20.836   2.476  0.00  0.00    -0.153 OA
ATOM     14  O   LIG    1       23.019 -20.591   4.661  0.00  0.00    -0.153 OA
BRANCH  12  15
ATOM     15  N   LIG    1       25.509 -20.966   4.686  0.00  0.00    -0.203 NA
ATOM     16  H   LIG    1       26.372 -20.898   4.148  0.00  0.00    +0.144 HD
ATOM     17  H   LIG    1       25.571 -20.573   5.628  0.00  0.00    +0.144 HD
ENDBRANCH  12  15
ENDBRANCH   5  12
BRANCH   1  18
ATOM     18  N   LIG    1       23.068 -14.840   5.534  0.00  0.00    -0.308 NA
ATOM     19  H   LIG    1       23.902 -15.169   6.025  0.00  0.00    +0.122 HD
BRANCH  18  21
ATOM     20  C   LIG    1       21.147 -14.940   7.062  0.00  0.00    +0.020 C 
ATOM     21  C   LIG    1       21.933 -15.655   5.975  0.00  0.00    +0.078 C 
ENDBRANCH  18  21
ENDBRANCH   1  18
BRANCH   9  22
ATOM     22  C   LIG    1       25.935 -13.181   5.254  0.00  0.00    +0.112 C 
BRANCH  22  23
ATOM     23  C   LIG    1       27.405 -13.439   5.593  0.00  0.00    +0.045 C 
BRANCH  23  24
ATOM     24  C   LIG    1       28.292 -12.219   5.390  0.00  0.00    +0.161 C 
BRANCH  24  25
ATOM     25  O   LIG    1       29.198 -12.532   4.329  0.00  0.00    -0.383 OA
ATOM     26  C   LIG    1       28.638 -12.272   3.050  0.00  0.00    +0.193 C 
ENDBRANCH  24  25
ENDBRANCH  23  24
ENDBRANCH  22  23
ENDBRANCH   9  22
TORSDOF 8
ENDMDL
