MODEL 1
REMARK VINA RESULT:      -4.0      0.000      0.000
REMARK  Name = *****
REMARK                            x       y       z     vdW  Elec       q    Type
REMARK                         _______ _______ _______ _____ _____    ______ ____
ROOT
ATOM      1  C   LIG    1       22.677 -18.945   4.007  0.00  0.00    +0.158 C 
ATOM      2  N   LIG    1       24.060 -19.311   3.923  0.00  0.00    -0.293 N 
ATOM      3  H   LIG    1       24.295 -20.266   3.693  0.00  0.00    +0.151 HD
ATOM      4  C   LIG    1       25.012 -18.419   3.520  0.00  0.00    +0.247 C 
ATOM      5  O   LIG    1       26.089 -18.784   3.067  0.00  0.00    -0.270 OA
ATOM      6  C   LIG    1       24.676 -16.993   3.689  0.00  0.00    +0.059 A 
ATOM      7  C   LIG    1       23.437 -16.664   4.249  0.00  0.00    +0.042 A 
ATOM      8  C   LIG    1       23.175 -15.315   4.517  0.00  0.00    +0.045 A 
ATOM      9  C   LIG    1       24.097 -14.315   4.168  0.00  0.00    +0.069 A 
ATOM     10  C   LIG    1       25.308 -14.669   3.569  0.00  0.00    +0.124 A 
ATOM     11 CL   LIG    1       23.657 -12.684   4.529  0.00  0.00    -0.082 Cl
ATOM     12  C   LIG    1       25.602 -16.014   3.333  0.00  0.00    +0.045 A 
ATOM     13  N   LIG    1       22.554 -17.663   4.681  0.00  0.00    -0.325 N 
ATOM     14  H   LIG    1       21.592 -17.340   4.748  0.00  0.00    +0.148 HD
ENDROOT
BRANCH  10  15
ATOM     15  S   LIG    1       26.484 -13.436   3.125  0.00  0.00    +0.057 S 
ATOM     16  O   LIG    1       27.365 -13.208   4.247  0.00  0.00    -0.153 OA
ATOM     17  O   LIG    1       25.804 -12.382   2.414  0.00  0.00    -0.153 OA
BRANCH  15  18
ATOM     18  N   LIG    1       27.448 -14.183   1.965  0.00  0.00    -0.203 NA
ATOM     19  H   LIG    1       28.418 -13.883   2.069  0.00  0.00    +0.144 HD
ATOM     20  H   LIG    1       27.061 -14.026   1.033  0.00  0.00    +0.144 HD
ENDBRANCH  15  18
ENDBRANCH  10  15
BRANCH   1  22
ATOM     21  C   LIG    1       22.690 -20.910   5.655  0.00  0.00    +0.007 C 
ATOM     22  C   LIG    1       21.859 -20.013   4.743  0.00  0.00    +0.038 C 
ENDBRANCH   1  22
TORSDOF 3
ENDMDL
MODEL 2
REMARK VINA RESULT:      -3.9      3.036      5.736
REMARK  Name = *****
REMARK                            x       y       z     vdW  Elec       q    Type
REMARK                         _______ _______ _______ _____ _____    ______ ____
ROOT
ATOM      1  C   LIG    1       24.391 -13.419   4.121  0.00  0.00    +0.158 C 
ATOM      2  N   LIG    1       25.501 -13.844   3.320  0.00  0.00    -0.293 N 
ATOM      3  H   LIG    1       26.250 -13.189   3.144  0.00  0.00    +0.151 HD
ATOM      4  C   LIG    1       25.921 -15.143   3.312  0.00  0.00    +0.247 C 
ATOM      5  O   LIG    1       27.057 -15.453   2.976  0.00  0.00    -0.270 OA
ATOM      6  C   LIG    1       24.917 -16.150   3.704  0.00  0.00    +0.059 A 
ATOM      7  C   LIG    1       23.632 -15.712   4.038  0.00  0.00    +0.042 A 
ATOM      8  C   LIG    1       22.653 -16.680   4.293  0.00  0.00    +0.045 A 
ATOM      9  C   LIG    1       22.969 -18.049   4.284  0.00  0.00    +0.069 A 
ATOM     10  C   LIG    1       24.272 -18.456   3.990  0.00  0.00    +0.124 A 
ATOM     11 CL   LIG    1       21.686 -19.151   4.632  0.00  0.00    -0.082 Cl
ATOM     12  C   LIG    1       25.250 -17.504   3.694  0.00  0.00    +0.045 A 
ATOM     13  N   LIG    1       23.290 -14.355   3.960  0.00  0.00    -0.325 N 
ATOM     14  H   LIG    1       22.480 -14.117   4.526  0.00  0.00    +0.148 HD
ENDROOT
BRANCH  10  15
ATOM     15  S   LIG    1       24.695 -20.165   3.969  0.00  0.00    +0.057 S 
ATOM     16  O   LIG    1       24.492 -20.677   2.633  0.00  0.00    -0.153 OA
ATOM     17  O   LIG    1       24.165 -20.789   5.155  0.00  0.00    -0.153 OA
BRANCH  15  18
ATOM     18  N   LIG    1       26.365 -20.181   4.186  0.00  0.00    -0.203 NA
ATOM     19  H   LIG    1       26.625 -19.556   4.951  0.00  0.00    +0.144 HD
ATOM     20  H   LIG    1       26.834 -19.977   3.303  0.00  0.00    +0.144 HD
ENDBRANCH  15  18
ENDBRANCH  10  15
BRANCH   1  22
ATOM     21  C   LIG    1       24.184 -11.639   2.287  0.00  0.00    +0.007 C 
ATOM     22  C   LIG    1       23.943 -12.002   3.749  0.00  0.00    +0.038 C 
ENDBRANCH   1  22
TORSDOF 3
ENDMDL
MODEL 3
REMARK VINA RESULT:      -2.8      3.367      6.300
REMARK  Name = *****
REMARK                            x       y       z     vdW  Elec       q    Type
REMARK                         _______ _______ _______ _____ _____    ______ ____
ROOT
ATOM      1  C   LIG    1       26.851 -13.986   2.950  0.00  0.00    +0.158 C 
ATOM      2  N   LIG    1       25.769 -13.533   3.772  0.00  0.00    -0.293 N 
ATOM      3  H   LIG    1       25.569 -12.543   3.809  0.00  0.00    +0.151 HD
ATOM      4  C   LIG    1       24.662 -14.305   3.986  0.00  0.00    +0.247 C 
ATOM      5  O   LIG    1       23.592 -13.819   4.330  0.00  0.00    -0.270 OA
ATOM      6  C   LIG    1       24.841 -15.757   3.804  0.00  0.00    +0.059 A 
ATOM      7  C   LIG    1       26.107 -16.231   3.446  0.00  0.00    +0.042 A 
ATOM      8  C   LIG    1       26.300 -17.616   3.394  0.00  0.00    +0.045 A 
ATOM      9  C   LIG    1       25.236 -18.505   3.623  0.00  0.00    +0.069 A 
ATOM     10  C   LIG    1       23.970 -18.002   3.936  0.00  0.00    +0.124 A 
ATOM     11 CL   LIG    1       25.586 -20.192   3.512  0.00  0.00    -0.082 Cl
ATOM     12  C   LIG    1       23.772 -16.622   4.032  0.00  0.00    +0.045 A 
ATOM     13  N   LIG    1       27.191 -15.354   3.306  0.00  0.00    -0.325 N 
ATOM     14  H   LIG    1       27.941 -15.738   2.736  0.00  0.00    +0.148 HD
ENDROOT
BRANCH  10  15
ATOM     15  S   LIG    1       22.620 -19.092   4.231  0.00  0.00    +0.057 S 
ATOM     16  O   LIG    1       22.898 -20.359   3.594  0.00  0.00    -0.153 OA
ATOM     17  O   LIG    1       21.389 -18.363   4.059  0.00  0.00    -0.153 OA
BRANCH  15  18
ATOM     18  N   LIG    1       22.701 -19.414   5.882  0.00  0.00    -0.203 NA
ATOM     19  H   LIG    1       21.770 -19.358   6.296  0.00  0.00    +0.144 HD
ATOM     20  H   LIG    1       23.392 -18.804   6.323  0.00  0.00    +0.144 HD
ENDBRANCH  15  18
ENDBRANCH  10  15
BRANCH   1  22
ATOM     21  C   LIG    1       28.466 -12.782   4.538  0.00  0.00    +0.007 C 
ATOM     22  C   LIG    1       28.079 -13.079   3.093  0.00  0.00    +0.038 C 
ENDBRANCH   1  22
TORSDOF 3
ENDMDL
MODEL 4
REMARK VINA RESULT:      -2.2      1.991      2.469
REMARK  Name = *****
REMARK                            x       y       z     vdW  Elec       q    Type
REMARK                         _______ _______ _______ _____ _____    ______ ____
ROOT
ATOM      1  C   LIG    1       25.490 -19.662   3.602  0.00  0.00    +0.158 C 
ATOM      2  N   LIG    1       26.641 -19.578   4.452  0.00  0.00    -0.293 N 
ATOM      3  H   LIG    1       27.144 -20.426   4.672  0.00  0.00    +0.151 HD
ATOM      4  C   LIG    1       27.439 -18.470   4.466  0.00  0.00    +0.247 C 
ATOM      5  O   LIG    1       28.600 -18.514   4.854  0.00  0.00    -0.270 OA
ATOM      6  C   LIG    1       26.811 -17.214   4.014  0.00  0.00    +0.059 A 
ATOM      7  C   LIG    1       25.469 -17.245   3.622  0.00  0.00    +0.042 A 
ATOM      8  C   LIG    1       24.847 -16.031   3.310  0.00  0.00    +0.045 A 
ATOM      9  C   LIG    1       25.568 -14.825   3.319  0.00  0.00    +0.069 A 
ATOM     10  C   LIG    1       26.919 -14.829   3.671  0.00  0.00    +0.124 A 
ATOM     11 CL   LIG    1       24.702 -13.392   2.896  0.00  0.00    -0.082 Cl
ATOM     12  C   LIG    1       27.544 -16.028   4.026  0.00  0.00    +0.045 A 
ATOM     13  N   LIG    1       24.724 -18.430   3.699  0.00  0.00    -0.325 N 
ATOM     14  H   LIG    1       23.905 -18.423   3.096  0.00  0.00    +0.148 HD
ENDROOT
BRANCH  10  15
ATOM     15  S   LIG    1       27.846 -13.332   3.694  0.00  0.00    +0.057 S 
ATOM     16  O   LIG    1       27.178 -12.360   2.859  0.00  0.00    -0.153 OA
ATOM     17  O   LIG    1       29.246 -13.652   3.588  0.00  0.00    -0.153 OA
BRANCH  15  18
ATOM     18  N   LIG    1       27.656 -12.753   5.264  0.00  0.00    -0.203 NA
ATOM     19  H   LIG    1       28.495 -12.250   5.555  0.00  0.00    +0.144 HD
ATOM     20  H   LIG    1       27.389 -13.515   5.888  0.00  0.00    +0.144 HD
ENDBRANCH  15  18
ENDBRANCH  10  15
BRANCH   1  22
ATOM     21  C   LIG    1       23.565 -20.564   5.037  0.00  0.00    +0.007 C 
ATOM     22  C   LIG    1       24.612 -20.864   3.968  0.00  0.00    +0.038 C 
ENDBRANCH   1  22
TORSDOF 3
ENDMDL
MODEL 5
REMARK VINA RESULT:      -2.2      2.350      2.824
REMARK  Name = *****
REMARK                            x       y       z     vdW  Elec       q    Type
REMARK                         _______ _______ _______ _____ _____    ______ ____
ROOT
ATOM      1  C   LIG    1       24.531 -19.715   4.493  0.00  0.00    +0.158 C 
ATOM      2  N   LIG    1       23.202 -19.203   4.336  0.00  0.00    -0.293 N 
ATOM      3  H   LIG    1       22.425 -19.762   4.663  0.00  0.00    +0.151 HD
ATOM      4  C   LIG    1       22.943 -17.863   4.376  0.00  0.00    +0.247 C 
ATOM      5  O   LIG    1       21.830 -17.427   4.641  0.00  0.00    -0.270 OA
ATOM      6  C   LIG    1       24.076 -16.975   4.054  0.00  0.00    +0.059 A 
ATOM      7  C   LIG    1       25.304 -17.557   3.727  0.00  0.00    +0.042 A 
ATOM      8  C   LIG    1       26.340 -16.715   3.306  0.00  0.00    +0.045 A 
ATOM      9  C   LIG    1       26.174 -15.320   3.282  0.00  0.00    +0.069 A 
ATOM     10  C   LIG    1       24.950 -14.762   3.657  0.00  0.00    +0.124 A 
ATOM     11 CL   LIG    1       27.527 -14.379   2.764  0.00  0.00    -0.082 Cl
ATOM     12  C   LIG    1       23.893 -15.593   4.040  0.00  0.00    +0.045 A 
ATOM     13  N   LIG    1       25.446 -18.950   3.662  0.00  0.00    -0.325 N 
ATOM     14  H   LIG    1       26.413 -19.255   3.751  0.00  0.00    +0.148 HD
ENDROOT
BRANCH  10  15
ATOM     15  S   LIG    1       24.713 -13.018   3.633  0.00  0.00    +0.057 S 
ATOM     16  O   LIG    1       25.988 -12.380   3.396  0.00  0.00    -0.153 OA
ATOM     17  O   LIG    1       23.824 -12.656   4.708  0.00  0.00    -0.153 OA
BRANCH  15  18
ATOM     18  N   LIG    1       23.825 -12.740   2.230  0.00  0.00    -0.203 NA
ATOM     19  H   LIG    1       24.092 -13.411   1.508  0.00  0.00    +0.144 HD
ATOM     20  H   LIG    1       23.916 -11.764   1.946  0.00  0.00    +0.144 HD
ENDBRANCH  15  18
ENDBRANCH  10  15
BRANCH   1  22
ATOM     21  C   LIG    1       23.836 -21.572   2.866  0.00  0.00    +0.007 C 
ATOM     22  C   LIG    1       24.603 -21.203   4.132  0.00  0.00    +0.038 C 
ENDBRANCH   1  22
TORSDOF 3
ENDMDL
MODEL 6
REMARK VINA RESULT:      -1.7      2.203      2.724
REMARK  Name = *****
REMARK                            x       y       z     vdW  Elec       q    Type
REMARK                         _______ _______ _______ _____ _____    ______ ____
ROOT
ATOM      1  C   LIG    1       23.467 -19.492   4.659  0.00  0.00    +0.158 C 
ATOM      2  N   LIG    1       22.267 -18.712   4.595  0.00  0.00    -0.293 N 
ATOM      3  H   LIG    1       21.415 -19.101   4.976  0.00  0.00    +0.151 HD
ATOM      4  C   LIG    1       22.298 -17.348   4.652  0.00  0.00    +0.247 C 
ATOM      5  O   LIG    1       21.321 -16.693   4.995  0.00  0.00    -0.270 OA
ATOM      6  C   LIG    1       23.566 -16.712   4.252  0.00  0.00    +0.059 A 
ATOM      7  C   LIG    1       24.620 -17.533   3.840  0.00  0.00    +0.042 A 
ATOM      8  C   LIG    1       25.778 -16.919   3.347  0.00  0.00    +0.045 A 
ATOM      9  C   LIG    1       25.906 -15.520   3.335  0.00  0.00    +0.069 A 
ATOM     10  C   LIG    1       24.854 -14.725   3.794  0.00  0.00    +0.124 A 
ATOM     11 CL   LIG    1       27.387 -14.875   2.724  0.00  0.00    -0.082 Cl
ATOM     12  C   LIG    1       23.676 -15.322   4.250  0.00  0.00    +0.045 A 
ATOM     13  N   LIG    1       24.463 -18.923   3.766  0.00  0.00    -0.325 N 
ATOM     14  H   LIG    1       25.348 -19.424   3.788  0.00  0.00    +0.148 HD
ENDROOT
BRANCH  10  15
ATOM     15  S   LIG    1       24.986 -12.969   3.786  0.00  0.00    +0.057 S 
ATOM     16  O   LIG    1       23.767 -12.409   4.323  0.00  0.00    -0.153 OA
ATOM     17  O   LIG    1       25.577 -12.554   2.539  0.00  0.00    -0.153 OA
BRANCH  15  18
ATOM     18  N   LIG    1       26.159 -12.638   4.947  0.00  0.00    -0.203 NA
ATOM     19  H   LIG    1       25.725 -12.539   5.866  0.00  0.00    +0.144 HD
ATOM     20  H   LIG    1       26.718 -11.832   4.661  0.00  0.00    +0.144 HD
ENDBRANCH  15  18
ENDBRANCH  10  15
BRANCH   1  22
ATOM     21  C   LIG    1       21.859 -21.486   4.793  0.00  0.00    +0.007 C 
ATOM     22  C   LIG    1       23.201 -20.957   4.295  0.00  0.00    +0.038 C 
ENDBRANCH   1  22
TORSDOF 3
ENDMDL
MODEL 7
REMARK VINA RESULT:      -1.7      2.871      3.814
REMARK  Name = *****
REMARK                            x       y       z     vdW  Elec       q    Type
REMARK                         _______ _______ _______ _____ _____    ______ ____
ROOT
ATOM      1  C   LIG    1       27.593 -18.923   5.044  0.00  0.00    +0.158 C 
ATOM      2  N   LIG    1       26.520 -19.202   4.137  0.00  0.00    -0.293 N 
ATOM      3  H   LIG    1       26.080 -20.111   4.171  0.00  0.00    +0.151 HD
ATOM      4  C   LIG    1       25.674 -18.219   3.708  0.00  0.00    +0.247 C 
ATOM      5  O   LIG    1       24.556 -18.472   3.277  0.00  0.00    -0.270 OA
ATOM      6  C   LIG    1       26.197 -16.842   3.770  0.00  0.00    +0.059 A 
ATOM      7  C   LIG    1       27.499 -16.646   4.242  0.00  0.00    +0.042 A 
ATOM      8  C   LIG    1       28.031 -15.352   4.185  0.00  0.00    +0.045 A 
ATOM      9  C   LIG    1       27.257 -14.270   3.735  0.00  0.00    +0.069 A 
ATOM     10  C   LIG    1       25.943 -14.488   3.311  0.00  0.00    +0.124 A 
ATOM     11 CL   LIG    1       28.011 -12.717   3.727  0.00  0.00    -0.082 Cl
ATOM     12  C   LIG    1       25.412 -15.780   3.323  0.00  0.00    +0.045 A 
ATOM     13  N   LIG    1       28.304 -17.733   4.605  0.00  0.00    -0.325 N 
ATOM     14  H   LIG    1       29.065 -17.473   5.228  0.00  0.00    +0.148 HD
ENDROOT
BRANCH  10  15
ATOM     15  S   LIG    1       24.951 -13.150   2.740  0.00  0.00    +0.057 S 
ATOM     16  O   LIG    1       23.662 -13.667   2.339  0.00  0.00    -0.153 OA
ATOM     17  O   LIG    1       25.762 -12.292   1.914  0.00  0.00    -0.153 OA
BRANCH  15  18
ATOM     18  N   LIG    1       24.640 -12.245   4.125  0.00  0.00    -0.203 NA
ATOM     19  H   LIG    1       24.276 -11.326   3.869  0.00  0.00    +0.144 HD
ATOM     20  H   LIG    1       25.471 -12.215   4.717  0.00  0.00    +0.144 HD
ENDBRANCH  15  18
ENDBRANCH  10  15
BRANCH   1  22
ATOM     21  C   LIG    1       28.915 -20.492   6.584  0.00  0.00    +0.007 C 
ATOM     22  C   LIG    1       28.558 -20.110   5.150  0.00  0.00    +0.038 C 
ENDBRANCH   1  22
TORSDOF 3
ENDMDL
MODEL 8
REMARK VINA RESULT:      -1.2      3.433      5.955
REMARK  Name = *****
REMARK                            x       y       z     vdW  Elec       q    Type
REMARK                         _______ _______ _______ _____ _____    ______ ____
ROOT
ATOM      1  C   LIG    1       26.031 -14.517   3.724  0.00  0.00    +0.158 C 
ATOM      2  N   LIG    1       27.078 -15.418   3.342  0.00  0.00    -0.293 N 
ATOM      3  H   LIG    1       28.027 -15.074   3.312  0.00  0.00    +0.151 HD
ATOM      4  C   LIG    1       27.007 -16.754   3.621  0.00  0.00    +0.247 C 
ATOM      5  O   LIG    1       28.009 -17.457   3.673  0.00  0.00    -0.270 OA
ATOM      6  C   LIG    1       25.654 -17.301   3.826  0.00  0.00    +0.059 A 
ATOM      7  C   LIG    1       24.562 -16.436   3.712  0.00  0.00    +0.042 A 
ATOM      8  C   LIG    1       23.277 -16.985   3.789  0.00  0.00    +0.045 A 
ATOM      9  C   LIG    1       23.088 -18.353   4.045  0.00  0.00    +0.069 A 
ATOM     10  C   LIG    1       24.197 -19.187   4.199  0.00  0.00    +0.124 A 
ATOM     11 CL   LIG    1       21.457 -18.915   4.138  0.00  0.00    -0.082 Cl
ATOM     12  C   LIG    1       25.487 -18.661   4.084  0.00  0.00    +0.045 A 
ATOM     13  N   LIG    1       24.743 -15.090   3.367  0.00  0.00    -0.325 N 
ATOM     14  H   LIG    1       23.959 -14.502   3.637  0.00  0.00    +0.148 HD
ENDROOT
BRANCH  10  15
ATOM     15  S   LIG    1       23.990 -20.907   4.517  0.00  0.00    +0.057 S 
ATOM     16  O   LIG    1       23.654 -21.571   3.279  0.00  0.00    -0.153 OA
ATOM     17  O   LIG    1       23.244 -21.065   5.739  0.00  0.00    -0.153 OA
BRANCH  15  18
ATOM     18  N   LIG    1       25.541 -21.448   4.888  0.00  0.00    -0.203 NA
ATOM     19  H   LIG    1       26.208 -21.101   4.198  0.00  0.00    +0.144 HD
ATOM     20  H   LIG    1       25.541 -22.464   4.995  0.00  0.00    +0.144 HD
ENDBRANCH  15  18
ENDBRANCH  10  15
BRANCH   1  22
ATOM     21  C   LIG    1       24.893 -12.486   2.648  0.00  0.00    +0.007 C 
ATOM     22  C   LIG    1       26.205 -13.146   3.062  0.00  0.00    +0.038 C 
ENDBRANCH   1  22
TORSDOF 3
ENDMDL
