MODEL 1
REMARK VINA RESULT:      -9.1      0.000      0.000
REMARK  Name = *****
REMARK                            x       y       z     vdW  Elec       q    Type
REMARK                         _______ _______ _______ _____ _____    ______ ____
ROOT
ATOM      1  C   LIG    1       28.863 -20.585   7.111  0.00  0.00    +0.121 A 
ATOM      2  C   LIG    1       29.759 -21.095   8.053  0.00  0.00    +0.046 A 
ATOM      3  C   LIG    1       30.764 -20.282   8.596  0.00  0.00    +0.007 A 
ATOM      4  C   LIG    1       30.891 -18.947   8.191  0.00  0.00    -0.046 A 
ATOM      5  C   LIG    1       30.012 -18.456   7.217  0.00  0.00    +0.007 A 
ATOM      6  C   LIG    1       29.014 -19.270   6.674  0.00  0.00    +0.046 A 
ENDROOT
BRANCH   1   7
ATOM      7  O   LIG    1       27.879 -21.440   6.675  0.00  0.00    -0.490 OA
BRANCH   7   8
ATOM      8  C   LIG    1       27.033 -21.947   7.720  0.00  0.00    +0.248 C 
BRANCH   8   9
ATOM      9  C   LIG    1       25.634 -21.316   7.628  0.00  0.00    +0.147 C 
BRANCH   9  11
ATOM     10  C   LIG    1       24.061 -22.950   6.586  0.00  0.00    +0.131 C 
ATOM     11  N   LIG    1       24.885 -21.748   6.429  0.00  0.00    -0.315 N 
BRANCH  11  12
ATOM     12  C   LIG    1       24.348 -20.773   5.580  0.00  0.00    +0.121 A 
ATOM     13  N   LIG    1       25.119 -20.252   4.598  0.00  0.00    -0.240 NA
ATOM     14  C   LIG    1       24.598 -19.299   3.789  0.00  0.00    +0.113 A 
ATOM     15  C   LIG    1       23.304 -18.828   3.883  0.00  0.00    +0.020 A 
ATOM     16  C   LIG    1       22.514 -19.337   4.897  0.00  0.00    +0.005 A 
ATOM     17  C   LIG    1       23.048 -20.294   5.761  0.00  0.00    +0.043 A 
ENDBRANCH  11  12
ENDBRANCH   9  11
ENDBRANCH   8   9
ENDBRANCH   7   8
ENDBRANCH   1   7
BRANCH   4  18
ATOM     18  C   LIG    1       31.942 -18.031   8.771  0.00  0.00    +0.059 C 
BRANCH  18  19
ATOM     19  C   LIG    1       31.382 -16.821   9.529  0.00  0.00    +0.146 C 
ATOM     20  C   LIG    1       32.460 -15.857   9.999  0.00  0.00    +0.234 C 
ATOM     21  O   LIG    1       33.025 -15.029   9.299  0.00  0.00    -0.274 OA
ATOM     22  N   LIG    1       32.755 -16.028  11.318  0.00  0.00    -0.246 N 
ATOM     23  H   LIG    1       33.483 -15.481  11.758  0.00  0.00    +0.158 HD
ATOM     24  C   LIG    1       31.956 -16.822  12.062  0.00  0.00    +0.279 C 
ATOM     25  O   LIG    1       32.114 -17.080  13.253  0.00  0.00    -0.263 OA
ATOM     26  S   LIG    1       30.639 -17.428  11.099  0.00  0.00    -0.054 S 
ENDBRANCH  18  19
ENDBRANCH   4  18
TORSDOF 7
ENDMDL
MODEL 2
REMARK VINA RESULT:      -8.9      2.805      4.791
REMARK  Name = *****
REMARK                            x       y       z     vdW  Elec       q    Type
REMARK                         _______ _______ _______ _____ _____    ______ ____
ROOT
ATOM      1  C   LIG    1       25.569 -20.345   6.116  0.00  0.00    +0.121 A 
ATOM      2  C   LIG    1       26.793 -20.264   5.450  0.00  0.00    +0.046 A 
ATOM      3  C   LIG    1       27.995 -20.496   6.133  0.00  0.00    +0.007 A 
ATOM      4  C   LIG    1       27.985 -20.802   7.500  0.00  0.00    -0.046 A 
ATOM      5  C   LIG    1       26.754 -20.843   8.167  0.00  0.00    +0.007 A 
ATOM      6  C   LIG    1       25.558 -20.606   7.485  0.00  0.00    +0.046 A 
ENDROOT
BRANCH   1   7
ATOM      7  O   LIG    1       24.441 -20.155   5.352  0.00  0.00    -0.490 OA
BRANCH   7   8
ATOM      8  C   LIG    1       23.574 -21.298   5.285  0.00  0.00    +0.248 C 
BRANCH   8   9
ATOM      9  C   LIG    1       24.400 -22.589   5.167  0.00  0.00    +0.147 C 
BRANCH   9  11
ATOM     10  C   LIG    1       22.760 -23.488   6.821  0.00  0.00    +0.131 C 
ATOM     11  N   LIG    1       24.104 -23.563   6.239  0.00  0.00    -0.315 N 
BRANCH  11  12
ATOM     12  C   LIG    1       24.631 -24.856   6.142  0.00  0.00    +0.121 A 
ATOM     13  N   LIG    1       23.794 -25.899   5.937  0.00  0.00    -0.240 NA
ATOM     14  C   LIG    1       24.308 -27.149   5.858  0.00  0.00    +0.113 A 
ATOM     15  C   LIG    1       25.654 -27.439   5.953  0.00  0.00    +0.020 A 
ATOM     16  C   LIG    1       26.517 -26.383   6.184  0.00  0.00    +0.005 A 
ATOM     17  C   LIG    1       25.998 -25.093   6.302  0.00  0.00    +0.043 A 
ENDBRANCH  11  12
ENDBRANCH   9  11
ENDBRANCH   8   9
ENDBRANCH   7   8
ENDBRANCH   1   7
BRANCH   4  18
ATOM     18  C   LIG    1       29.255 -21.085   8.267  0.00  0.00    +0.059 C 
BRANCH  18  19
ATOM     19  C   LIG    1       30.419 -20.143   7.936  0.00  0.00    +0.146 C 
ATOM     20  C   LIG    1       31.415 -19.999   9.075  0.00  0.00    +0.234 C 
ATOM     21  O   LIG    1       32.285 -20.808   9.363  0.00  0.00    -0.274 OA
ATOM     22  N   LIG    1       31.222 -18.848   9.778  0.00  0.00    -0.246 N 
ATOM     23  H   LIG    1       31.789 -18.638  10.589  0.00  0.00    +0.158 HD
ATOM     24  C   LIG    1       30.376 -17.921   9.281  0.00  0.00    +0.279 C 
ATOM     25  O   LIG    1       30.093 -16.851   9.815  0.00  0.00    -0.263 OA
ATOM     26  S   LIG    1       29.739 -18.444   7.747  0.00  0.00    -0.054 S 
ENDBRANCH  18  19
ENDBRANCH   4  18
TORSDOF 7
ENDMDL
MODEL 3
REMARK VINA RESULT:      -8.8      4.090      6.505
REMARK  Name = *****
REMARK                            x       y       z     vdW  Elec       q    Type
REMARK                         _______ _______ _______ _____ _____    ______ ____
ROOT
ATOM      1  C   LIG    1       24.980 -22.632   6.505  0.00  0.00    +0.121 A 
ATOM      2  C   LIG    1       25.279 -21.465   5.798  0.00  0.00    +0.046 A 
ATOM      3  C   LIG    1       26.307 -20.613   6.226  0.00  0.00    +0.007 A 
ATOM      4  C   LIG    1       27.042 -20.916   7.379  0.00  0.00    -0.046 A 
ATOM      5  C   LIG    1       26.709 -22.068   8.103  0.00  0.00    +0.007 A 
ATOM      6  C   LIG    1       25.681 -22.912   7.677  0.00  0.00    +0.046 A 
ENDROOT
BRANCH   1   7
ATOM      7  O   LIG    1       23.993 -23.432   5.980  0.00  0.00    -0.490 OA
BRANCH   7   8
ATOM      8  C   LIG    1       23.961 -24.762   6.522  0.00  0.00    +0.248 C 
BRANCH   8   9
ATOM      9  C   LIG    1       24.116 -25.800   5.400  0.00  0.00    +0.147 C 
BRANCH   9  11
ATOM     10  C   LIG    1       26.511 -26.139   6.016  0.00  0.00    +0.131 C 
ATOM     11  N   LIG    1       25.230 -26.742   5.636  0.00  0.00    -0.315 N 
BRANCH  11  12
ATOM     12  C   LIG    1       24.957 -27.973   6.243  0.00  0.00    +0.121 A 
ATOM     13  N   LIG    1       24.207 -28.886   5.582  0.00  0.00    -0.240 NA
ATOM     14  C   LIG    1       23.935 -30.070   6.180  0.00  0.00    +0.113 A 
ATOM     15  C   LIG    1       24.394 -30.428   7.431  0.00  0.00    +0.020 A 
ATOM     16  C   LIG    1       25.143 -29.495   8.124  0.00  0.00    +0.005 A 
ATOM     17  C   LIG    1       25.403 -28.257   7.536  0.00  0.00    +0.043 A 
ENDBRANCH  11  12
ENDBRANCH   9  11
ENDBRANCH   8   9
ENDBRANCH   7   8
ENDBRANCH   1   7
BRANCH   4  18
ATOM     18  C   LIG    1       28.174 -20.039   7.859  0.00  0.00    +0.059 C 
BRANCH  18  19
ATOM     19  C   LIG    1       29.568 -20.498   7.411  0.00  0.00    +0.146 C 
ATOM     20  C   LIG    1       30.481 -20.858   8.571  0.00  0.00    +0.234 C 
ATOM     21  O   LIG    1       30.450 -21.905   9.201  0.00  0.00    -0.274 OA
ATOM     22  N   LIG    1       31.356 -19.854   8.860  0.00  0.00    -0.246 N 
ATOM     23  H   LIG    1       32.000 -19.938   9.635  0.00  0.00    +0.158 HD
ATOM     24  C   LIG    1       31.458 -18.818   8.000  0.00  0.00    +0.279 C 
ATOM     25  O   LIG    1       32.187 -17.839   8.143  0.00  0.00    -0.263 OA
ATOM     26  S   LIG    1       30.414 -19.064   6.629  0.00  0.00    -0.054 S 
ENDBRANCH  18  19
ENDBRANCH   4  18
TORSDOF 7
ENDMDL
MODEL 4
REMARK VINA RESULT:      -8.8      4.817      9.946
REMARK  Name = *****
REMARK                            x       y       z     vdW  Elec       q    Type
REMARK                         _______ _______ _______ _____ _____    ______ ____
ROOT
ATOM      1  C   LIG    1       24.749 -22.406   7.410  0.00  0.00    +0.121 A 
ATOM      2  C   LIG    1       23.484 -22.863   7.034  0.00  0.00    +0.046 A 
ATOM      3  C   LIG    1       23.297 -24.189   6.617  0.00  0.00    +0.007 A 
ATOM      4  C   LIG    1       24.383 -25.072   6.560  0.00  0.00    -0.046 A 
ATOM      5  C   LIG    1       25.654 -24.594   6.902  0.00  0.00    +0.007 A 
ATOM      6  C   LIG    1       25.838 -23.271   7.312  0.00  0.00    +0.046 A 
ENDROOT
BRANCH   1   7
ATOM      7  O   LIG    1       24.825 -21.108   7.855  0.00  0.00    -0.490 OA
BRANCH   7   8
ATOM      8  C   LIG    1       25.846 -20.324   7.217  0.00  0.00    +0.248 C 
BRANCH   8   9
ATOM      9  C   LIG    1       27.128 -20.325   8.065  0.00  0.00    +0.147 C 
BRANCH   9  11
ATOM     10  C   LIG    1       28.153 -19.937   5.823  0.00  0.00    +0.131 C 
ATOM     11  N   LIG    1       28.355 -20.171   7.256  0.00  0.00    -0.315 N 
BRANCH  11  12
ATOM     12  C   LIG    1       29.453 -19.504   7.811  0.00  0.00    +0.121 A 
ATOM     13  N   LIG    1       29.304 -18.850   8.987  0.00  0.00    -0.240 NA
ATOM     14  C   LIG    1       30.366 -18.195   9.513  0.00  0.00    +0.113 A 
ATOM     15  C   LIG    1       31.619 -18.163   8.935  0.00  0.00    +0.020 A 
ATOM     16  C   LIG    1       31.776 -18.810   7.722  0.00  0.00    +0.005 A 
ATOM     17  C   LIG    1       30.683 -19.460   7.151  0.00  0.00    +0.043 A 
ENDBRANCH  11  12
ENDBRANCH   9  11
ENDBRANCH   8   9
ENDBRANCH   7   8
ENDBRANCH   1   7
BRANCH   4  18
ATOM     18  C   LIG    1       24.219 -26.514   6.143  0.00  0.00    +0.059 C 
BRANCH  18  19
ATOM     19  C   LIG    1       25.400 -27.420   6.514  0.00  0.00    +0.146 C 
ATOM     20  C   LIG    1       26.186 -27.904   5.307  0.00  0.00    +0.234 C 
ATOM     21  O   LIG    1       27.014 -27.249   4.690  0.00  0.00    -0.274 OA
ATOM     22  N   LIG    1       25.850 -29.177   4.958  0.00  0.00    -0.246 N 
ATOM     23  H   LIG    1       26.266 -29.617   4.147  0.00  0.00    +0.158 HD
ATOM     24  C   LIG    1       25.078 -29.896   5.800  0.00  0.00    +0.279 C 
ATOM     25  O   LIG    1       24.684 -31.044   5.605  0.00  0.00    -0.263 OA
ATOM     26  S   LIG    1       24.721 -28.972   7.232  0.00  0.00    -0.054 S 
ENDBRANCH  18  19
ENDBRANCH   4  18
TORSDOF 7
ENDMDL
MODEL 5
REMARK VINA RESULT:      -8.5      3.701      6.170
REMARK  Name = *****
REMARK                            x       y       z     vdW  Elec       q    Type
REMARK                         _______ _______ _______ _____ _____    ______ ____
ROOT
ATOM      1  C   LIG    1       24.543 -21.965   6.795  0.00  0.00    +0.121 A 
ATOM      2  C   LIG    1       25.411 -21.435   5.838  0.00  0.00    +0.046 A 
ATOM      3  C   LIG    1       26.566 -20.741   6.227  0.00  0.00    +0.007 A 
ATOM      4  C   LIG    1       26.859 -20.559   7.584  0.00  0.00    -0.046 A 
ATOM      5  C   LIG    1       25.962 -21.061   8.536  0.00  0.00    +0.007 A 
ATOM      6  C   LIG    1       24.810 -21.747   8.146  0.00  0.00    +0.046 A 
ENDROOT
BRANCH   1   7
ATOM      7  O   LIG    1       23.466 -22.674   6.320  0.00  0.00    -0.490 OA
BRANCH   7   8
ATOM      8  C   LIG    1       23.425 -24.044   6.753  0.00  0.00    +0.248 C 
BRANCH   8   9
ATOM      9  C   LIG    1       23.928 -24.972   5.636  0.00  0.00    +0.147 C 
BRANCH   9  11
ATOM     10  C   LIG    1       26.125 -25.025   6.819  0.00  0.00    +0.131 C 
ATOM     11  N   LIG    1       25.125 -25.746   6.025  0.00  0.00    -0.315 N 
BRANCH  11  12
ATOM     12  C   LIG    1       24.979 -27.099   6.353  0.00  0.00    +0.121 A 
ATOM     13  N   LIG    1       25.625 -27.593   7.434  0.00  0.00    -0.240 NA
ATOM     14  C   LIG    1       25.491 -28.905   7.738  0.00  0.00    +0.113 A 
ATOM     15  C   LIG    1       24.709 -29.789   7.021  0.00  0.00    +0.020 A 
ATOM     16  C   LIG    1       24.062 -29.300   5.901  0.00  0.00    +0.005 A 
ATOM     17  C   LIG    1       24.218 -27.958   5.556  0.00  0.00    +0.043 A 
ENDBRANCH  11  12
ENDBRANCH   9  11
ENDBRANCH   8   9
ENDBRANCH   7   8
ENDBRANCH   1   7
BRANCH   4  18
ATOM     18  C   LIG    1       28.106 -19.842   8.045  0.00  0.00    +0.059 C 
BRANCH  18  19
ATOM     19  C   LIG    1       29.406 -20.360   7.416  0.00  0.00    +0.146 C 
ATOM     20  C   LIG    1       30.423 -20.828   8.444  0.00  0.00    +0.234 C 
ATOM     21  O   LIG    1       30.398 -21.900   9.030  0.00  0.00    -0.274 OA
ATOM     22  N   LIG    1       31.387 -19.891   8.668  0.00  0.00    -0.246 N 
ATOM     23  H   LIG    1       32.110 -20.051   9.357  0.00  0.00    +0.158 HD
ATOM     24  C   LIG    1       31.455 -18.824   7.845  0.00  0.00    +0.279 C 
ATOM     25  O   LIG    1       32.257 -17.897   7.940  0.00  0.00    -0.263 OA
ATOM     26  S   LIG    1       30.246 -18.942   6.598  0.00  0.00    -0.054 S 
ENDBRANCH  18  19
ENDBRANCH   4  18
TORSDOF 7
ENDMDL
MODEL 6
REMARK VINA RESULT:      -8.4      3.291      8.660
REMARK  Name = *****
REMARK                            x       y       z     vdW  Elec       q    Type
REMARK                         _______ _______ _______ _____ _____    ______ ____
ROOT
ATOM      1  C   LIG    1       27.367 -21.636   8.097  0.00  0.00    +0.121 A 
ATOM      2  C   LIG    1       26.949 -20.401   7.597  0.00  0.00    +0.046 A 
ATOM      3  C   LIG    1       25.614 -20.199   7.217  0.00  0.00    +0.007 A 
ATOM      4  C   LIG    1       24.682 -21.239   7.323  0.00  0.00    -0.046 A 
ATOM      5  C   LIG    1       25.121 -22.486   7.789  0.00  0.00    +0.007 A 
ATOM      6  C   LIG    1       26.452 -22.686   8.162  0.00  0.00    +0.046 A 
ENDROOT
BRANCH   1   7
ATOM      7  O   LIG    1       28.680 -21.724   8.493  0.00  0.00    -0.490 OA
BRANCH   7   8
ATOM      8  C   LIG    1       29.614 -21.127   7.578  0.00  0.00    +0.248 C 
BRANCH   8   9
ATOM      9  C   LIG    1       30.739 -20.420   8.349  0.00  0.00    +0.147 C 
BRANCH   9  11
ATOM     10  C   LIG    1       30.035 -18.533   6.875  0.00  0.00    +0.131 C 
ATOM     11  N   LIG    1       30.917 -19.009   7.944  0.00  0.00    -0.315 N 
BRANCH  11  12
ATOM     12  C   LIG    1       31.220 -18.058   8.925  0.00  0.00    +0.121 A 
ATOM     13  N   LIG    1       32.166 -17.123   8.671  0.00  0.00    -0.240 NA
ATOM     14  C   LIG    1       32.464 -16.213   9.629  0.00  0.00    +0.113 A 
ATOM     15  C   LIG    1       31.846 -16.157  10.862  0.00  0.00    +0.020 A 
ATOM     16  C   LIG    1       30.894 -17.121  11.140  0.00  0.00    +0.005 A 
ATOM     17  C   LIG    1       30.600 -18.086  10.176  0.00  0.00    +0.043 A 
ENDBRANCH  11  12
ENDBRANCH   9  11
ENDBRANCH   8   9
ENDBRANCH   7   8
ENDBRANCH   1   7
BRANCH   4  18
ATOM     18  C   LIG    1       23.230 -21.055   6.951  0.00  0.00    +0.059 C 
BRANCH  18  19
ATOM     19  C   LIG    1       22.937 -21.194   5.451  0.00  0.00    +0.146 C 
ATOM     20  C   LIG    1       24.155 -21.601   4.639  0.00  0.00    +0.234 C 
ATOM     21  O   LIG    1       24.605 -22.734   4.552  0.00  0.00    -0.274 OA
ATOM     22  N   LIG    1       24.726 -20.535   4.010  0.00  0.00    -0.246 N 
ATOM     23  H   LIG    1       25.569 -20.650   3.463  0.00  0.00    +0.158 HD
ATOM     24  C   LIG    1       24.061 -19.360   3.996  0.00  0.00    +0.279 C 
ATOM     25  O   LIG    1       24.463 -18.317   3.486  0.00  0.00    -0.263 OA
ATOM     26  S   LIG    1       22.524 -19.525   4.796  0.00  0.00    -0.054 S 
ENDBRANCH  18  19
ENDBRANCH   4  18
TORSDOF 7
ENDMDL
MODEL 7
REMARK VINA RESULT:      -8.4      5.503     10.119
REMARK  Name = *****
REMARK                            x       y       z     vdW  Elec       q    Type
REMARK                         _______ _______ _______ _____ _____    ______ ____
ROOT
ATOM      1  C   LIG    1       24.806 -23.648   6.916  0.00  0.00    +0.121 A 
ATOM      2  C   LIG    1       23.671 -24.352   6.506  0.00  0.00    +0.046 A 
ATOM      3  C   LIG    1       23.756 -25.713   6.177  0.00  0.00    +0.007 A 
ATOM      4  C   LIG    1       24.984 -26.383   6.243  0.00  0.00    -0.046 A 
ATOM      5  C   LIG    1       26.123 -25.657   6.618  0.00  0.00    +0.007 A 
ATOM      6  C   LIG    1       26.037 -24.301   6.941  0.00  0.00    +0.046 A 
ENDROOT
BRANCH   1   7
ATOM      7  O   LIG    1       24.616 -22.333   7.270  0.00  0.00    -0.490 OA
BRANCH   7   8
ATOM      8  C   LIG    1       25.513 -21.861   8.288  0.00  0.00    +0.248 C 
BRANCH   8   9
ATOM      9  C   LIG    1       26.091 -20.492   7.898  0.00  0.00    +0.147 C 
BRANCH   9  11
ATOM     10  C   LIG    1       26.505 -20.150   5.460  0.00  0.00    +0.131 C 
ATOM     11  N   LIG    1       27.034 -20.567   6.762  0.00  0.00    -0.315 N 
BRANCH  11  12
ATOM     12  C   LIG    1       28.380 -20.250   6.979  0.00  0.00    +0.121 A 
ATOM     13  N   LIG    1       29.033 -20.812   8.023  0.00  0.00    -0.240 NA
ATOM     14  C   LIG    1       30.331 -20.491   8.236  0.00  0.00    +0.113 A 
ATOM     15  C   LIG    1       31.056 -19.631   7.436  0.00  0.00    +0.020 A 
ATOM     16  C   LIG    1       30.393 -19.034   6.380  0.00  0.00    +0.005 A 
ATOM     17  C   LIG    1       29.046 -19.328   6.168  0.00  0.00    +0.043 A 
ENDBRANCH  11  12
ENDBRANCH   9  11
ENDBRANCH   8   9
ENDBRANCH   7   8
ENDBRANCH   1   7
BRANCH   4  18
ATOM     18  C   LIG    1       25.113 -27.853   5.923  0.00  0.00    +0.059 C 
BRANCH  18  19
ATOM     19  C   LIG    1       24.591 -28.790   7.020  0.00  0.00    +0.146 C 
ATOM     20  C   LIG    1       25.657 -29.180   8.030  0.00  0.00    +0.234 C 
ATOM     21  O   LIG    1       26.049 -28.482   8.954  0.00  0.00    -0.274 OA
ATOM     22  N   LIG    1       26.163 -30.421   7.783  0.00  0.00    -0.246 N 
ATOM     23  H   LIG    1       26.909 -30.797   8.353  0.00  0.00    +0.158 HD
ATOM     24  C   LIG    1       25.545 -31.201   6.871  0.00  0.00    +0.279 C 
ATOM     25  O   LIG    1       25.900 -32.328   6.535  0.00  0.00    -0.263 OA
ATOM     26  S   LIG    1       24.141 -30.391   6.233  0.00  0.00    -0.054 S 
ENDBRANCH  18  19
ENDBRANCH   4  18
TORSDOF 7
ENDMDL
MODEL 8
REMARK VINA RESULT:      -8.1      3.205      5.238
REMARK  Name = *****
REMARK                            x       y       z     vdW  Elec       q    Type
REMARK                         _______ _______ _______ _____ _____    ______ ____
ROOT
ATOM      1  C   LIG    1       24.702 -20.882   6.759  0.00  0.00    +0.121 A 
ATOM      2  C   LIG    1       25.375 -20.655   5.556  0.00  0.00    +0.046 A 
ATOM      3  C   LIG    1       26.724 -20.275   5.553  0.00  0.00    +0.007 A 
ATOM      4  C   LIG    1       27.415 -20.105   6.760  0.00  0.00    -0.046 A 
ATOM      5  C   LIG    1       26.720 -20.298   7.961  0.00  0.00    +0.007 A 
ATOM      6  C   LIG    1       25.374 -20.672   7.961  0.00  0.00    +0.046 A 
ENDROOT
BRANCH   1   7
ATOM      7  O   LIG    1       23.397 -21.304   6.661  0.00  0.00    -0.490 OA
BRANCH   7   8
ATOM      8  C   LIG    1       23.221 -22.505   5.892  0.00  0.00    +0.248 C 
BRANCH   8   9
ATOM      9  C   LIG    1       23.584 -23.737   6.736  0.00  0.00    +0.147 C 
BRANCH   9  11
ATOM     10  C   LIG    1       26.015 -23.845   7.290  0.00  0.00    +0.131 C 
ATOM     11  N   LIG    1       24.920 -24.280   6.417  0.00  0.00    -0.315 N 
BRANCH  11  12
ATOM     12  C   LIG    1       25.023 -25.599   5.960  0.00  0.00    +0.121 A 
ATOM     13  N   LIG    1       25.913 -25.895   4.984  0.00  0.00    -0.240 NA
ATOM     14  C   LIG    1       25.998 -27.170   4.536  0.00  0.00    +0.113 A 
ATOM     15  C   LIG    1       25.241 -28.214   5.027  0.00  0.00    +0.020 A 
ATOM     16  C   LIG    1       24.312 -27.919   6.008  0.00  0.00    +0.005 A 
ATOM     17  C   LIG    1       24.189 -26.604   6.456  0.00  0.00    +0.043 A 
ENDBRANCH  11  12
ENDBRANCH   9  11
ENDBRANCH   8   9
ENDBRANCH   7   8
ENDBRANCH   1   7
BRANCH   4  18
ATOM     18  C   LIG    1       28.875 -19.722   6.800  0.00  0.00    +0.059 C 
BRANCH  18  19
ATOM     19  C   LIG    1       29.451 -19.560   8.212  0.00  0.00    +0.146 C 
ATOM     20  C   LIG    1       30.832 -18.927   8.226  0.00  0.00    +0.234 C 
ATOM     21  O   LIG    1       31.068 -17.734   8.103  0.00  0.00    -0.274 OA
ATOM     22  N   LIG    1       31.817 -19.857   8.376  0.00  0.00    -0.246 N 
ATOM     23  H   LIG    1       32.791 -19.584   8.365  0.00  0.00    +0.158 HD
ATOM     24  C   LIG    1       31.468 -21.121   8.700  0.00  0.00    +0.279 C 
ATOM     25  O   LIG    1       32.245 -22.062   8.847  0.00  0.00    -0.263 OA
ATOM     26  S   LIG    1       29.743 -21.240   8.903  0.00  0.00    -0.054 S 
ENDBRANCH  18  19
ENDBRANCH   4  18
TORSDOF 7
ENDMDL
MODEL 9
REMARK VINA RESULT:      -7.9      6.716     11.113
REMARK  Name = *****
REMARK                            x       y       z     vdW  Elec       q    Type
REMARK                         _______ _______ _______ _____ _____    ______ ____
ROOT
ATOM      1  C   LIG    1       25.443 -25.908   6.164  0.00  0.00    +0.121 A 
ATOM      2  C   LIG    1       24.420 -26.615   5.529  0.00  0.00    +0.046 A 
ATOM      3  C   LIG    1       24.113 -27.928   5.914  0.00  0.00    +0.007 A 
ATOM      4  C   LIG    1       24.838 -28.553   6.936  0.00  0.00    -0.046 A 
ATOM      5  C   LIG    1       25.888 -27.849   7.540  0.00  0.00    +0.007 A 
ATOM      6  C   LIG    1       26.195 -26.543   7.151  0.00  0.00    +0.046 A 
ENDROOT
BRANCH   1   7
ATOM      7  O   LIG    1       25.636 -24.609   5.755  0.00  0.00    -0.490 OA
BRANCH   7   8
ATOM      8  C   LIG    1       25.614 -23.646   6.821  0.00  0.00    +0.248 C 
BRANCH   8   9
ATOM      9  C   LIG    1       24.242 -22.955   6.888  0.00  0.00    +0.147 C 
BRANCH   9  11
ATOM     10  C   LIG    1       25.416 -21.008   7.916  0.00  0.00    +0.131 C 
ATOM     11  N   LIG    1       24.343 -21.489   7.042  0.00  0.00    -0.315 N 
BRANCH  11  12
ATOM     12  C   LIG    1       24.074 -20.673   5.937  0.00  0.00    +0.121 A 
ATOM     13  N   LIG    1       25.046 -20.456   5.021  0.00  0.00    -0.240 NA
ATOM     14  C   LIG    1       24.785 -19.655   3.962  0.00  0.00    +0.113 A 
ATOM     15  C   LIG    1       23.566 -19.048   3.734  0.00  0.00    +0.020 A 
ATOM     16  C   LIG    1       22.572 -19.244   4.675  0.00  0.00    +0.005 A 
ATOM     17  C   LIG    1       22.837 -20.039   5.790  0.00  0.00    +0.043 A 
ENDBRANCH  11  12
ENDBRANCH   9  11
ENDBRANCH   8   9
ENDBRANCH   7   8
ENDBRANCH   1   7
BRANCH   4  18
ATOM     18  C   LIG    1       24.522 -29.956   7.399  0.00  0.00    +0.059 C 
BRANCH  18  19
ATOM     19  C   LIG    1       24.181 -30.936   6.269  0.00  0.00    +0.146 C 
ATOM     20  C   LIG    1       23.876 -32.339   6.765  0.00  0.00    +0.234 C 
ATOM     21  O   LIG    1       22.820 -32.703   7.262  0.00  0.00    -0.274 OA
ATOM     22  N   LIG    1       24.942 -33.175   6.613  0.00  0.00    -0.246 N 
ATOM     23  H   LIG    1       24.896 -34.133   6.936  0.00  0.00    +0.158 HD
ATOM     24  C   LIG    1       25.996 -32.753   5.883  0.00  0.00    +0.279 C 
ATOM     25  O   LIG    1       27.027 -33.390   5.680  0.00  0.00    -0.263 OA
ATOM     26  S   LIG    1       25.690 -31.164   5.241  0.00  0.00    -0.054 S 
ENDBRANCH  18  19
ENDBRANCH   4  18
TORSDOF 7
ENDMDL
