MODEL 1
REMARK VINA RESULT:      -1.4      0.000      0.000
REMARK  Name = *****
REMARK                            x       y       z     vdW  Elec       q    Type
REMARK                         _______ _______ _______ _____ _____    ______ ____
ROOT
ATOM      1  N   LIG    1       23.537 -15.879   3.964  0.00  0.00    -0.149 NA
ATOM      2  N   LIG    1       23.990 -16.944   3.495  0.00  0.00    -0.149 NA
ENDROOT
BRANCH   1   7
ATOM      3  C   LIG    1       26.496 -13.697   3.530  0.00  0.00    +0.102 A 
ATOM      4  C   LIG    1       25.913 -12.530   3.022  0.00  0.00    +0.131 A 
ATOM      5  C   LIG    1       24.537 -12.451   2.817  0.00  0.00    +0.048 A 
ATOM      6  C   LIG    1       23.730 -13.550   3.115  0.00  0.00    +0.033 A 
ATOM      7  C   LIG    1       24.282 -14.735   3.621  0.00  0.00    +0.087 A 
ATOM      8  C   LIG    1       25.668 -14.794   3.818  0.00  0.00    +0.048 A 
BRANCH   3  10
ATOM      9  O   LIG    1       28.752 -12.947   3.671  0.00  0.00    -0.245 OA
ATOM     10  C   LIG    1       27.956 -13.861   3.796  0.00  0.00    +0.340 C 
BRANCH  10  11
ATOM     11  O   LIG    1       28.334 -15.100   4.179  0.00  0.00    -0.477 OA
ATOM     12  H   LIG    1       29.309 -15.186   4.263  0.00  0.00    +0.295 HD
ENDBRANCH  10  11
ENDBRANCH   3  10
BRANCH   4  13
ATOM     13  O   LIG    1       26.695 -11.447   2.714  0.00  0.00    -0.506 OA
ATOM     14  H   LIG    1       27.618 -11.750   2.609  0.00  0.00    +0.292 HD
ENDBRANCH   4  13
ENDBRANCH   1   7
BRANCH   2  15
ATOM     15  C   LIG    1       23.194 -18.050   3.858  0.00  0.00    +0.087 A 
ATOM     16  C   LIG    1       23.715 -18.977   4.769  0.00  0.00    +0.048 A 
ATOM     17  C   LIG    1       22.967 -20.101   5.165  0.00  0.00    +0.102 A 
ATOM     18  C   LIG    1       21.680 -20.279   4.639  0.00  0.00    +0.131 A 
ATOM     19  C   LIG    1       21.142 -19.358   3.744  0.00  0.00    +0.048 A 
ATOM     20  C   LIG    1       21.895 -18.249   3.367  0.00  0.00    +0.033 A 
BRANCH  17  21
ATOM     21  C   LIG    1       23.610 -21.042   6.129  0.00  0.00    +0.340 C 
ATOM     22  O   LIG    1       23.005 -21.539   7.062  0.00  0.00    -0.245 OA
BRANCH  21  23
ATOM     23  O   LIG    1       24.913 -21.306   5.891  0.00  0.00    -0.477 OA
ATOM     24  H   LIG    1       25.353 -20.590   5.382  0.00  0.00    +0.295 HD
ENDBRANCH  21  23
ENDBRANCH  17  21
BRANCH  18  25
ATOM     25  O   LIG    1       20.930 -21.368   5.001  0.00  0.00    -0.506 OA
ATOM     26  H   LIG    1       20.111 -21.054   5.431  0.00  0.00    +0.292 HD
ENDBRANCH  18  25
ENDBRANCH   2  15
TORSDOF 8
ENDMDL
MODEL 2
REMARK VINA RESULT:      -0.9      1.248      7.751
REMARK  Name = *****
REMARK                            x       y       z     vdW  Elec       q    Type
REMARK                         _______ _______ _______ _____ _____    ______ ____
ROOT
ATOM      1  N   LIG    1       24.226 -16.916   3.474  0.00  0.00    -0.149 NA
ATOM      2  N   LIG    1       24.956 -16.377   4.331  0.00  0.00    -0.149 NA
ENDROOT
BRANCH   1   7
ATOM      3  C   LIG    1       23.737 -20.213   5.084  0.00  0.00    +0.102 A 
ATOM      4  C   LIG    1       22.370 -20.428   4.876  0.00  0.00    +0.131 A 
ATOM      5  C   LIG    1       21.594 -19.487   4.201  0.00  0.00    +0.048 A 
ATOM      6  C   LIG    1       22.185 -18.312   3.734  0.00  0.00    +0.033 A 
ATOM      7  C   LIG    1       23.550 -18.063   3.930  0.00  0.00    +0.087 A 
ATOM      8  C   LIG    1       24.311 -19.022   4.611  0.00  0.00    +0.048 A 
BRANCH   3  10
ATOM      9  O   LIG    1       24.432 -21.571   6.912  0.00  0.00    -0.245 OA
ATOM     10  C   LIG    1       24.644 -21.174   5.779  0.00  0.00    +0.340 C 
BRANCH  10  11
ATOM     11  O   LIG    1       25.720 -21.567   5.065  0.00  0.00    -0.477 OA
ATOM     12  H   LIG    1       25.471 -22.013   4.226  0.00  0.00    +0.295 HD
ENDBRANCH  10  11
ENDBRANCH   3  10
BRANCH   4  13
ATOM     13  O   LIG    1       21.773 -21.572   5.341  0.00  0.00    -0.506 OA
ATOM     14  H   LIG    1       22.472 -22.187   5.638  0.00  0.00    +0.292 HD
ENDBRANCH   4  13
ENDBRANCH   1   7
BRANCH   2  15
ATOM     15  C   LIG    1       25.591 -15.226   3.821  0.00  0.00    +0.087 A 
ATOM     16  C   LIG    1       26.554 -14.588   4.613  0.00  0.00    +0.048 A 
ATOM     17  C   LIG    1       27.217 -13.435   4.157  0.00  0.00    +0.102 A 
ATOM     18  C   LIG    1       26.907 -12.930   2.887  0.00  0.00    +0.131 A 
ATOM     19  C   LIG    1       25.963 -13.562   2.081  0.00  0.00    +0.048 A 
ATOM     20  C   LIG    1       25.320 -14.706   2.547  0.00  0.00    +0.033 A 
BRANCH  17  21
ATOM     21  C   LIG    1       28.217 -12.815   5.076  0.00  0.00    +0.340 C 
ATOM     22  O   LIG    1       29.079 -12.048   4.687  0.00  0.00    -0.245 OA
BRANCH  21  23
ATOM     23  O   LIG    1       28.097 -13.167   6.375  0.00  0.00    -0.477 OA
ATOM     24  H   LIG    1       27.342 -13.776   6.530  0.00  0.00    +0.295 HD
ENDBRANCH  21  23
ENDBRANCH  17  21
BRANCH  18  25
ATOM     25  O   LIG    1       27.531 -11.804   2.418  0.00  0.00    -0.506 OA
ATOM     26  H   LIG    1       27.807 -11.259   3.180  0.00  0.00    +0.292 HD
ENDBRANCH  18  25
ENDBRANCH   2  15
TORSDOF 8
ENDMDL
MODEL 3
REMARK VINA RESULT:      -0.7      1.874      2.762
REMARK  Name = *****
REMARK                            x       y       z     vdW  Elec       q    Type
REMARK                         _______ _______ _______ _____ _____    ______ ____
ROOT
ATOM      1  N   LIG    1       25.446 -16.179   3.682  0.00  0.00    -0.149 NA
ATOM      2  N   LIG    1       26.020 -17.257   3.423  0.00  0.00    -0.149 NA
ENDROOT
BRANCH   1   7
ATOM      3  C   LIG    1       27.667 -13.293   4.344  0.00  0.00    +0.102 A 
ATOM      4  C   LIG    1       27.779 -12.726   3.069  0.00  0.00    +0.131 A 
ATOM      5  C   LIG    1       27.122 -13.290   1.977  0.00  0.00    +0.048 A 
ATOM      6  C   LIG    1       26.349 -14.438   2.154  0.00  0.00    +0.033 A 
ATOM      7  C   LIG    1       26.220 -15.035   3.416  0.00  0.00    +0.087 A 
ATOM      8  C   LIG    1       26.890 -14.451   4.500  0.00  0.00    +0.048 A 
BRANCH   3  10
ATOM      9  O   LIG    1       29.127 -11.832   5.529  0.00  0.00    -0.245 OA
ATOM     10  C   LIG    1       28.321 -12.745   5.569  0.00  0.00    +0.340 C 
BRANCH  10  11
ATOM     11  O   LIG    1       27.960 -13.338   6.727  0.00  0.00    -0.477 OA
ATOM     12  H   LIG    1       27.164 -12.926   7.128  0.00  0.00    +0.295 HD
ENDBRANCH  10  11
ENDBRANCH   3  10
BRANCH   4  13
ATOM     13  O   LIG    1       28.545 -11.604   2.878  0.00  0.00    -0.506 OA
ATOM     14  H   LIG    1       27.949 -10.840   2.753  0.00  0.00    +0.292 HD
ENDBRANCH   4  13
ENDBRANCH   1   7
BRANCH   2  15
ATOM     15  C   LIG    1       25.191 -18.364   3.694  0.00  0.00    +0.087 A 
ATOM     16  C   LIG    1       23.806 -18.166   3.747  0.00  0.00    +0.048 A 
ATOM     17  C   LIG    1       22.931 -19.233   4.016  0.00  0.00    +0.102 A 
ATOM     18  C   LIG    1       23.465 -20.512   4.225  0.00  0.00    +0.131 A 
ATOM     19  C   LIG    1       24.839 -20.730   4.162  0.00  0.00    +0.048 A 
ATOM     20  C   LIG    1       25.690 -19.661   3.889  0.00  0.00    +0.033 A 
BRANCH  17  21
ATOM     21  C   LIG    1       21.471 -18.923   4.065  0.00  0.00    +0.340 C 
ATOM     22  O   LIG    1       20.617 -19.790   4.075  0.00  0.00    -0.245 OA
BRANCH  21  23
ATOM     23  O   LIG    1       21.166 -17.607   4.102  0.00  0.00    -0.477 OA
ATOM     24  H   LIG    1       20.325 -17.431   4.577  0.00  0.00    +0.295 HD
ENDBRANCH  21  23
ENDBRANCH  17  21
BRANCH  18  25
ATOM     25  O   LIG    1       22.638 -21.572   4.496  0.00  0.00    -0.506 OA
ATOM     26  H   LIG    1       22.805 -22.274   3.838  0.00  0.00    +0.292 HD
ENDBRANCH  18  25
ENDBRANCH   2  15
TORSDOF 8
ENDMDL
MODEL 4
REMARK VINA RESULT:      -0.5      1.147      7.981
REMARK  Name = *****
REMARK                            x       y       z     vdW  Elec       q    Type
REMARK                         _______ _______ _______ _____ _____    ______ ____
ROOT
ATOM      1  N   LIG    1       24.520 -17.011   3.601  0.00  0.00    -0.149 NA
ATOM      2  N   LIG    1       24.017 -15.961   4.051  0.00  0.00    -0.149 NA
ENDROOT
BRANCH   1   7
ATOM      3  C   LIG    1       21.770 -19.425   4.153  0.00  0.00    +0.102 A 
ATOM      4  C   LIG    1       22.429 -20.453   4.836  0.00  0.00    +0.131 A 
ATOM      5  C   LIG    1       23.790 -20.359   5.124  0.00  0.00    +0.048 A 
ATOM      6  C   LIG    1       24.506 -19.232   4.718  0.00  0.00    +0.033 A 
ATOM      7  C   LIG    1       23.876 -18.187   4.027  0.00  0.00    +0.087 A 
ATOM      8  C   LIG    1       22.508 -18.302   3.748  0.00  0.00    +0.048 A 
BRANCH   3  10
ATOM      9  O   LIG    1       19.609 -20.413   3.996  0.00  0.00    -0.245 OA
ATOM     10  C   LIG    1       20.314 -19.435   3.820  0.00  0.00    +0.340 C 
BRANCH  10  11
ATOM     11  O   LIG    1       19.835 -18.283   3.304  0.00  0.00    -0.477 OA
ATOM     12  H   LIG    1       20.104 -17.496   3.828  0.00  0.00    +0.295 HD
ENDBRANCH  10  11
ENDBRANCH   3  10
BRANCH   4  13
ATOM     13  O   LIG    1       21.742 -21.572   5.231  0.00  0.00    -0.506 OA
ATOM     14  H   LIG    1       21.239 -21.357   6.040  0.00  0.00    +0.292 HD
ENDBRANCH   4  13
ENDBRANCH   1   7
BRANCH   2  15
ATOM     15  C   LIG    1       24.693 -14.818   3.578  0.00  0.00    +0.087 A 
ATOM     16  C   LIG    1       25.998 -14.578   4.027  0.00  0.00    +0.048 A 
ATOM     17  C   LIG    1       26.719 -13.452   3.590  0.00  0.00    +0.102 A 
ATOM     18  C   LIG    1       26.114 -12.568   2.686  0.00  0.00    +0.131 A 
ATOM     19  C   LIG    1       24.823 -12.799   2.218  0.00  0.00    +0.048 A 
ATOM     20  C   LIG    1       24.127 -13.923   2.658  0.00  0.00    +0.033 A 
BRANCH  17  21
ATOM     21  C   LIG    1       28.098 -13.273   4.133  0.00  0.00    +0.340 C 
ATOM     22  O   LIG    1       28.311 -12.986   5.298  0.00  0.00    -0.245 OA
BRANCH  21  23
ATOM     23  O   LIG    1       29.094 -13.453   3.239  0.00  0.00    -0.477 OA
ATOM     24  H   LIG    1       28.903 -13.027   2.375  0.00  0.00    +0.295 HD
ENDBRANCH  21  23
ENDBRANCH  17  21
BRANCH  18  25
ATOM     25  O   LIG    1       26.789 -11.458   2.248  0.00  0.00    -0.506 OA
ATOM     26  H   LIG    1       26.779 -10.786   2.956  0.00  0.00    +0.292 HD
ENDBRANCH  18  25
ENDBRANCH   2  15
TORSDOF 8
ENDMDL
MODEL 5
REMARK VINA RESULT:      -0.2      1.112      2.312
REMARK  Name = *****
REMARK                            x       y       z     vdW  Elec       q    Type
REMARK                         _______ _______ _______ _____ _____    ______ ____
ROOT
ATOM      1  N   LIG    1       23.955 -16.081   3.815  0.00  0.00    -0.149 NA
ATOM      2  N   LIG    1       24.615 -17.134   3.698  0.00  0.00    -0.149 NA
ENDROOT
BRANCH   1   7
ATOM      3  C   LIG    1       26.848 -13.797   3.474  0.00  0.00    +0.102 A 
ATOM      4  C   LIG    1       26.243 -12.654   2.939  0.00  0.00    +0.131 A 
ATOM      5  C   LIG    1       24.872 -12.624   2.686  0.00  0.00    +0.048 A 
ATOM      6  C   LIG    1       24.095 -13.750   2.961  0.00  0.00    +0.033 A 
ATOM      7  C   LIG    1       24.671 -14.913   3.492  0.00  0.00    +0.087 A 
ATOM      8  C   LIG    1       26.050 -14.921   3.738  0.00  0.00    +0.048 A 
BRANCH   3  10
ATOM      9  O   LIG    1       29.117 -13.074   3.436  0.00  0.00    -0.245 OA
ATOM     10  C   LIG    1       28.303 -13.908   3.792  0.00  0.00    +0.340 C 
BRANCH  10  11
ATOM     11  O   LIG    1       28.654 -15.004   4.497  0.00  0.00    -0.477 OA
ATOM     12  H   LIG    1       28.717 -14.826   5.462  0.00  0.00    +0.295 HD
ENDBRANCH  10  11
ENDBRANCH   3  10
BRANCH   4  13
ATOM     13  O   LIG    1       26.996 -11.544   2.652  0.00  0.00    -0.506 OA
ATOM     14  H   LIG    1       27.901 -11.688   2.992  0.00  0.00    +0.292 HD
ENDBRANCH   4  13
ENDBRANCH   1   7
BRANCH   2  15
ATOM     15  C   LIG    1       23.842 -18.268   4.019  0.00  0.00    +0.087 A 
ATOM     16  C   LIG    1       22.477 -18.257   3.708  0.00  0.00    +0.048 A 
ATOM     17  C   LIG    1       21.657 -19.360   4.007  0.00  0.00    +0.102 A 
ATOM     18  C   LIG    1       22.228 -20.484   4.620  0.00  0.00    +0.131 A 
ATOM     19  C   LIG    1       23.588 -20.517   4.922  0.00  0.00    +0.048 A 
ATOM     20  C   LIG    1       24.385 -19.418   4.613  0.00  0.00    +0.033 A 
BRANCH  17  21
ATOM     21  C   LIG    1       20.211 -19.251   3.652  0.00  0.00    +0.340 C 
ATOM     22  O   LIG    1       19.384 -20.069   4.012  0.00  0.00    -0.245 OA
BRANCH  21  23
ATOM     23  O   LIG    1       19.885 -18.177   2.901  0.00  0.00    -0.477 OA
ATOM     24  H   LIG    1       20.586 -17.489   2.907  0.00  0.00    +0.295 HD
ENDBRANCH  21  23
ENDBRANCH  17  21
BRANCH  18  25
ATOM     25  O   LIG    1       21.454 -21.572   4.930  0.00  0.00    -0.506 OA
ATOM     26  H   LIG    1       21.905 -22.087   5.627  0.00  0.00    +0.292 HD
ENDBRANCH  18  25
ENDBRANCH   2  15
TORSDOF 8
ENDMDL
MODEL 6
REMARK VINA RESULT:      -0.1      1.512      3.238
REMARK  Name = *****
REMARK                            x       y       z     vdW  Elec       q    Type
REMARK                         _______ _______ _______ _____ _____    ______ ____
ROOT
ATOM      1  N   LIG    1       25.306 -16.793   3.660  0.00  0.00    -0.149 NA
ATOM      2  N   LIG    1       24.079 -16.671   3.852  0.00  0.00    -0.149 NA
ENDROOT
BRANCH   1   7
ATOM      3  C   LIG    1       25.769 -13.170   3.057  0.00  0.00    +0.102 A 
ATOM      4  C   LIG    1       27.163 -13.071   2.991  0.00  0.00    +0.131 A 
ATOM      5  C   LIG    1       27.966 -14.200   3.143  0.00  0.00    +0.048 A 
ATOM      6  C   LIG    1       27.374 -15.443   3.373  0.00  0.00    +0.033 A 
ATOM      7  C   LIG    1       25.981 -15.576   3.451  0.00  0.00    +0.087 A 
ATOM      8  C   LIG    1       25.193 -14.428   3.295  0.00  0.00    +0.048 A 
BRANCH   3  10
ATOM      9  O   LIG    1       24.675 -11.456   1.818  0.00  0.00    -0.245 OA
ATOM     10  C   LIG    1       24.834 -12.018   2.887  0.00  0.00    +0.340 C 
BRANCH  10  11
ATOM     11  O   LIG    1       24.182 -11.638   4.007  0.00  0.00    -0.477 OA
ATOM     12  H   LIG    1       24.279 -10.677   4.190  0.00  0.00    +0.295 HD
ENDBRANCH  10  11
ENDBRANCH   3  10
BRANCH   4  13
ATOM     13  O   LIG    1       27.759 -11.855   2.777  0.00  0.00    -0.506 OA
ATOM     14  H   LIG    1       28.319 -11.920   1.980  0.00  0.00    +0.292 HD
ENDBRANCH   4  13
ENDBRANCH   1   7
BRANCH   2  15
ATOM     15  C   LIG    1       23.462 -17.920   4.071  0.00  0.00    +0.087 A 
ATOM     16  C   LIG    1       22.109 -18.065   3.740  0.00  0.00    +0.048 A 
ATOM     17  C   LIG    1       21.442 -19.287   3.939  0.00  0.00    +0.102 A 
ATOM     18  C   LIG    1       22.154 -20.370   4.472  0.00  0.00    +0.131 A 
ATOM     19  C   LIG    1       23.504 -20.247   4.793  0.00  0.00    +0.048 A 
ATOM     20  C   LIG    1       24.149 -19.031   4.583  0.00  0.00    +0.033 A 
BRANCH  17  21
ATOM     21  C   LIG    1       19.997 -19.342   3.569  0.00  0.00    +0.340 C 
ATOM     22  O   LIG    1       19.350 -20.374   3.605  0.00  0.00    -0.245 OA
BRANCH  21  23
ATOM     23  O   LIG    1       19.455 -18.163   3.193  0.00  0.00    -0.477 OA
ATOM     24  H   LIG    1       18.480 -18.214   3.093  0.00  0.00    +0.295 HD
ENDBRANCH  21  23
ENDBRANCH  17  21
BRANCH  18  25
ATOM     25  O   LIG    1       21.529 -21.572   4.685  0.00  0.00    -0.506 OA
ATOM     26  H   LIG    1       22.033 -22.271   4.225  0.00  0.00    +0.292 HD
ENDBRANCH  18  25
ENDBRANCH   2  15
TORSDOF 8
ENDMDL
