MODEL 1
REMARK VINA RESULT:      -7.0      0.000      0.000
REMARK  Name = *****
REMARK                            x       y       z     vdW  Elec       q    Type
REMARK                         _______ _______ _______ _____ _____    ______ ____
ROOT
ATOM      1  C   LIG    1       30.738 -19.587   7.534  0.00  0.00    +0.213 C 
ATOM      2  C   LIG    1       30.370 -19.223   6.145  0.00  0.00    +0.227 C 
ATOM      3  O   LIG    1       31.174 -19.079   5.249  0.00  0.00    -0.284 OA
ATOM      4  C   LIG    1       28.946 -19.026   5.917  0.00  0.00    +0.007 C 
ATOM      5  C   LIG    1       28.674 -17.794   5.129  0.00  0.00    +0.048 C 
ATOM      6  C   LIG    1       28.132 -19.982   6.416  0.00  0.00    +0.010 C 
ATOM      7  C   LIG    1       28.796 -21.060   7.249  0.00  0.00    +0.228 C 
ATOM      8  O   LIG    1       28.328 -22.168   7.357  0.00  0.00    -0.284 OA
ATOM      9  C   LIG    1       30.030 -20.596   8.028  0.00  0.00    +0.213 C 
ENDROOT
BRANCH   1  11
ATOM     10  C   LIG    1       31.577 -17.774   8.888  0.00  0.00    +0.277 C 
ATOM     11  O   LIG    1       31.802 -18.976   8.170  0.00  0.00    -0.488 OA
ENDBRANCH   1  11
BRANCH   9  12
ATOM     12  O   LIG    1       30.265 -21.243   9.250  0.00  0.00    -0.488 OA
ATOM     13  C   LIG    1       31.333 -22.190   9.252  0.00  0.00    +0.277 C 
ENDBRANCH   9  12
BRANCH   6  14
ATOM     14  C   LIG    1       26.658 -20.041   6.097  0.00  0.00    +0.039 C 
BRANCH  14  15
ATOM     15  C   LIG    1       26.116 -20.283   4.670  0.00  0.00    +0.005 C 
BRANCH  15  16
ATOM     16  C   LIG    1       25.356 -19.155   3.919  0.00  0.00    +0.000 C 
BRANCH  16  17
ATOM     17  C   LIG    1       23.879 -19.473   3.621  0.00  0.00    +0.000 C 
BRANCH  17  18
ATOM     18  C   LIG    1       22.825 -19.365   4.744  0.00  0.00    -0.000 C 
BRANCH  18  19
ATOM     19  C   LIG    1       22.457 -20.767   5.343  0.00  0.00    -0.000 C 
BRANCH  19  20
ATOM     20  C   LIG    1       23.165 -21.078   6.683  0.00  0.00    +0.000 C 
BRANCH  20  21
ATOM     21  C   LIG    1       23.387 -22.568   7.047  0.00  0.00    +0.002 C 
BRANCH  21  22
ATOM     22  C   LIG    1       24.840 -23.047   7.127  0.00  0.00    +0.028 C 
BRANCH  22  23
ATOM     23  C   LIG    1       25.265 -23.976   5.996  0.00  0.00    +0.156 C 
BRANCH  23  24
ATOM     24  O   LIG    1       24.767 -23.511   4.746  0.00  0.00    -0.395 OA
ATOM     25  H   LIG    1       25.165 -22.646   4.553  0.00  0.00    +0.209 HD
ENDBRANCH  23  24
ENDBRANCH  22  23
ENDBRANCH  21  22
ENDBRANCH  20  21
ENDBRANCH  19  20
ENDBRANCH  18  19
ENDBRANCH  17  18
ENDBRANCH  16  17
ENDBRANCH  15  16
ENDBRANCH  14  15
ENDBRANCH   6  14
TORSDOF 13
ENDMDL
MODEL 2
REMARK VINA RESULT:      -6.6      1.112      1.504
REMARK  Name = *****
REMARK                            x       y       z     vdW  Elec       q    Type
REMARK                         _______ _______ _______ _____ _____    ______ ____
ROOT
ATOM      1  C   LIG    1       30.746 -19.588   7.520  0.00  0.00    +0.213 C 
ATOM      2  C   LIG    1       30.386 -19.212   6.131  0.00  0.00    +0.227 C 
ATOM      3  O   LIG    1       31.196 -19.050   5.244  0.00  0.00    -0.284 OA
ATOM      4  C   LIG    1       28.962 -19.028   5.893  0.00  0.00    +0.007 C 
ATOM      5  C   LIG    1       28.684 -17.790   5.115  0.00  0.00    +0.048 C 
ATOM      6  C   LIG    1       28.154 -19.997   6.374  0.00  0.00    +0.010 C 
ATOM      7  C   LIG    1       28.822 -21.078   7.201  0.00  0.00    +0.228 C 
ATOM      8  O   LIG    1       28.364 -22.192   7.292  0.00  0.00    -0.284 OA
ATOM      9  C   LIG    1       30.044 -20.609   7.996  0.00  0.00    +0.213 C 
ENDROOT
BRANCH   1  11
ATOM     10  C   LIG    1       31.528 -17.881   9.035  0.00  0.00    +0.277 C 
ATOM     11  O   LIG    1       31.797 -18.972   8.171  0.00  0.00    -0.488 OA
ENDBRANCH   1  11
BRANCH   9  12
ATOM     12  O   LIG    1       30.275 -21.267   9.213  0.00  0.00    -0.488 OA
ATOM     13  C   LIG    1       31.341 -22.216   9.210  0.00  0.00    +0.277 C 
ENDBRANCH   9  12
BRANCH   6  14
ATOM     14  C   LIG    1       26.684 -20.068   6.041  0.00  0.00    +0.039 C 
BRANCH  14  15
ATOM     15  C   LIG    1       26.147 -20.023   4.592  0.00  0.00    +0.005 C 
BRANCH  15  16
ATOM     16  C   LIG    1       24.624 -19.869   4.326  0.00  0.00    +0.000 C 
BRANCH  16  17
ATOM     17  C   LIG    1       23.749 -20.947   4.992  0.00  0.00    +0.000 C 
BRANCH  17  18
ATOM     18  C   LIG    1       23.248 -20.749   6.439  0.00  0.00    -0.000 C 
BRANCH  18  19
ATOM     19  C   LIG    1       23.196 -22.100   7.234  0.00  0.00    -0.000 C 
BRANCH  19  20
ATOM     20  C   LIG    1       24.529 -22.885   7.218  0.00  0.00    +0.000 C 
BRANCH  20  21
ATOM     21  C   LIG    1       24.497 -24.338   6.678  0.00  0.00    +0.002 C 
BRANCH  21  22
ATOM     22  C   LIG    1       25.830 -25.095   6.663  0.00  0.00    +0.028 C 
BRANCH  22  23
ATOM     23  C   LIG    1       25.940 -26.163   5.581  0.00  0.00    +0.156 C 
BRANCH  23  24
ATOM     24  O   LIG    1       27.238 -26.749   5.580  0.00  0.00    -0.395 OA
ATOM     25  H   LIG    1       27.613 -26.676   4.686  0.00  0.00    +0.209 HD
ENDBRANCH  23  24
ENDBRANCH  22  23
ENDBRANCH  21  22
ENDBRANCH  20  21
ENDBRANCH  19  20
ENDBRANCH  18  19
ENDBRANCH  17  18
ENDBRANCH  16  17
ENDBRANCH  15  16
ENDBRANCH  14  15
ENDBRANCH   6  14
TORSDOF 13
ENDMDL
MODEL 3
REMARK VINA RESULT:      -6.5      1.123      2.682
REMARK  Name = *****
REMARK                            x       y       z     vdW  Elec       q    Type
REMARK                         _______ _______ _______ _____ _____    ______ ____
ROOT
ATOM      1  C   LIG    1       31.025 -19.261   7.534  0.00  0.00    +0.213 C 
ATOM      2  C   LIG    1       30.485 -19.103   6.162  0.00  0.00    +0.227 C 
ATOM      3  O   LIG    1       31.176 -18.968   5.175  0.00  0.00    -0.284 OA
ATOM      4  C   LIG    1       29.032 -19.102   6.069  0.00  0.00    +0.007 C 
ATOM      5  C   LIG    1       28.531 -18.009   5.194  0.00  0.00    +0.048 C 
ATOM      6  C   LIG    1       28.398 -20.084   6.747  0.00  0.00    +0.010 C 
ATOM      7  C   LIG    1       29.270 -20.975   7.608  0.00  0.00    +0.228 C 
ATOM      8  O   LIG    1       28.960 -22.111   7.877  0.00  0.00    -0.284 OA
ATOM      9  C   LIG    1       30.502 -20.284   8.200  0.00  0.00    +0.213 C 
ENDROOT
BRANCH   1  11
ATOM     10  C   LIG    1       31.767 -17.417   8.902  0.00  0.00    +0.277 C 
ATOM     11  O   LIG    1       32.056 -18.461   7.987  0.00  0.00    -0.488 OA
ENDBRANCH   1  11
BRANCH   9  12
ATOM     12  O   LIG    1       30.931 -20.755   9.449  0.00  0.00    -0.488 OA
ATOM     13  C   LIG    1       31.593 -22.021   9.437  0.00  0.00    +0.277 C 
ENDBRANCH   9  12
BRANCH   6  14
ATOM     14  C   LIG    1       26.921 -20.352   6.594  0.00  0.00    +0.039 C 
BRANCH  14  15
ATOM     15  C   LIG    1       25.951 -20.426   7.795  0.00  0.00    +0.005 C 
BRANCH  15  16
ATOM     16  C   LIG    1       25.599 -21.797   8.435  0.00  0.00    +0.000 C 
BRANCH  16  17
ATOM     17  C   LIG    1       25.623 -22.983   7.452  0.00  0.00    +0.000 C 
BRANCH  17  18
ATOM     18  C   LIG    1       24.444 -23.203   6.479  0.00  0.00    -0.000 C 
BRANCH  18  19
ATOM     19  C   LIG    1       23.158 -22.426   6.929  0.00  0.00    -0.000 C 
BRANCH  19  20
ATOM     20  C   LIG    1       22.868 -21.159   6.089  0.00  0.00    +0.000 C 
BRANCH  20  21
ATOM     21  C   LIG    1       23.653 -20.984   4.764  0.00  0.00    +0.002 C 
BRANCH  21  22
ATOM     22  C   LIG    1       23.597 -19.600   4.110  0.00  0.00    +0.028 C 
BRANCH  22  23
ATOM     23  C   LIG    1       24.954 -19.031   3.713  0.00  0.00    +0.156 C 
BRANCH  23  24
ATOM     24  O   LIG    1       25.851 -20.073   3.341  0.00  0.00    -0.395 OA
ATOM     25  H   LIG    1       25.559 -20.900   3.759  0.00  0.00    +0.209 HD
ENDBRANCH  23  24
ENDBRANCH  22  23
ENDBRANCH  21  22
ENDBRANCH  20  21
ENDBRANCH  19  20
ENDBRANCH  18  19
ENDBRANCH  17  18
ENDBRANCH  16  17
ENDBRANCH  15  16
ENDBRANCH  14  15
ENDBRANCH   6  14
TORSDOF 13
ENDMDL
MODEL 4
REMARK VINA RESULT:      -6.5      2.629      8.098
REMARK  Name = *****
REMARK                            x       y       z     vdW  Elec       q    Type
REMARK                         _______ _______ _______ _____ _____    ______ ____
ROOT
ATOM      1  C   LIG    1       24.153 -22.002   6.460  0.00  0.00    +0.213 C 
ATOM      2  C   LIG    1       25.535 -22.483   6.703  0.00  0.00    +0.227 C 
ATOM      3  O   LIG    1       25.828 -23.650   6.849  0.00  0.00    -0.284 OA
ATOM      4  C   LIG    1       26.546 -21.438   6.776  0.00  0.00    +0.007 C 
ATOM      5  C   LIG    1       27.465 -21.634   7.929  0.00  0.00    +0.048 C 
ATOM      6  C   LIG    1       26.505 -20.509   5.797  0.00  0.00    +0.010 C 
ATOM      7  C   LIG    1       25.342 -20.607   4.829  0.00  0.00    +0.228 C 
ATOM      8  O   LIG    1       25.411 -20.188   3.698  0.00  0.00    -0.284 OA
ATOM      9  C   LIG    1       24.052 -21.165   5.435  0.00  0.00    +0.213 C 
ENDROOT
BRANCH   1  11
ATOM     10  C   LIG    1       22.482 -23.713   6.784  0.00  0.00    +0.277 C 
ATOM     11  O   LIG    1       23.091 -22.498   7.191  0.00  0.00    -0.488 OA
ENDBRANCH   1  11
BRANCH   9  12
ATOM     12  O   LIG    1       22.855 -20.677   4.890  0.00  0.00    -0.488 OA
ATOM     13  C   LIG    1       22.555 -19.311   5.181  0.00  0.00    +0.277 C 
ENDBRANCH   9  12
BRANCH   6  14
ATOM     14  C   LIG    1       27.594 -19.483   5.605  0.00  0.00    +0.039 C 
BRANCH  14  15
ATOM     15  C   LIG    1       29.094 -19.802   5.796  0.00  0.00    +0.005 C 
BRANCH  15  16
ATOM     16  C   LIG    1       30.087 -18.682   6.211  0.00  0.00    +0.000 C 
BRANCH  16  17
ATOM     17  C   LIG    1       31.193 -19.140   7.180  0.00  0.00    +0.000 C 
BRANCH  17  18
ATOM     18  C   LIG    1       30.865 -19.368   8.672  0.00  0.00    -0.000 C 
BRANCH  18  19
ATOM     19  C   LIG    1       29.866 -18.294   9.226  0.00  0.00    -0.000 C 
BRANCH  19  20
ATOM     20  C   LIG    1       30.444 -17.440  10.379  0.00  0.00    +0.000 C 
BRANCH  20  21
ATOM     21  C   LIG    1       31.701 -16.584  10.075  0.00  0.00    +0.002 C 
BRANCH  21  22
ATOM     22  C   LIG    1       32.460 -16.024  11.283  0.00  0.00    +0.028 C 
BRANCH  22  23
ATOM     23  C   LIG    1       31.805 -16.306  12.630  0.00  0.00    +0.156 C 
BRANCH  23  24
ATOM     24  O   LIG    1       31.885 -15.166  13.479  0.00  0.00    -0.395 OA
ATOM     25  H   LIG    1       31.387 -15.348  14.294  0.00  0.00    +0.209 HD
ENDBRANCH  23  24
ENDBRANCH  22  23
ENDBRANCH  21  22
ENDBRANCH  20  21
ENDBRANCH  19  20
ENDBRANCH  18  19
ENDBRANCH  17  18
ENDBRANCH  16  17
ENDBRANCH  15  16
ENDBRANCH  14  15
ENDBRANCH   6  14
TORSDOF 13
ENDMDL
MODEL 5
REMARK VINA RESULT:      -6.5      2.021      2.739
REMARK  Name = *****
REMARK                            x       y       z     vdW  Elec       q    Type
REMARK                         _______ _______ _______ _____ _____    ______ ____
ROOT
ATOM      1  C   LIG    1       30.591 -18.430   8.062  0.00  0.00    +0.213 C 
ATOM      2  C   LIG    1       30.276 -18.934   6.704  0.00  0.00    +0.227 C 
ATOM      3  O   LIG    1       30.944 -18.692   5.722  0.00  0.00    -0.284 OA
ATOM      4  C   LIG    1       29.072 -19.747   6.613  0.00  0.00    +0.007 C 
ATOM      5  C   LIG    1       28.224 -19.358   5.455  0.00  0.00    +0.048 C 
ATOM      6  C   LIG    1       28.942 -20.714   7.548  0.00  0.00    +0.010 C 
ATOM      7  C   LIG    1       29.999 -20.741   8.634  0.00  0.00    +0.228 C 
ATOM      8  O   LIG    1       30.287 -21.756   9.224  0.00  0.00    -0.284 OA
ATOM      9  C   LIG    1       30.577 -19.371   8.998  0.00  0.00    +0.213 C 
ENDROOT
BRANCH   1  11
ATOM     10  C   LIG    1       32.241 -16.840   8.819  0.00  0.00    +0.277 C 
ATOM     11  O   LIG    1       30.967 -17.115   8.262  0.00  0.00    -0.488 OA
ENDBRANCH   1  11
BRANCH   9  12
ATOM     12  O   LIG    1       30.982 -19.210  10.331  0.00  0.00    -0.488 OA
ATOM     13  C   LIG    1       30.305 -18.187  11.063  0.00  0.00    +0.277 C 
ENDBRANCH   9  12
BRANCH   6  14
ATOM     14  C   LIG    1       27.867 -21.770   7.479  0.00  0.00    +0.039 C 
BRANCH  14  15
ATOM     15  C   LIG    1       26.659 -21.805   8.442  0.00  0.00    +0.005 C 
BRANCH  15  16
ATOM     16  C   LIG    1       25.617 -20.653   8.434  0.00  0.00    +0.000 C 
BRANCH  16  17
ATOM     17  C   LIG    1       24.621 -20.704   7.261  0.00  0.00    +0.000 C 
BRANCH  17  18
ATOM     18  C   LIG    1       23.282 -21.458   7.418  0.00  0.00    -0.000 C 
BRANCH  18  19
ATOM     19  C   LIG    1       23.107 -22.579   6.334  0.00  0.00    -0.000 C 
BRANCH  19  20
ATOM     20  C   LIG    1       24.438 -23.232   5.892  0.00  0.00    +0.000 C 
BRANCH  20  21
ATOM     21  C   LIG    1       24.890 -24.513   6.639  0.00  0.00    +0.002 C 
BRANCH  21  22
ATOM     22  C   LIG    1       25.210 -25.736   5.774  0.00  0.00    +0.028 C 
BRANCH  22  23
ATOM     23  C   LIG    1       26.435 -26.526   6.220  0.00  0.00    +0.156 C 
BRANCH  23  24
ATOM     24  O   LIG    1       27.168 -27.001   5.096  0.00  0.00    -0.395 OA
ATOM     25  H   LIG    1       27.390 -27.936   5.240  0.00  0.00    +0.209 HD
ENDBRANCH  23  24
ENDBRANCH  22  23
ENDBRANCH  21  22
ENDBRANCH  20  21
ENDBRANCH  19  20
ENDBRANCH  18  19
ENDBRANCH  17  18
ENDBRANCH  16  17
ENDBRANCH  15  16
ENDBRANCH  14  15
ENDBRANCH   6  14
TORSDOF 13
ENDMDL
MODEL 6
REMARK VINA RESULT:      -6.4      3.735      6.548
REMARK  Name = *****
REMARK                            x       y       z     vdW  Elec       q    Type
REMARK                         _______ _______ _______ _____ _____    ______ ____
ROOT
ATOM      1  C   LIG    1       26.369 -20.311   5.778  0.00  0.00    +0.213 C 
ATOM      2  C   LIG    1       26.105 -20.703   7.183  0.00  0.00    +0.227 C 
ATOM      3  O   LIG    1       26.437 -20.041   8.143  0.00  0.00    -0.284 OA
ATOM      4  C   LIG    1       25.419 -21.976   7.348  0.00  0.00    +0.007 C 
ATOM      5  C   LIG    1       26.049 -22.815   8.402  0.00  0.00    +0.048 C 
ATOM      6  C   LIG    1       24.335 -22.167   6.564  0.00  0.00    +0.010 C 
ATOM      7  C   LIG    1       24.054 -21.090   5.535  0.00  0.00    +0.228 C 
ATOM      8  O   LIG    1       22.942 -20.878   5.115  0.00  0.00    -0.284 OA
ATOM      9  C   LIG    1       25.300 -20.384   4.993  0.00  0.00    +0.213 C 
ENDROOT
BRANCH   1  11
ATOM     10  C   LIG    1       28.756 -20.223   6.113  0.00  0.00    +0.277 C 
ATOM     11  O   LIG    1       27.602 -19.816   5.399  0.00  0.00    -0.488 OA
ENDBRANCH   1  11
BRANCH   9  12
ATOM     12  O   LIG    1       25.223 -19.934   3.667  0.00  0.00    -0.488 OA
ATOM     13  C   LIG    1       25.025 -18.529   3.502  0.00  0.00    +0.277 C 
ENDBRANCH   9  12
BRANCH   6  14
ATOM     14  C   LIG    1       23.395 -23.333   6.749  0.00  0.00    +0.039 C 
BRANCH  14  15
ATOM     15  C   LIG    1       23.758 -24.779   6.343  0.00  0.00    +0.005 C 
BRANCH  15  16
ATOM     16  C   LIG    1       24.918 -25.045   5.345  0.00  0.00    +0.000 C 
BRANCH  16  17
ATOM     17  C   LIG    1       26.003 -26.004   5.871  0.00  0.00    +0.000 C 
BRANCH  17  18
ATOM     18  C   LIG    1       26.359 -27.278   5.074  0.00  0.00    -0.000 C 
BRANCH  18  19
ATOM     19  C   LIG    1       25.280 -28.402   5.247  0.00  0.00    -0.000 C 
BRANCH  19  20
ATOM     20  C   LIG    1       24.606 -28.410   6.640  0.00  0.00    +0.000 C 
BRANCH  20  21
ATOM     21  C   LIG    1       24.434 -29.781   7.344  0.00  0.00    +0.002 C 
BRANCH  21  22
ATOM     22  C   LIG    1       25.313 -30.929   6.838  0.00  0.00    +0.028 C 
BRANCH  22  23
ATOM     23  C   LIG    1       24.606 -31.903   5.902  0.00  0.00    +0.156 C 
BRANCH  23  24
ATOM     24  O   LIG    1       23.256 -31.506   5.684  0.00  0.00    -0.395 OA
ATOM     25  H   LIG    1       22.686 -32.291   5.742  0.00  0.00    +0.209 HD
ENDBRANCH  23  24
ENDBRANCH  22  23
ENDBRANCH  21  22
ENDBRANCH  20  21
ENDBRANCH  19  20
ENDBRANCH  18  19
ENDBRANCH  17  18
ENDBRANCH  16  17
ENDBRANCH  15  16
ENDBRANCH  14  15
ENDBRANCH   6  14
TORSDOF 13
ENDMDL
MODEL 7
REMARK VINA RESULT:      -6.1      2.802      5.573
REMARK  Name = *****
REMARK                            x       y       z     vdW  Elec       q    Type
REMARK                         _______ _______ _______ _____ _____    ______ ____
ROOT
ATOM      1  C   LIG    1       25.924 -19.468   4.237  0.00  0.00    +0.213 C 
ATOM      2  C   LIG    1       24.566 -20.017   4.011  0.00  0.00    +0.227 C 
ATOM      3  O   LIG    1       24.144 -20.350   2.924  0.00  0.00    -0.284 OA
ATOM      4  C   LIG    1       23.737 -20.119   5.203  0.00  0.00    +0.007 C 
ATOM      5  C   LIG    1       22.360 -19.608   4.968  0.00  0.00    +0.048 C 
ATOM      6  C   LIG    1       24.327 -20.673   6.285  0.00  0.00    +0.010 C 
ATOM      7  C   LIG    1       25.801 -20.999   6.150  0.00  0.00    +0.228 C 
ATOM      8  O   LIG    1       26.326 -21.874   6.797  0.00  0.00    -0.284 OA
ATOM      9  C   LIG    1       26.581 -20.059   5.228  0.00  0.00    +0.213 C 
ENDROOT
BRANCH   1  11
ATOM     10  C   LIG    1       25.794 -17.257   3.279  0.00  0.00    +0.277 C 
ATOM     11  O   LIG    1       26.451 -18.508   3.394  0.00  0.00    -0.488 OA
ENDBRANCH   1  11
BRANCH   9  12
ATOM     12  O   LIG    1       27.927 -19.849   5.561  0.00  0.00    -0.488 OA
ATOM     13  C   LIG    1       28.227 -19.858   6.957  0.00  0.00    +0.277 C 
ENDBRANCH   9  12
BRANCH   6  14
ATOM     14  C   LIG    1       23.557 -21.040   7.529  0.00  0.00    +0.039 C 
BRANCH  14  15
ATOM     15  C   LIG    1       22.940 -22.439   7.755  0.00  0.00    +0.005 C 
BRANCH  15  16
ATOM     16  C   LIG    1       22.755 -23.416   6.562  0.00  0.00    +0.000 C 
BRANCH  16  17
ATOM     17  C   LIG    1       23.870 -24.469   6.422  0.00  0.00    +0.000 C 
BRANCH  17  18
ATOM     18  C   LIG    1       24.770 -24.478   5.167  0.00  0.00    -0.000 C 
BRANCH  18  19
ATOM     19  C   LIG    1       25.466 -25.867   4.952  0.00  0.00    -0.000 C 
BRANCH  19  20
ATOM     20  C   LIG    1       26.275 -26.356   6.177  0.00  0.00    +0.000 C 
BRANCH  20  21
ATOM     21  C   LIG    1       25.957 -27.770   6.728  0.00  0.00    +0.002 C 
BRANCH  21  22
ATOM     22  C   LIG    1       24.476 -28.121   6.908  0.00  0.00    +0.028 C 
BRANCH  22  23
ATOM     23  C   LIG    1       24.109 -29.545   6.510  0.00  0.00    +0.156 C 
BRANCH  23  24
ATOM     24  O   LIG    1       23.272 -29.549   5.357  0.00  0.00    -0.395 OA
ATOM     25  H   LIG    1       22.360 -29.735   5.635  0.00  0.00    +0.209 HD
ENDBRANCH  23  24
ENDBRANCH  22  23
ENDBRANCH  21  22
ENDBRANCH  20  21
ENDBRANCH  19  20
ENDBRANCH  18  19
ENDBRANCH  17  18
ENDBRANCH  16  17
ENDBRANCH  15  16
ENDBRANCH  14  15
ENDBRANCH   6  14
TORSDOF 13
ENDMDL
MODEL 8
REMARK VINA RESULT:      -6.0      6.226     10.051
REMARK  Name = *****
REMARK                            x       y       z     vdW  Elec       q    Type
REMARK                         _______ _______ _______ _____ _____    ______ ____
ROOT
ATOM      1  C   LIG    1       24.751 -31.410   9.422  0.00  0.00    +0.213 C 
ATOM      2  C   LIG    1       25.946 -30.617   9.047  0.00  0.00    +0.227 C 
ATOM      3  O   LIG    1       27.086 -30.981   9.239  0.00  0.00    -0.284 OA
ATOM      4  C   LIG    1       25.661 -29.328   8.433  0.00  0.00    +0.007 C 
ATOM      5  C   LIG    1       26.496 -28.241   9.010  0.00  0.00    +0.048 C 
ATOM      6  C   LIG    1       24.737 -29.337   7.447  0.00  0.00    +0.010 C 
ATOM      7  C   LIG    1       24.035 -30.657   7.199  0.00  0.00    +0.228 C 
ATOM      8  O   LIG    1       23.569 -30.944   6.122  0.00  0.00    -0.284 OA
ATOM      9  C   LIG    1       23.862 -31.533   8.443  0.00  0.00    +0.213 C 
ENDROOT
BRANCH   1  11
ATOM     10  C   LIG    1       23.858 -31.467  11.663  0.00  0.00    +0.277 C 
ATOM     11  O   LIG    1       24.672 -32.036  10.651  0.00  0.00    -0.488 OA
ENDBRANCH   1  11
BRANCH   9  12
ATOM     12  O   LIG    1       22.721 -32.347   8.468  0.00  0.00    -0.488 OA
ATOM     13  C   LIG    1       22.933 -33.719   8.133  0.00  0.00    +0.277 C 
ENDBRANCH   9  12
BRANCH   6  14
ATOM     14  C   LIG    1       24.473 -28.137   6.571  0.00  0.00    +0.039 C 
BRANCH  14  15
ATOM     15  C   LIG    1       25.224 -27.882   5.245  0.00  0.00    +0.005 C 
BRANCH  15  16
ATOM     16  C   LIG    1       26.045 -26.578   5.048  0.00  0.00    +0.000 C 
BRANCH  16  17
ATOM     17  C   LIG    1       25.998 -25.610   6.244  0.00  0.00    +0.000 C 
BRANCH  17  18
ATOM     18  C   LIG    1       25.154 -24.319   6.160  0.00  0.00    -0.000 C 
BRANCH  18  19
ATOM     19  C   LIG    1       23.678 -24.550   6.636  0.00  0.00    -0.000 C 
BRANCH  19  20
ATOM     20  C   LIG    1       22.809 -23.269   6.619  0.00  0.00    +0.000 C 
BRANCH  20  21
ATOM     21  C   LIG    1       23.341 -22.033   7.389  0.00  0.00    +0.002 C 
BRANCH  21  22
ATOM     22  C   LIG    1       23.401 -20.713   6.612  0.00  0.00    +0.028 C 
BRANCH  22  23
ATOM     23  C   LIG    1       24.351 -20.721   5.421  0.00  0.00    +0.156 C 
BRANCH  23  24
ATOM     24  O   LIG    1       23.626 -20.744   4.195  0.00  0.00    -0.395 OA
ATOM     25  H   LIG    1       23.190 -21.608   4.106  0.00  0.00    +0.209 HD
ENDBRANCH  23  24
ENDBRANCH  22  23
ENDBRANCH  21  22
ENDBRANCH  20  21
ENDBRANCH  19  20
ENDBRANCH  18  19
ENDBRANCH  17  18
ENDBRANCH  16  17
ENDBRANCH  15  16
ENDBRANCH  14  15
ENDBRANCH   6  14
TORSDOF 13
ENDMDL
MODEL 9
REMARK VINA RESULT:      -6.0      5.578      9.565
REMARK  Name = *****
REMARK                            x       y       z     vdW  Elec       q    Type
REMARK                         _______ _______ _______ _____ _____    ______ ____
ROOT
ATOM      1  C   LIG    1       24.741 -31.103   8.274  0.00  0.00    +0.213 C 
ATOM      2  C   LIG    1       25.982 -30.405   8.688  0.00  0.00    +0.227 C 
ATOM      3  O   LIG    1       26.944 -30.966   9.169  0.00  0.00    -0.284 OA
ATOM      4  C   LIG    1       25.973 -28.963   8.492  0.00  0.00    +0.007 C 
ATOM      5  C   LIG    1       26.493 -28.237   9.681  0.00  0.00    +0.048 C 
ATOM      6  C   LIG    1       25.536 -28.535   7.287  0.00  0.00    +0.010 C 
ATOM      7  C   LIG    1       25.001 -29.601   6.351  0.00  0.00    +0.228 C 
ATOM      8  O   LIG    1       25.021 -29.469   5.150  0.00  0.00    -0.284 OA
ATOM      9  C   LIG    1       24.334 -30.789   7.050  0.00  0.00    +0.213 C 
ENDROOT
BRANCH   1  11
ATOM     10  C   LIG    1       23.535 -31.664  10.287  0.00  0.00    +0.277 C 
ATOM     11  O   LIG    1       24.165 -32.065   9.081  0.00  0.00    -0.488 OA
ENDBRANCH   1  11
BRANCH   9  12
ATOM     12  O   LIG    1       23.286 -31.404   6.350  0.00  0.00    -0.488 OA
ATOM     13  C   LIG    1       23.599 -32.659   5.747  0.00  0.00    +0.277 C 
ENDBRANCH   9  12
BRANCH   6  14
ATOM     14  C   LIG    1       25.653 -27.097   6.845  0.00  0.00    +0.039 C 
BRANCH  14  15
ATOM     15  C   LIG    1       24.449 -26.274   6.335  0.00  0.00    +0.005 C 
BRANCH  15  16
ATOM     16  C   LIG    1       24.614 -24.764   6.009  0.00  0.00    +0.000 C 
BRANCH  16  17
ATOM     17  C   LIG    1       25.441 -23.977   7.043  0.00  0.00    +0.000 C 
BRANCH  17  18
ATOM     18  C   LIG    1       25.807 -22.500   6.775  0.00  0.00    -0.000 C 
BRANCH  18  19
ATOM     19  C   LIG    1       24.919 -21.514   7.611  0.00  0.00    -0.000 C 
BRANCH  19  20
ATOM     20  C   LIG    1       23.411 -21.593   7.274  0.00  0.00    +0.000 C 
BRANCH  20  21
ATOM     21  C   LIG    1       22.982 -21.253   5.823  0.00  0.00    +0.002 C 
BRANCH  21  22
ATOM     22  C   LIG    1       23.736 -20.110   5.134  0.00  0.00    +0.028 C 
BRANCH  22  23
ATOM     23  C   LIG    1       24.587 -20.539   3.945  0.00  0.00    +0.156 C 
BRANCH  23  24
ATOM     24  O   LIG    1       25.955 -20.202   4.155  0.00  0.00    -0.395 OA
ATOM     25  H   LIG    1       25.999 -19.371   4.656  0.00  0.00    +0.209 HD
ENDBRANCH  23  24
ENDBRANCH  22  23
ENDBRANCH  21  22
ENDBRANCH  20  21
ENDBRANCH  19  20
ENDBRANCH  18  19
ENDBRANCH  17  18
ENDBRANCH  16  17
ENDBRANCH  15  16
ENDBRANCH  14  15
ENDBRANCH   6  14
TORSDOF 13
ENDMDL
