MODEL 1
REMARK VINA RESULT:      29.2      0.000      0.000
REMARK  Name = *****
REMARK                            x       y       z     vdW  Elec       q    Type
REMARK                         _______ _______ _______ _____ _____    ______ ____
ROOT
ATOM      1  C   LIG    1       22.681 -15.068   4.412  0.00  0.00    +0.143 A 
ATOM      2  C   LIG    1       22.221 -15.211   3.082  0.00  0.00    +0.076 A 
ATOM      3  C   LIG    1       22.845 -14.493   2.074  0.00  0.00    +0.029 A 
ATOM      4  C   LIG    1       23.918 -13.652   2.341  0.00  0.00    +0.025 A 
ATOM      5  C   LIG    1       24.423 -13.476   3.641  0.00  0.00    +0.033 A 
ATOM      6  C   LIG    1       23.725 -14.158   4.656  0.00  0.00    +0.070 A 
ENDROOT
BRANCH   5   7
ATOM      7  N   LIG    1       25.520 -12.635   3.938  0.00  0.00    -0.330 N 
ATOM      8  C   LIG    1       26.597 -12.535   2.926  0.00  0.00    +0.106 C 
ATOM      9  C   LIG    1       27.623 -11.455   3.296  0.00  0.00    +0.037 C 
ATOM     10  C   LIG    1       28.209 -11.569   4.730  0.00  0.00    +0.060 C 
ATOM     11  C   LIG    1       26.974 -11.652   5.653  0.00  0.00    +0.037 C 
ATOM     12  C   LIG    1       26.074 -12.829   5.293  0.00  0.00    +0.106 C 
BRANCH  10  13
ATOM     13  N   LIG    1       29.175 -12.682   4.962  0.00  0.00    -0.297 NA
ATOM     14  C   LIG    1       28.797 -13.626   6.045  0.00  0.00    +0.100 C 
ATOM     15  C   LIG    1       27.711 -14.682   5.696  0.00  0.00    +0.099 C 
ATOM     16  N   LIG    1       27.921 -15.441   4.447  0.00  0.00    -0.303 NA
ATOM     17  C   LIG    1       28.902 -16.518   4.591  0.00  0.00    +0.105 C 
ATOM     18  C   LIG    1       28.297 -14.506   3.373  0.00  0.00    +0.099 C 
ATOM     19  C   LIG    1       29.427 -13.515   3.753  0.00  0.00    +0.100 C 
ENDBRANCH  10  13
ENDBRANCH   5   7
BRANCH   1  21
ATOM     20  C   LIG    1       21.793 -15.088   6.608  0.00  0.00    +0.277 C 
ATOM     21  O   LIG    1       22.051 -15.796   5.378  0.00  0.00    -0.493 OA
ENDBRANCH   1  21
BRANCH   2  22
ATOM     22  N   LIG    1       21.168 -16.103   2.802  0.00  0.00    -0.281 N 
ATOM     23  H   LIG    1       20.343 -15.718   2.389  0.00  0.00    +0.155 HD
BRANCH  22  24
ATOM     24  C   LIG    1       21.011 -17.449   3.118  0.00  0.00    +0.221 A 
ATOM     25  N   LIG    1       22.074 -18.266   3.189  0.00  0.00    -0.198 NA
ATOM     26  C   LIG    1       21.927 -19.522   3.678  0.00  0.00    +0.146 A 
ATOM     27  C   LIG    1       20.649 -19.974   4.009  0.00  0.00    +0.099 A 
ATOM     28 CL   LIG    1       20.349 -21.542   4.698  0.00  0.00    -0.078 Cl
ATOM     29  C   LIG    1       19.612 -19.084   3.843  0.00  0.00    +0.138 A 
ATOM     30  N   LIG    1       19.769 -17.824   3.398  0.00  0.00    -0.221 NA
BRANCH  26  31
ATOM     31  N   LIG    1       23.040 -20.399   3.882  0.00  0.00    -0.298 N 
ATOM     32  H   LIG    1       23.030 -21.193   3.235  0.00  0.00    +0.154 HD
BRANCH  31  33
ATOM     33  C   LIG    1       24.047 -20.447   4.861  0.00  0.00    +0.043 A 
ATOM     34  C   LIG    1       25.253 -19.721   4.733  0.00  0.00    +0.033 A 
ATOM     35  C   LIG    1       26.245 -19.820   5.731  0.00  0.00    +0.013 A 
ATOM     36  C   LIG    1       26.040 -20.553   6.895  0.00  0.00    +0.001 A 
ATOM     37  C   LIG    1       24.845 -21.219   7.061  0.00  0.00    +0.002 A 
ATOM     38  C   LIG    1       23.866 -21.183   6.059  0.00  0.00    +0.024 A 
BRANCH  34  39
ATOM     39  P   LIG    1       25.610 -18.600   3.393  0.00  0.00    +0.112 P 
ATOM     40  O   LIG    1       24.705 -17.402   3.257  0.00  0.00    -0.317 OA
ATOM     41  C   LIG    1       25.586 -19.522   1.847  0.00  0.00    +0.085 C 
ATOM     42  C   LIG    1       27.332 -18.052   3.550  0.00  0.00    +0.085 C 
ENDBRANCH  34  39
ENDBRANCH  31  33
ENDBRANCH  26  31
ENDBRANCH  22  24
ENDBRANCH   2  22
TORSDOF 8
ENDMDL
