MODEL 1
REMARK VINA RESULT:      -5.1      0.000      0.000
REMARK  Name = *****
REMARK                            x       y       z     vdW  Elec       q    Type
REMARK                         _______ _______ _______ _____ _____    ______ ____
ROOT
ATOM      1  C   LIG    1       25.243 -20.763   5.887  0.00  0.00    +0.161 A 
ATOM      2  C   LIG    1       25.069 -20.195   4.619  0.00  0.00    +0.158 A 
ATOM      3  C   LIG    1       23.818 -19.697   4.231  0.00  0.00    +0.049 A 
ATOM      4  C   LIG    1       22.732 -19.764   5.104  0.00  0.00    +0.004 A 
ATOM      5  C   LIG    1       22.892 -20.328   6.366  0.00  0.00    +0.004 A 
ATOM      6  C   LIG    1       24.139 -20.822   6.749  0.00  0.00    +0.049 A 
ENDROOT
BRANCH   1   8
ATOM      7  C   LIG    1       27.300 -20.413   7.059  0.00  0.00    +0.277 C 
ATOM      8  O   LIG    1       26.377 -21.295   6.438  0.00  0.00    -0.491 OA
ENDBRANCH   1   8
BRANCH   2   9
ATOM      9  O   LIG    1       26.101 -20.107   3.726  0.00  0.00    -0.503 OA
ATOM     10  H   LIG    1       26.677 -20.880   3.831  0.00  0.00    +0.292 HD
ENDBRANCH   2   9
TORSDOF 2
ENDMDL
MODEL 2
REMARK VINA RESULT:      -4.8      1.097      2.678
REMARK  Name = *****
REMARK                            x       y       z     vdW  Elec       q    Type
REMARK                         _______ _______ _______ _____ _____    ______ ____
ROOT
ATOM      1  C   LIG    1       24.802 -19.993   4.620  0.00  0.00    +0.161 A 
ATOM      2  C   LIG    1       25.556 -20.509   5.682  0.00  0.00    +0.158 A 
ATOM      3  C   LIG    1       24.925 -20.931   6.858  0.00  0.00    +0.049 A 
ATOM      4  C   LIG    1       23.538 -20.842   6.985  0.00  0.00    +0.004 A 
ATOM      5  C   LIG    1       22.780 -20.330   5.938  0.00  0.00    +0.004 A 
ATOM      6  C   LIG    1       23.411 -19.910   4.767  0.00  0.00    +0.049 A 
ENDROOT
BRANCH   1   8
ATOM      7  C   LIG    1       25.598 -18.168   3.292  0.00  0.00    +0.277 C 
ATOM      8  O   LIG    1       25.236 -19.536   3.405  0.00  0.00    -0.491 OA
ENDBRANCH   1   8
BRANCH   2   9
ATOM      9  O   LIG    1       26.918 -20.615   5.608  0.00  0.00    -0.503 OA
ATOM     10  H   LIG    1       27.288 -19.761   5.339  0.00  0.00    +0.292 HD
ENDBRANCH   2   9
TORSDOF 2
ENDMDL
MODEL 3
REMARK VINA RESULT:      -4.6      7.331      7.745
REMARK  Name = *****
REMARK                            x       y       z     vdW  Elec       q    Type
REMARK                         _______ _______ _______ _____ _____    ______ ____
ROOT
ATOM      1  C   LIG    1       26.764 -13.588   3.588  0.00  0.00    +0.161 A 
ATOM      2  C   LIG    1       25.969 -13.346   4.715  0.00  0.00    +0.158 A 
ATOM      3  C   LIG    1       24.614 -13.020   4.569  0.00  0.00    +0.049 A 
ATOM      4  C   LIG    1       24.044 -12.931   3.298  0.00  0.00    +0.004 A 
ATOM      5  C   LIG    1       24.825 -13.167   2.172  0.00  0.00    +0.004 A 
ATOM      6  C   LIG    1       26.174 -13.492   2.320  0.00  0.00    +0.049 A 
ENDROOT
BRANCH   1   8
ATOM      7  C   LIG    1       29.047 -12.899   3.789  0.00  0.00    +0.277 C 
ATOM      8  O   LIG    1       28.091 -13.917   3.532  0.00  0.00    -0.491 OA
ENDBRANCH   1   8
BRANCH   2   9
ATOM      9  O   LIG    1       26.480 -13.419   5.981  0.00  0.00    -0.503 OA
ATOM     10  H   LIG    1       25.753 -13.548   6.610  0.00  0.00    +0.292 HD
ENDBRANCH   2   9
TORSDOF 2
ENDMDL
MODEL 4
REMARK VINA RESULT:      -4.6      5.599      6.418
REMARK  Name = *****
REMARK                            x       y       z     vdW  Elec       q    Type
REMARK                         _______ _______ _______ _____ _____    ______ ____
ROOT
ATOM      1  C   LIG    1       25.819 -15.200   3.276  0.00  0.00    +0.161 A 
ATOM      2  C   LIG    1       26.187 -14.059   2.552  0.00  0.00    +0.158 A 
ATOM      3  C   LIG    1       25.376 -12.918   2.568  0.00  0.00    +0.049 A 
ATOM      4  C   LIG    1       24.191 -12.906   3.305  0.00  0.00    +0.004 A 
ATOM      5  C   LIG    1       23.814 -14.033   4.027  0.00  0.00    +0.004 A 
ATOM      6  C   LIG    1       24.625 -15.169   4.009  0.00  0.00    +0.049 A 
ENDROOT
BRANCH   1   8
ATOM      7  C   LIG    1       25.716 -17.590   3.293  0.00  0.00    +0.277 C 
ATOM      8  O   LIG    1       26.476 -16.395   3.382  0.00  0.00    -0.491 OA
ENDBRANCH   1   8
BRANCH   2   9
ATOM      9  O   LIG    1       27.337 -14.021   1.812  0.00  0.00    -0.503 OA
ATOM     10  H   LIG    1       27.363 -14.793   1.226  0.00  0.00    +0.292 HD
ENDBRANCH   2   9
TORSDOF 2
ENDMDL
MODEL 5
REMARK VINA RESULT:      -4.5      1.281      2.332
REMARK  Name = *****
REMARK                            x       y       z     vdW  Elec       q    Type
REMARK                         _______ _______ _______ _____ _____    ______ ____
ROOT
ATOM      1  C   LIG    1       24.917 -20.738   5.535  0.00  0.00    +0.161 A 
ATOM      2  C   LIG    1       23.588 -20.571   5.944  0.00  0.00    +0.158 A 
ATOM      3  C   LIG    1       22.718 -19.755   5.210  0.00  0.00    +0.049 A 
ATOM      4  C   LIG    1       23.167 -19.099   4.063  0.00  0.00    +0.004 A 
ATOM      5  C   LIG    1       24.485 -19.256   3.648  0.00  0.00    +0.004 A 
ATOM      6  C   LIG    1       25.350 -20.070   4.381  0.00  0.00    +0.049 A 
ENDROOT
BRANCH   1   8
ATOM      7  C   LIG    1       26.988 -20.810   6.731  0.00  0.00    +0.277 C 
ATOM      8  O   LIG    1       25.903 -21.488   6.116  0.00  0.00    -0.491 OA
ENDBRANCH   1   8
BRANCH   2   9
ATOM      9  O   LIG    1       23.100 -21.190   7.062  0.00  0.00    -0.503 OA
ATOM     10  H   LIG    1       22.504 -21.906   6.793  0.00  0.00    +0.292 HD
ENDBRANCH   2   9
TORSDOF 2
ENDMDL
MODEL 6
REMARK VINA RESULT:      -4.5      1.561      3.113
REMARK  Name = *****
REMARK                            x       y       z     vdW  Elec       q    Type
REMARK                         _______ _______ _______ _____ _____    ______ ____
ROOT
ATOM      1  C   LIG    1       24.385 -20.308   5.004  0.00  0.00    +0.161 A 
ATOM      2  C   LIG    1       25.619 -19.944   4.451  0.00  0.00    +0.158 A 
ATOM      3  C   LIG    1       26.797 -20.076   5.198  0.00  0.00    +0.049 A 
ATOM      4  C   LIG    1       26.752 -20.571   6.501  0.00  0.00    +0.004 A 
ATOM      5  C   LIG    1       25.533 -20.934   7.062  0.00  0.00    +0.004 A 
ATOM      6  C   LIG    1       24.361 -20.802   6.316  0.00  0.00    +0.049 A 
ENDROOT
BRANCH   1   8
ATOM      7  C   LIG    1       22.313 -19.140   4.739  0.00  0.00    +0.277 C 
ATOM      8  O   LIG    1       23.143 -20.252   4.435  0.00  0.00    -0.491 OA
ENDBRANCH   1   8
BRANCH   2   9
ATOM      9  O   LIG    1       25.716 -19.452   3.178  0.00  0.00    -0.503 OA
ATOM     10  H   LIG    1       24.845 -19.494   2.755  0.00  0.00    +0.292 HD
ENDBRANCH   2   9
TORSDOF 2
ENDMDL
MODEL 7
REMARK VINA RESULT:      -4.4      7.418      7.501
REMARK  Name = *****
REMARK                            x       y       z     vdW  Elec       q    Type
REMARK                         _______ _______ _______ _____ _____    ______ ____
ROOT
ATOM      1  C   LIG    1       26.500 -13.428   4.030  0.00  0.00    +0.161 A 
ATOM      2  C   LIG    1       26.157 -13.702   2.700  0.00  0.00    +0.158 A 
ATOM      3  C   LIG    1       24.855 -13.464   2.242  0.00  0.00    +0.049 A 
ATOM      4  C   LIG    1       23.886 -12.955   3.106  0.00  0.00    +0.004 A 
ATOM      5  C   LIG    1       24.214 -12.681   4.429  0.00  0.00    +0.004 A 
ATOM      6  C   LIG    1       25.512 -12.917   4.883  0.00  0.00    +0.049 A 
ENDROOT
BRANCH   1   8
ATOM      7  C   LIG    1       28.737 -12.653   4.382  0.00  0.00    +0.277 C 
ATOM      8  O   LIG    1       27.707 -13.591   4.653  0.00  0.00    -0.491 OA
ENDBRANCH   1   8
BRANCH   2   9
ATOM      9  O   LIG    1       27.070 -14.204   1.814  0.00  0.00    -0.503 OA
ATOM     10  H   LIG    1       27.915 -14.337   2.271  0.00  0.00    +0.292 HD
ENDBRANCH   2   9
TORSDOF 2
ENDMDL
MODEL 8
REMARK VINA RESULT:      -4.4      1.684      3.021
REMARK  Name = *****
REMARK                            x       y       z     vdW  Elec       q    Type
REMARK                         _______ _______ _______ _____ _____    ______ ____
ROOT
ATOM      1  C   LIG    1       24.627 -19.890   4.544  0.00  0.00    +0.161 A 
ATOM      2  C   LIG    1       23.318 -19.868   5.041  0.00  0.00    +0.158 A 
ATOM      3  C   LIG    1       23.028 -20.419   6.296  0.00  0.00    +0.049 A 
ATOM      4  C   LIG    1       24.041 -20.998   7.062  0.00  0.00    +0.004 A 
ATOM      5  C   LIG    1       25.344 -21.028   6.576  0.00  0.00    +0.004 A 
ATOM      6  C   LIG    1       25.630 -20.477   5.327  0.00  0.00    +0.049 A 
ENDROOT
BRANCH   1   8
ATOM      7  C   LIG    1       25.613 -18.083   3.323  0.00  0.00    +0.277 C 
ATOM      8  O   LIG    1       25.097 -19.405   3.354  0.00  0.00    -0.491 OA
ENDBRANCH   1   8
BRANCH   2   9
ATOM      9  O   LIG    1       22.290 -19.314   4.329  0.00  0.00    -0.503 OA
ATOM     10  H   LIG    1       22.146 -19.834   3.524  0.00  0.00    +0.292 HD
ENDBRANCH   2   9
TORSDOF 2
ENDMDL
MODEL 9
REMARK VINA RESULT:      -4.3      1.772      3.811
REMARK  Name = *****
REMARK                            x       y       z     vdW  Elec       q    Type
REMARK                         _______ _______ _______ _____ _____    ______ ____
ROOT
ATOM      1  C   LIG    1       24.168 -20.277   5.108  0.00  0.00    +0.161 A 
ATOM      2  C   LIG    1       24.238 -20.818   6.399  0.00  0.00    +0.158 A 
ATOM      3  C   LIG    1       25.474 -20.943   7.047  0.00  0.00    +0.049 A 
ATOM      4  C   LIG    1       26.647 -20.531   6.413  0.00  0.00    +0.004 A 
ATOM      5  C   LIG    1       26.589 -19.995   5.132  0.00  0.00    +0.004 A 
ATOM      6  C   LIG    1       25.357 -19.871   4.488  0.00  0.00    +0.049 A 
ENDROOT
BRANCH   1   8
ATOM      7  C   LIG    1       22.354 -18.856   4.462  0.00  0.00    +0.277 C 
ATOM      8  O   LIG    1       23.064 -20.078   4.324  0.00  0.00    -0.491 OA
ENDBRANCH   1   8
BRANCH   2   9
ATOM      9  O   LIG    1       23.118 -21.238   7.062  0.00  0.00    -0.503 OA
ATOM     10  H   LIG    1       23.270 -22.131   7.406  0.00  0.00    +0.292 HD
ENDBRANCH   2   9
TORSDOF 2
ENDMDL
