MODEL 1
REMARK VINA RESULT:      -3.3      0.000      0.000
REMARK  Name = *****
REMARK                            x       y       z     vdW  Elec       q    Type
REMARK                         _______ _______ _______ _____ _____    ______ ____
ROOT
ATOM      1  C   LIG    1       23.126 -14.932   4.085  0.00  0.00    +0.027 C 
ATOM      2  C   LIG    1       24.656 -14.930   4.240  0.00  0.00    +0.086 C 
ATOM      3  N   LIG    1       25.211 -13.562   3.987  0.00  0.00    -0.298 NA
ATOM      4  C   LIG    1       24.756 -12.576   4.970  0.00  0.00    +0.105 C 
ATOM      5  C   LIG    1       26.688 -13.622   4.007  0.00  0.00    +0.112 C 
ATOM      6  C   LIG    1       27.221 -14.656   3.013  0.00  0.00    +0.176 C 
ATOM      7  O   LIG    1       26.735 -15.958   3.335  0.00  0.00    -0.369 OA
ATOM      8  C   LIG    1       25.296 -15.990   3.269  0.00  0.00    +0.165 C 
ENDROOT
BRANCH   8   9
ATOM      9  C   LIG    1       24.884 -17.418   3.582  0.00  0.00    -0.017 A 
ATOM     10  C   LIG    1       23.561 -17.731   3.933  0.00  0.00    +0.006 A 
ATOM     11  C   LIG    1       23.186 -19.047   4.201  0.00  0.00    +0.000 A 
ATOM     12  C   LIG    1       24.130 -20.071   4.124  0.00  0.00    +0.000 A 
ATOM     13  C   LIG    1       25.448 -19.776   3.783  0.00  0.00    +0.000 A 
ATOM     14  C   LIG    1       25.824 -18.458   3.516  0.00  0.00    +0.006 A 
ENDBRANCH   8   9
TORSDOF 1
ENDMDL
MODEL 2
REMARK VINA RESULT:      -3.3      0.037      1.290
REMARK  Name = *****
REMARK                            x       y       z     vdW  Elec       q    Type
REMARK                         _______ _______ _______ _____ _____    ______ ____
ROOT
ATOM      1  C   LIG    1       23.130 -14.946   4.092  0.00  0.00    +0.027 C 
ATOM      2  C   LIG    1       24.660 -14.927   4.240  0.00  0.00    +0.086 C 
ATOM      3  N   LIG    1       25.198 -13.551   3.997  0.00  0.00    -0.298 NA
ATOM      4  C   LIG    1       24.736 -12.579   4.990  0.00  0.00    +0.105 C 
ATOM      5  C   LIG    1       26.676 -13.594   4.010  0.00  0.00    +0.112 C 
ATOM      6  C   LIG    1       27.217 -14.613   3.005  0.00  0.00    +0.176 C 
ATOM      7  O   LIG    1       26.747 -15.924   3.318  0.00  0.00    -0.369 OA
ATOM      8  C   LIG    1       25.308 -15.972   3.258  0.00  0.00    +0.165 C 
ENDROOT
BRANCH   8   9
ATOM      9  C   LIG    1       24.914 -17.407   3.560  0.00  0.00    -0.017 A 
ATOM     10  C   LIG    1       25.858 -18.444   3.512  0.00  0.00    +0.006 A 
ATOM     11  C   LIG    1       25.491 -19.757   3.809  0.00  0.00    +0.000 A 
ATOM     12  C   LIG    1       24.175 -20.052   4.158  0.00  0.00    +0.000 A 
ATOM     13  C   LIG    1       23.224 -19.034   4.205  0.00  0.00    +0.000 A 
ATOM     14  C   LIG    1       23.590 -17.720   3.906  0.00  0.00    +0.006 A 
ENDBRANCH   8   9
TORSDOF 1
ENDMDL
MODEL 3
REMARK VINA RESULT:      -3.0      2.517      5.416
REMARK  Name = *****
REMARK                            x       y       z     vdW  Elec       q    Type
REMARK                         _______ _______ _______ _____ _____    ______ ____
ROOT
ATOM      1  C   LIG    1       26.018 -19.521   3.695  0.00  0.00    +0.027 C 
ATOM      2  C   LIG    1       24.716 -19.277   4.476  0.00  0.00    +0.086 C 
ATOM      3  N   LIG    1       23.928 -20.544   4.601  0.00  0.00    -0.298 NA
ATOM      4  C   LIG    1       24.623 -21.567   5.385  0.00  0.00    +0.105 C 
ATOM      5  C   LIG    1       22.623 -20.249   5.232  0.00  0.00    +0.112 C 
ATOM      6  C   LIG    1       21.861 -19.166   4.467  0.00  0.00    +0.176 C 
ATOM      7  O   LIG    1       22.609 -17.951   4.440  0.00  0.00    -0.369 OA
ATOM      8  C   LIG    1       23.871 -18.150   3.775  0.00  0.00    +0.165 C 
ENDROOT
BRANCH   8   9
ATOM      9  C   LIG    1       24.566 -16.799   3.759  0.00  0.00    -0.017 A 
ATOM     10  C   LIG    1       23.894 -15.633   4.160  0.00  0.00    +0.006 A 
ATOM     11  C   LIG    1       24.545 -14.399   4.160  0.00  0.00    +0.000 A 
ATOM     12  C   LIG    1       25.877 -14.313   3.759  0.00  0.00    +0.000 A 
ATOM     13  C   LIG    1       26.556 -15.460   3.354  0.00  0.00    +0.000 A 
ATOM     14  C   LIG    1       25.905 -16.695   3.351  0.00  0.00    +0.006 A 
ENDBRANCH   8   9
TORSDOF 1
ENDMDL
MODEL 4
REMARK VINA RESULT:      -2.8      1.969      5.052
REMARK  Name = *****
REMARK                            x       y       z     vdW  Elec       q    Type
REMARK                         _______ _______ _______ _____ _____    ______ ____
ROOT
ATOM      1  C   LIG    1       22.763 -16.152   4.580  0.00  0.00    +0.027 C 
ATOM      2  C   LIG    1       23.967 -16.510   3.692  0.00  0.00    +0.086 C 
ATOM      3  N   LIG    1       24.430 -17.907   3.966  0.00  0.00    -0.298 NA
ATOM      4  C   LIG    1       23.425 -18.915   3.620  0.00  0.00    +0.105 C 
ATOM      5  C   LIG    1       25.668 -18.172   3.201  0.00  0.00    +0.112 C 
ATOM      6  C   LIG    1       26.749 -17.133   3.506  0.00  0.00    +0.176 C 
ATOM      7  O   LIG    1       26.300 -15.824   3.155  0.00  0.00    -0.369 OA
ATOM      8  C   LIG    1       25.128 -15.472   3.917  0.00  0.00    +0.165 C 
ENDROOT
BRANCH   8   9
ATOM      9  C   LIG    1       24.759 -14.057   3.507  0.00  0.00    -0.017 A 
ATOM     10  C   LIG    1       24.954 -13.610   2.191  0.00  0.00    +0.006 A 
ATOM     11  C   LIG    1       24.595 -12.314   1.817  0.00  0.00    +0.000 A 
ATOM     12  C   LIG    1       24.036 -11.447   2.755  0.00  0.00    +0.000 A 
ATOM     13  C   LIG    1       23.841 -11.875   4.066  0.00  0.00    +0.000 A 
ATOM     14  C   LIG    1       24.202 -13.171   4.442  0.00  0.00    +0.006 A 
ENDBRANCH   8   9
TORSDOF 1
ENDMDL
MODEL 5
REMARK VINA RESULT:      -2.7      2.665      5.462
REMARK  Name = *****
REMARK                            x       y       z     vdW  Elec       q    Type
REMARK                         _______ _______ _______ _____ _____    ______ ____
ROOT
ATOM      1  C   LIG    1       27.493 -19.267   5.157  0.00  0.00    +0.027 C 
ATOM      2  C   LIG    1       25.984 -19.483   4.954  0.00  0.00    +0.086 C 
ATOM      3  N   LIG    1       25.652 -20.943   4.972  0.00  0.00    -0.298 NA
ATOM      4  C   LIG    1       25.926 -21.570   6.266  0.00  0.00    +0.105 C 
ATOM      5  C   LIG    1       24.223 -21.124   4.637  0.00  0.00    +0.112 C 
ATOM      6  C   LIG    1       23.872 -20.466   3.301  0.00  0.00    +0.176 C 
ATOM      7  O   LIG    1       24.126 -19.062   3.351  0.00  0.00    -0.369 OA
ATOM      8  C   LIG    1       25.521 -18.812   3.608  0.00  0.00    +0.165 C 
ENDROOT
BRANCH   8   9
ATOM      9  C   LIG    1       25.695 -17.303   3.597  0.00  0.00    -0.017 A 
ATOM     10  C   LIG    1       24.593 -16.445   3.733  0.00  0.00    +0.006 A 
ATOM     11  C   LIG    1       24.763 -15.060   3.740  0.00  0.00    +0.000 A 
ATOM     12  C   LIG    1       26.039 -14.514   3.612  0.00  0.00    +0.000 A 
ATOM     13  C   LIG    1       27.143 -15.351   3.472  0.00  0.00    +0.000 A 
ATOM     14  C   LIG    1       26.973 -16.738   3.462  0.00  0.00    +0.006 A 
ENDBRANCH   8   9
TORSDOF 1
ENDMDL
MODEL 6
REMARK VINA RESULT:      -2.7      1.940      4.846
REMARK  Name = *****
REMARK                            x       y       z     vdW  Elec       q    Type
REMARK                         _______ _______ _______ _____ _____    ______ ____
ROOT
ATOM      1  C   LIG    1       22.468 -16.097   4.984  0.00  0.00    +0.027 C 
ATOM      2  C   LIG    1       23.298 -16.943   4.004  0.00  0.00    +0.086 C 
ATOM      3  N   LIG    1       23.201 -18.397   4.348  0.00  0.00    -0.298 NA
ATOM      4  C   LIG    1       21.842 -18.924   4.203  0.00  0.00    +0.105 C 
ATOM      5  C   LIG    1       24.116 -19.168   3.477  0.00  0.00    +0.112 C 
ATOM      6  C   LIG    1       25.551 -18.645   3.569  0.00  0.00    +0.176 C 
ATOM      7  O   LIG    1       25.615 -17.280   3.157  0.00  0.00    -0.369 OA
ATOM      8  C   LIG    1       24.795 -16.457   4.009  0.00  0.00    +0.165 C 
ENDROOT
BRANCH   8   9
ATOM      9  C   LIG    1       24.965 -15.029   3.519  0.00  0.00    -0.017 A 
ATOM     10  C   LIG    1       23.959 -14.070   3.717  0.00  0.00    +0.006 A 
ATOM     11  C   LIG    1       24.131 -12.757   3.280  0.00  0.00    +0.000 A 
ATOM     12  C   LIG    1       25.311 -12.383   2.638  0.00  0.00    +0.000 A 
ATOM     13  C   LIG    1       26.316 -13.325   2.430  0.00  0.00    +0.000 A 
ATOM     14  C   LIG    1       26.144 -14.641   2.865  0.00  0.00    +0.006 A 
ENDBRANCH   8   9
TORSDOF 1
ENDMDL
MODEL 7
REMARK VINA RESULT:      -2.6      1.529      2.689
REMARK  Name = *****
REMARK                            x       y       z     vdW  Elec       q    Type
REMARK                         _______ _______ _______ _____ _____    ______ ____
ROOT
ATOM      1  C   LIG    1       26.901 -16.183   3.779  0.00  0.00    +0.027 C 
ATOM      2  C   LIG    1       25.778 -15.247   3.302  0.00  0.00    +0.086 C 
ATOM      3  N   LIG    1       26.238 -13.822   3.309  0.00  0.00    -0.298 NA
ATOM      4  C   LIG    1       27.327 -13.575   2.362  0.00  0.00    +0.105 C 
ATOM      5  C   LIG    1       25.098 -12.938   2.980  0.00  0.00    +0.112 C 
ATOM      6  C   LIG    1       23.918 -13.170   3.926  0.00  0.00    +0.176 C 
ATOM      7  O   LIG    1       23.456 -14.518   3.830  0.00  0.00    -0.369 OA
ATOM      8  C   LIG    1       24.502 -15.436   4.204  0.00  0.00    +0.165 C 
ENDROOT
BRANCH   8   9
ATOM      9  C   LIG    1       23.902 -16.829   4.113  0.00  0.00    -0.017 A 
ATOM     10  C   LIG    1       24.662 -17.917   3.657  0.00  0.00    +0.006 A 
ATOM     11  C   LIG    1       24.109 -19.196   3.593  0.00  0.00    +0.000 A 
ATOM     12  C   LIG    1       22.788 -19.405   3.984  0.00  0.00    +0.000 A 
ATOM     13  C   LIG    1       22.019 -18.335   4.435  0.00  0.00    +0.000 A 
ATOM     14  C   LIG    1       22.571 -17.053   4.496  0.00  0.00    +0.006 A 
ENDBRANCH   8   9
TORSDOF 1
ENDMDL
MODEL 8
REMARK VINA RESULT:      -2.5      2.570      5.567
REMARK  Name = *****
REMARK                            x       y       z     vdW  Elec       q    Type
REMARK                         _______ _______ _______ _____ _____    ______ ____
ROOT
ATOM      1  C   LIG    1       27.193 -19.323   4.816  0.00  0.00    +0.027 C 
ATOM      2  C   LIG    1       25.658 -19.406   4.772  0.00  0.00    +0.086 C 
ATOM      3  N   LIG    1       25.206 -20.833   4.745  0.00  0.00    -0.298 NA
ATOM      4  C   LIG    1       25.563 -21.563   5.963  0.00  0.00    +0.105 C 
ATOM      5  C   LIG    1       23.739 -20.879   4.564  0.00  0.00    +0.112 C 
ATOM      6  C   LIG    1       23.304 -20.110   3.315  0.00  0.00    +0.176 C 
ATOM      7  O   LIG    1       23.681 -18.737   3.414  0.00  0.00    -0.369 OA
ATOM      8  C   LIG    1       25.113 -18.614   3.526  0.00  0.00    +0.165 C 
ENDROOT
BRANCH   8   9
ATOM      9  C   LIG    1       25.413 -17.126   3.581  0.00  0.00    -0.017 A 
ATOM     10  C   LIG    1       26.711 -16.640   3.362  0.00  0.00    +0.006 A 
ATOM     11  C   LIG    1       26.975 -15.270   3.396  0.00  0.00    +0.000 A 
ATOM     12  C   LIG    1       25.944 -14.368   3.651  0.00  0.00    +0.000 A 
ATOM     13  C   LIG    1       24.651 -14.835   3.876  0.00  0.00    +0.000 A 
ATOM     14  C   LIG    1       24.387 -16.206   3.844  0.00  0.00    +0.006 A 
ENDBRANCH   8   9
TORSDOF 1
ENDMDL
MODEL 9
REMARK VINA RESULT:      -2.5      1.661      2.442
REMARK  Name = *****
REMARK                            x       y       z     vdW  Elec       q    Type
REMARK                         _______ _______ _______ _____ _____    ______ ____
ROOT
ATOM      1  C   LIG    1       26.987 -15.593   4.244  0.00  0.00    +0.027 C 
ATOM      2  C   LIG    1       25.967 -14.792   3.418  0.00  0.00    +0.086 C 
ATOM      3  N   LIG    1       26.390 -13.361   3.298  0.00  0.00    -0.298 NA
ATOM      4  C   LIG    1       27.643 -13.201   2.559  0.00  0.00    +0.105 C 
ATOM      5  C   LIG    1       25.324 -12.590   2.621  0.00  0.00    +0.112 C 
ATOM      6  C   LIG    1       23.981 -12.739   3.339  0.00  0.00    +0.176 C 
ATOM      7  O   LIG    1       23.573 -14.107   3.361  0.00  0.00    -0.369 OA
ATOM      8  C   LIG    1       24.539 -14.909   4.069  0.00  0.00    +0.165 C 
ENDROOT
BRANCH   8   9
ATOM      9  C   LIG    1       23.995 -16.328   4.075  0.00  0.00    -0.017 A 
ATOM     10  C   LIG    1       22.702 -16.607   4.543  0.00  0.00    +0.006 A 
ATOM     11  C   LIG    1       22.204 -17.911   4.528  0.00  0.00    +0.000 A 
ATOM     12  C   LIG    1       22.993 -18.953   4.045  0.00  0.00    +0.000 A 
ATOM     13  C   LIG    1       24.281 -18.693   3.582  0.00  0.00    +0.000 A 
ATOM     14  C   LIG    1       24.781 -17.389   3.598  0.00  0.00    +0.006 A 
ENDBRANCH   8   9
TORSDOF 1
ENDMDL
