MODEL 1
REMARK VINA RESULT:      -4.1      0.000      0.000
REMARK  Name = *****
REMARK                            x       y       z     vdW  Elec       q    Type
REMARK                         _______ _______ _______ _____ _____    ______ ____
ROOT
ATOM      1  C   LIG    1       27.943 -17.916   4.533  0.00  0.00    +0.132 C 
ENDROOT
BRANCH   1   2
ATOM      2  C   LIG    1       27.095 -16.930   3.774  0.00  0.00    +0.308 C 
ATOM      3  O   LIG    1       26.137 -17.233   3.084  0.00  0.00    -0.251 OA
BRANCH   2   4
ATOM      4  O   LIG    1       27.558 -15.653   3.911  0.00  0.00    -0.459 OA
BRANCH   4   5
ATOM      5  C   LIG    1       26.811 -14.644   3.190  0.00  0.00    +0.282 C 
BRANCH   5   6
ATOM      6  C   LIG    1       26.101 -13.677   4.155  0.00  0.00    +0.174 C 
BRANCH   6   8
ATOM      7  C   LIG    1       24.144 -12.166   4.675  0.00  0.00    +0.192 C 
ATOM      8  N   LIG    1       24.654 -13.307   3.800  0.00  0.00    +0.239 N 
ATOM      9  C   LIG    1       24.496 -12.938   2.334  0.00  0.00    +0.192 C 
ATOM     10  C   LIG    1       23.796 -14.550   4.082  0.00  0.00    +0.192 C 
ENDBRANCH   6   8
ENDBRANCH   5   6
ENDBRANCH   4   5
ENDBRANCH   2   4
ENDBRANCH   1   2
BRANCH   1  11
ATOM     11  C   LIG    1       27.185 -19.230   4.743  0.00  0.00    +0.132 C 
BRANCH  11  12
ATOM     12  C   LIG    1       27.670 -20.021   5.935  0.00  0.00    +0.308 C 
ATOM     13  O   LIG    1       28.821 -20.290   6.186  0.00  0.00    -0.251 OA
BRANCH  12  14
ATOM     14  O   LIG    1       26.631 -20.325   6.721  0.00  0.00    -0.459 OA
BRANCH  14  15
ATOM     15  C   LIG    1       25.573 -21.141   6.164  0.00  0.00    +0.282 C 
BRANCH  15  16
ATOM     16  C   LIG    1       24.134 -20.568   6.240  0.00  0.00    +0.174 C 
BRANCH  16  17
ATOM     17  N   LIG    1       23.370 -20.491   4.885  0.00  0.00    +0.239 N 
ATOM     18  C   LIG    1       24.180 -21.229   3.803  0.00  0.00    +0.192 C 
ATOM     19  C   LIG    1       23.199 -19.053   4.411  0.00  0.00    +0.192 C 
ATOM     20  C   LIG    1       22.013 -21.164   4.987  0.00  0.00    +0.192 C 
ENDBRANCH  16  17
ENDBRANCH  15  16
ENDBRANCH  14  15
ENDBRANCH  12  14
ENDBRANCH  11  12
ENDBRANCH   1  11
TORSDOF 11
ENDMDL
MODEL 2
REMARK VINA RESULT:      -4.0      0.170      6.458
REMARK  Name = *****
REMARK                            x       y       z     vdW  Elec       q    Type
REMARK                         _______ _______ _______ _____ _____    ______ ____
ROOT
ATOM      1  C   LIG    1       27.005 -19.318   4.743  0.00  0.00    +0.132 C 
ENDROOT
BRANCH   1   2
ATOM      2  C   LIG    1       27.528 -20.042   5.955  0.00  0.00    +0.308 C 
ATOM      3  O   LIG    1       28.694 -20.349   6.125  0.00  0.00    -0.251 OA
BRANCH   2   4
ATOM      4  O   LIG    1       26.525 -20.359   6.827  0.00  0.00    -0.459 OA
BRANCH   4   5
ATOM      5  C   LIG    1       25.551 -21.307   6.331  0.00  0.00    +0.282 C 
BRANCH   5   6
ATOM      6  C   LIG    1       24.137 -20.699   6.313  0.00  0.00    +0.174 C 
BRANCH   6   8
ATOM      7  C   LIG    1       22.028 -21.238   5.030  0.00  0.00    +0.192 C 
ATOM      8  N   LIG    1       23.436 -20.655   4.948  0.00  0.00    +0.239 N 
ATOM      9  C   LIG    1       23.374 -19.249   4.376  0.00  0.00    +0.192 C 
ATOM     10  C   LIG    1       24.264 -21.530   3.995  0.00  0.00    +0.192 C 
ENDBRANCH   6   8
ENDBRANCH   5   6
ENDBRANCH   4   5
ENDBRANCH   2   4
ENDBRANCH   1   2
BRANCH   1  11
ATOM     11  C   LIG    1       27.800 -18.033   4.498  0.00  0.00    +0.132 C 
BRANCH  11  12
ATOM     12  C   LIG    1       27.039 -16.995   3.708  0.00  0.00    +0.308 C 
ATOM     13  O   LIG    1       26.079 -17.204   3.004  0.00  0.00    -0.251 OA
BRANCH  12  14
ATOM     14  O   LIG    1       27.548 -15.783   3.957  0.00  0.00    -0.459 OA
BRANCH  14  15
ATOM     15  C   LIG    1       26.921 -14.640   3.327  0.00  0.00    +0.282 C 
BRANCH  15  16
ATOM     16  C   LIG    1       26.146 -13.668   4.255  0.00  0.00    +0.174 C 
BRANCH  16  17
ATOM     17  N   LIG    1       24.695 -13.327   3.805  0.00  0.00    +0.239 N 
ATOM     18  C   LIG    1       23.794 -14.556   4.023  0.00  0.00    +0.192 C 
ATOM     19  C   LIG    1       24.627 -12.980   2.323  0.00  0.00    +0.192 C 
ATOM     20  C   LIG    1       24.126 -12.184   4.628  0.00  0.00    +0.192 C 
ENDBRANCH  16  17
ENDBRANCH  15  16
ENDBRANCH  14  15
ENDBRANCH  12  14
ENDBRANCH  11  12
ENDBRANCH   1  11
TORSDOF 11
ENDMDL
MODEL 3
REMARK VINA RESULT:      -3.7      3.004      4.537
REMARK  Name = *****
REMARK                            x       y       z     vdW  Elec       q    Type
REMARK                         _______ _______ _______ _____ _____    ______ ____
ROOT
ATOM      1  C   LIG    1       23.897 -14.049   4.694  0.00  0.00    +0.132 C 
ENDROOT
BRANCH   1   2
ATOM      2  C   LIG    1       23.935 -12.900   3.722  0.00  0.00    +0.308 C 
ATOM      3  O   LIG    1       23.695 -11.743   4.013  0.00  0.00    -0.251 OA
BRANCH   2   4
ATOM      4  O   LIG    1       24.226 -13.319   2.455  0.00  0.00    -0.459 OA
BRANCH   4   5
ATOM      5  C   LIG    1       25.609 -13.676   2.223  0.00  0.00    +0.282 C 
BRANCH   5   6
ATOM      6  C   LIG    1       26.560 -12.801   3.059  0.00  0.00    +0.174 C 
BRANCH   6   8
ATOM      7  C   LIG    1       28.970 -13.113   3.753  0.00  0.00    +0.192 C 
ATOM      8  N   LIG    1       27.527 -13.548   3.989  0.00  0.00    +0.239 N 
ATOM      9  C   LIG    1       27.171 -13.369   5.455  0.00  0.00    +0.192 C 
ATOM     10  C   LIG    1       27.411 -15.041   3.642  0.00  0.00    +0.192 C 
ENDBRANCH   6   8
ENDBRANCH   5   6
ENDBRANCH   4   5
ENDBRANCH   2   4
ENDBRANCH   1   2
BRANCH   1  11
ATOM     11  C   LIG    1       23.272 -15.286   4.043  0.00  0.00    +0.132 C 
BRANCH  11  12
ATOM     12  C   LIG    1       22.346 -16.048   4.962  0.00  0.00    +0.308 C 
ATOM     13  O   LIG    1       21.992 -15.696   6.062  0.00  0.00    -0.251 OA
BRANCH  12  14
ATOM     14  O   LIG    1       21.914 -17.153   4.343  0.00  0.00    -0.459 OA
BRANCH  14  15
ATOM     15  C   LIG    1       22.396 -18.432   4.820  0.00  0.00    +0.282 C 
BRANCH  15  16
ATOM     16  C   LIG    1       23.584 -19.063   4.047  0.00  0.00    +0.174 C 
BRANCH  16  17
ATOM     17  N   LIG    1       24.169 -20.366   4.667  0.00  0.00    +0.239 N 
ATOM     18  C   LIG    1       24.062 -21.509   3.641  0.00  0.00    +0.192 C 
ATOM     19  C   LIG    1       23.396 -20.804   5.905  0.00  0.00    +0.192 C 
ATOM     20  C   LIG    1       25.637 -20.192   5.012  0.00  0.00    +0.192 C 
ENDBRANCH  16  17
ENDBRANCH  15  16
ENDBRANCH  14  15
ENDBRANCH  12  14
ENDBRANCH  11  12
ENDBRANCH   1  11
TORSDOF 11
ENDMDL
MODEL 4
REMARK VINA RESULT:      -3.6      2.980      7.542
REMARK  Name = *****
REMARK                            x       y       z     vdW  Elec       q    Type
REMARK                         _______ _______ _______ _____ _____    ______ ____
ROOT
ATOM      1  C   LIG    1       23.348 -15.383   3.965  0.00  0.00    +0.132 C 
ENDROOT
BRANCH   1   2
ATOM      2  C   LIG    1       22.368 -16.123   4.836  0.00  0.00    +0.308 C 
ATOM      3  O   LIG    1       22.017 -15.757   5.943  0.00  0.00    -0.251 OA
BRANCH   2   4
ATOM      4  O   LIG    1       21.953 -17.288   4.255  0.00  0.00    -0.459 OA
BRANCH   4   5
ATOM      5  C   LIG    1       22.405 -18.498   4.906  0.00  0.00    +0.282 C 
BRANCH   5   6
ATOM      6  C   LIG    1       23.634 -19.092   4.193  0.00  0.00    +0.174 C 
BRANCH   6   8
ATOM      7  C   LIG    1       23.442 -20.810   6.036  0.00  0.00    +0.192 C 
ATOM      8  N   LIG    1       24.159 -20.425   4.745  0.00  0.00    +0.239 N 
ATOM      9  C   LIG    1       24.039 -21.555   3.736  0.00  0.00    +0.192 C 
ATOM     10  C   LIG    1       25.647 -20.218   5.065  0.00  0.00    +0.192 C 
ENDBRANCH   6   8
ENDBRANCH   5   6
ENDBRANCH   4   5
ENDBRANCH   2   4
ENDBRANCH   1   2
BRANCH   1  11
ATOM     11  C   LIG    1       23.803 -14.088   4.645  0.00  0.00    +0.132 C 
BRANCH  11  12
ATOM     12  C   LIG    1       23.858 -12.904   3.710  0.00  0.00    +0.308 C 
ATOM     13  O   LIG    1       23.734 -11.744   4.026  0.00  0.00    -0.251 OA
BRANCH  12  14
ATOM     14  O   LIG    1       24.139 -13.327   2.471  0.00  0.00    -0.459 OA
BRANCH  14  15
ATOM     15  C   LIG    1       25.530 -13.476   2.103  0.00  0.00    +0.282 C 
BRANCH  15  16
ATOM     16  C   LIG    1       26.568 -12.711   2.965  0.00  0.00    +0.174 C 
BRANCH  16  17
ATOM     17  N   LIG    1       27.424 -13.592   3.922  0.00  0.00    +0.239 N 
ATOM     18  C   LIG    1       28.910 -13.227   3.755  0.00  0.00    +0.192 C 
ATOM     19  C   LIG    1       27.290 -15.075   3.600  0.00  0.00    +0.192 C 
ATOM     20  C   LIG    1       27.047 -13.344   5.372  0.00  0.00    +0.192 C 
ENDBRANCH  16  17
ENDBRANCH  15  16
ENDBRANCH  14  15
ENDBRANCH  12  14
ENDBRANCH  11  12
ENDBRANCH   1  11
TORSDOF 11
ENDMDL
MODEL 5
REMARK VINA RESULT:      -3.4      1.716      6.822
REMARK  Name = *****
REMARK                            x       y       z     vdW  Elec       q    Type
REMARK                         _______ _______ _______ _____ _____    ______ ____
ROOT
ATOM      1  C   LIG    1       26.126 -16.398   3.267  0.00  0.00    +0.132 C 
ENDROOT
BRANCH   1   2
ATOM      2  C   LIG    1       26.409 -17.809   3.710  0.00  0.00    +0.308 C 
ATOM      3  O   LIG    1       27.439 -18.167   4.251  0.00  0.00    -0.251 OA
BRANCH   2   4
ATOM      4  O   LIG    1       25.387 -18.655   3.387  0.00  0.00    -0.459 OA
BRANCH   4   5
ATOM      5  C   LIG    1       25.366 -19.905   4.115  0.00  0.00    +0.282 C 
BRANCH   5   6
ATOM      6  C   LIG    1       24.030 -20.646   3.918  0.00  0.00    +0.174 C 
BRANCH   6   8
ATOM      7  C   LIG    1       22.386 -19.000   4.904  0.00  0.00    +0.192 C 
ATOM      8  N   LIG    1       22.961 -20.410   4.994  0.00  0.00    +0.239 N 
ATOM      9  C   LIG    1       21.834 -21.427   4.920  0.00  0.00    +0.192 C 
ATOM     10  C   LIG    1       23.659 -20.559   6.354  0.00  0.00    +0.192 C 
ENDBRANCH   6   8
ENDBRANCH   5   6
ENDBRANCH   4   5
ENDBRANCH   2   4
ENDBRANCH   1   2
BRANCH   1  11
ATOM     11  C   LIG    1       27.257 -15.460   3.700  0.00  0.00    +0.132 C 
BRANCH  11  12
ATOM     12  C   LIG    1       27.343 -14.200   2.872  0.00  0.00    +0.308 C 
ATOM     13  O   LIG    1       28.122 -13.291   3.043  0.00  0.00    -0.251 OA
BRANCH  12  14
ATOM     14  O   LIG    1       26.466 -14.266   1.864  0.00  0.00    -0.459 OA
BRANCH  14  15
ATOM     15  C   LIG    1       25.272 -13.452   1.947  0.00  0.00    +0.282 C 
BRANCH  15  16
ATOM     16  C   LIG    1       25.252 -12.349   3.038  0.00  0.00    +0.174 C 
BRANCH  16  17
ATOM     17  N   LIG    1       24.510 -12.722   4.355  0.00  0.00    +0.239 N 
ATOM     18  C   LIG    1       25.544 -12.988   5.463  0.00  0.00    +0.192 C 
ATOM     19  C   LIG    1       23.684 -13.994   4.200  0.00  0.00    +0.192 C 
ATOM     20  C   LIG    1       23.619 -11.583   4.817  0.00  0.00    +0.192 C 
ENDBRANCH  16  17
ENDBRANCH  15  16
ENDBRANCH  14  15
ENDBRANCH  12  14
ENDBRANCH  11  12
ENDBRANCH   1  11
TORSDOF 11
ENDMDL
MODEL 6
REMARK VINA RESULT:      -3.4      0.979      1.953
REMARK  Name = *****
REMARK                            x       y       z     vdW  Elec       q    Type
REMARK                         _______ _______ _______ _____ _____    ______ ____
ROOT
ATOM      1  C   LIG    1       26.854 -17.096   3.730  0.00  0.00    +0.132 C 
ENDROOT
BRANCH   1   2
ATOM      2  C   LIG    1       27.236 -15.646   3.594  0.00  0.00    +0.308 C 
ATOM      3  O   LIG    1       27.946 -15.044   4.379  0.00  0.00    -0.251 OA
BRANCH   2   4
ATOM      4  O   LIG    1       26.649 -15.068   2.505  0.00  0.00    -0.459 OA
BRANCH   4   5
ATOM      5  C   LIG    1       26.554 -13.624   2.547  0.00  0.00    +0.282 C 
BRANCH   5   6
ATOM      6  C   LIG    1       25.897 -13.144   3.853  0.00  0.00    +0.174 C 
BRANCH   6   8
ATOM      7  C   LIG    1       23.732 -14.374   4.282  0.00  0.00    +0.192 C 
ATOM      8  N   LIG    1       24.364 -13.055   3.848  0.00  0.00    +0.239 N 
ATOM      9  C   LIG    1       23.848 -11.927   4.726  0.00  0.00    +0.192 C 
ATOM     10  C   LIG    1       23.941 -12.772   2.398  0.00  0.00    +0.192 C 
ENDBRANCH   6   8
ENDBRANCH   5   6
ENDBRANCH   4   5
ENDBRANCH   2   4
ENDBRANCH   1   2
BRANCH   1  11
ATOM     11  C   LIG    1       27.927 -17.865   4.507  0.00  0.00    +0.132 C 
BRANCH  11  12
ATOM     12  C   LIG    1       27.472 -19.228   4.971  0.00  0.00    +0.308 C 
ATOM     13  O   LIG    1       28.083 -19.966   5.709  0.00  0.00    -0.251 OA
BRANCH  12  14
ATOM     14  O   LIG    1       26.246 -19.475   4.496  0.00  0.00    -0.459 OA
BRANCH  14  15
ATOM     15  C   LIG    1       25.517 -20.597   5.047  0.00  0.00    +0.282 C 
BRANCH  15  16
ATOM     16  C   LIG    1       24.157 -20.941   4.386  0.00  0.00    +0.174 C 
BRANCH  16  17
ATOM     17  N   LIG    1       22.894 -20.552   5.208  0.00  0.00    +0.239 N 
ATOM     18  C   LIG    1       23.209 -20.670   6.710  0.00  0.00    +0.192 C 
ATOM     19  C   LIG    1       21.722 -21.484   4.924  0.00  0.00    +0.192 C 
ATOM     20  C   LIG    1       22.487 -19.115   4.933  0.00  0.00    +0.192 C 
ENDBRANCH  16  17
ENDBRANCH  15  16
ENDBRANCH  14  15
ENDBRANCH  12  14
ENDBRANCH  11  12
ENDBRANCH   1  11
TORSDOF 11
ENDMDL
MODEL 7
REMARK VINA RESULT:      -3.2      2.605      7.387
REMARK  Name = *****
REMARK                            x       y       z     vdW  Elec       q    Type
REMARK                         _______ _______ _______ _____ _____    ______ ____
ROOT
ATOM      1  C   LIG    1       22.345 -16.873   4.530  0.00  0.00    +0.132 C 
ENDROOT
BRANCH   1   2
ATOM      2  C   LIG    1       22.496 -18.361   4.361  0.00  0.00    +0.308 C 
ATOM      3  O   LIG    1       22.861 -18.904   3.334  0.00  0.00    -0.251 OA
BRANCH   2   4
ATOM      4  O   LIG    1       22.127 -19.038   5.488  0.00  0.00    -0.459 OA
BRANCH   4   5
ATOM      5  C   LIG    1       22.651 -20.382   5.602  0.00  0.00    +0.282 C 
BRANCH   5   6
ATOM      6  C   LIG    1       23.994 -20.397   6.355  0.00  0.00    +0.174 C 
BRANCH   6   8
ATOM      7  C   LIG    1       25.899 -19.471   4.978  0.00  0.00    +0.192 C 
ATOM      8  N   LIG    1       25.236 -20.734   5.518  0.00  0.00    +0.239 N 
ATOM      9  C   LIG    1       26.252 -21.553   6.296  0.00  0.00    +0.192 C 
ATOM     10  C   LIG    1       24.753 -21.572   4.324  0.00  0.00    +0.192 C 
ENDBRANCH   6   8
ENDBRANCH   5   6
ENDBRANCH   4   5
ENDBRANCH   2   4
ENDBRANCH   1   2
BRANCH   1  11
ATOM     11  C   LIG    1       23.616 -16.147   4.078  0.00  0.00    +0.132 C 
BRANCH  11  12
ATOM     12  C   LIG    1       23.550 -14.649   4.256  0.00  0.00    +0.308 C 
ATOM     13  O   LIG    1       23.304 -14.068   5.287  0.00  0.00    -0.251 OA
BRANCH  12  14
ATOM     14  O   LIG    1       23.877 -14.049   3.106  0.00  0.00    -0.459 OA
BRANCH  14  15
ATOM     15  C   LIG    1       24.757 -12.901   3.165  0.00  0.00    +0.282 C 
BRANCH  15  16
ATOM     16  C   LIG    1       26.225 -13.122   2.714  0.00  0.00    +0.174 C 
BRANCH  16  17
ATOM     17  N   LIG    1       27.171 -13.735   3.789  0.00  0.00    +0.239 N 
ATOM     18  C   LIG    1       27.178 -15.268   3.644  0.00  0.00    +0.192 C 
ATOM     19  C   LIG    1       26.700 -13.422   5.204  0.00  0.00    +0.192 C 
ATOM     20  C   LIG    1       28.596 -13.246   3.601  0.00  0.00    +0.192 C 
ENDBRANCH  16  17
ENDBRANCH  15  16
ENDBRANCH  14  15
ENDBRANCH  12  14
ENDBRANCH  11  12
ENDBRANCH   1  11
TORSDOF 11
ENDMDL
MODEL 8
REMARK VINA RESULT:      -2.6      1.429      2.711
REMARK  Name = *****
REMARK                            x       y       z     vdW  Elec       q    Type
REMARK                         _______ _______ _______ _____ _____    ______ ____
ROOT
ATOM      1  C   LIG    1       26.437 -15.497   3.006  0.00  0.00    +0.132 C 
ENDROOT
BRANCH   1   2
ATOM      2  C   LIG    1       27.305 -14.270   3.094  0.00  0.00    +0.308 C 
ATOM      3  O   LIG    1       28.296 -14.176   3.796  0.00  0.00    -0.251 OA
BRANCH   2   4
ATOM      4  O   LIG    1       26.819 -13.251   2.327  0.00  0.00    -0.459 OA
BRANCH   4   5
ATOM      5  C   LIG    1       25.385 -13.250   2.135  0.00  0.00    +0.282 C 
BRANCH   5   6
ATOM      6  C   LIG    1       24.706 -12.164   2.989  0.00  0.00    +0.174 C 
BRANCH   6   8
ATOM      7  C   LIG    1       23.388 -11.538   5.052  0.00  0.00    +0.192 C 
ATOM      8  N   LIG    1       24.312 -12.572   4.416  0.00  0.00    +0.239 N 
ATOM      9  C   LIG    1       23.657 -13.942   4.464  0.00  0.00    +0.192 C 
ATOM     10  C   LIG    1       25.610 -12.627   5.236  0.00  0.00    +0.192 C 
ENDBRANCH   6   8
ENDBRANCH   5   6
ENDBRANCH   4   5
ENDBRANCH   2   4
ENDBRANCH   1   2
BRANCH   1  11
ATOM     11  C   LIG    1       27.116 -16.688   3.690  0.00  0.00    +0.132 C 
BRANCH  11  12
ATOM     12  C   LIG    1       26.301 -17.958   3.636  0.00  0.00    +0.308 C 
ATOM     13  O   LIG    1       25.453 -18.223   2.817  0.00  0.00    -0.251 OA
BRANCH  12  14
ATOM     14  O   LIG    1       26.709 -18.791   4.601  0.00  0.00    -0.459 OA
BRANCH  14  15
ATOM     15  C   LIG    1       26.183 -20.139   4.602  0.00  0.00    +0.282 C 
BRANCH  15  16
ATOM     16  C   LIG    1       25.111 -20.471   5.672  0.00  0.00    +0.174 C 
BRANCH  16  17
ATOM     17  N   LIG    1       23.673 -20.720   5.127  0.00  0.00    +0.239 N 
ATOM     18  C   LIG    1       22.946 -19.371   4.979  0.00  0.00    +0.192 C 
ATOM     19  C   LIG    1       22.844 -21.572   6.080  0.00  0.00    +0.192 C 
ATOM     20  C   LIG    1       23.717 -21.374   3.757  0.00  0.00    +0.192 C 
ENDBRANCH  16  17
ENDBRANCH  15  16
ENDBRANCH  14  15
ENDBRANCH  12  14
ENDBRANCH  11  12
ENDBRANCH   1  11
TORSDOF 11
ENDMDL
MODEL 9
REMARK VINA RESULT:      -1.6      1.301      6.597
REMARK  Name = *****
REMARK                            x       y       z     vdW  Elec       q    Type
REMARK                         _______ _______ _______ _____ _____    ______ ____
ROOT
ATOM      1  C   LIG    1       27.796 -17.719   3.983  0.00  0.00    +0.132 C 
ENDROOT
BRANCH   1   2
ATOM      2  C   LIG    1       28.549 -18.357   5.120  0.00  0.00    +0.308 C 
ATOM      3  O   LIG    1       29.409 -17.798   5.776  0.00  0.00    -0.251 OA
BRANCH   2   4
ATOM      4  O   LIG    1       28.187 -19.661   5.298  0.00  0.00    -0.459 OA
BRANCH   4   5
ATOM      5  C   LIG    1       26.807 -19.873   5.679  0.00  0.00    +0.282 C 
BRANCH   5   6
ATOM      6  C   LIG    1       25.995 -20.489   4.524  0.00  0.00    +0.174 C 
BRANCH   6   8
ATOM      7  C   LIG    1       24.011 -20.473   6.088  0.00  0.00    +0.192 C 
ATOM      8  N   LIG    1       24.468 -20.378   4.635  0.00  0.00    +0.239 N 
ATOM      9  C   LIG    1       23.935 -19.098   4.014  0.00  0.00    +0.192 C 
ATOM     10  C   LIG    1       23.880 -21.571   3.867  0.00  0.00    +0.192 C 
ENDBRANCH   6   8
ENDBRANCH   5   6
ENDBRANCH   4   5
ENDBRANCH   2   4
ENDBRANCH   1   2
BRANCH   1  11
ATOM     11  C   LIG    1       27.057 -16.466   4.461  0.00  0.00    +0.132 C 
BRANCH  11  12
ATOM     12  C   LIG    1       27.447 -15.214   3.712  0.00  0.00    +0.308 C 
ATOM     13  O   LIG    1       28.351 -14.466   4.002  0.00  0.00    -0.251 OA
BRANCH  12  14
ATOM     14  O   LIG    1       26.678 -15.088   2.624  0.00  0.00    -0.459 OA
BRANCH  14  15
ATOM     15  C   LIG    1       26.275 -13.756   2.226  0.00  0.00    +0.282 C 
BRANCH  15  16
ATOM     16  C   LIG    1       25.906 -12.769   3.364  0.00  0.00    +0.174 C 
BRANCH  16  17
ATOM     17  N   LIG    1       24.382 -12.521   3.568  0.00  0.00    +0.239 N 
ATOM     18  C   LIG    1       23.885 -11.515   2.514  0.00  0.00    +0.192 C 
ATOM     19  C   LIG    1       24.083 -11.919   4.936  0.00  0.00    +0.192 C 
ATOM     20  C   LIG    1       23.594 -13.806   3.389  0.00  0.00    +0.192 C 
ENDBRANCH  16  17
ENDBRANCH  15  16
ENDBRANCH  14  15
ENDBRANCH  12  14
ENDBRANCH  11  12
ENDBRANCH   1  11
TORSDOF 11
ENDMDL
