MODEL 1
REMARK VINA RESULT:      -7.3      0.000      0.000
REMARK  Name = *****
REMARK                            x       y       z     vdW  Elec       q    Type
REMARK                         _______ _______ _______ _____ _____    ______ ____
ROOT
ATOM      1  C   LIG    1       23.866 -19.947   5.102  0.00  0.00    -0.003 A 
ATOM      2  C   LIG    1       24.689 -20.489   6.167  0.00  0.00    +0.130 A 
ATOM      3  C   LIG    1       26.138 -20.495   6.040  0.00  0.00    -0.003 A 
ATOM      4  C   LIG    1       26.695 -19.907   4.893  0.00  0.00    +0.007 A 
ATOM      5  C   LIG    1       25.911 -19.423   3.863  0.00  0.00    +0.001 A 
ATOM      6  C   LIG    1       24.529 -19.464   3.956  0.00  0.00    +0.007 A 
ENDROOT
BRANCH   1   8
ATOM      7  C   LIG    1       21.742 -18.650   4.206  0.00  0.00    +0.012 C 
ATOM      8  C   LIG    1       22.317 -19.811   5.088  0.00  0.00    +0.016 C 
ATOM      9  C   LIG    1       21.628 -21.101   4.625  0.00  0.00    +0.012 C 
ENDBRANCH   1   8
BRANCH   3  10
ATOM     10  C   LIG    1       27.172 -21.071   7.036  0.00  0.00    +0.016 C 
ATOM     11  C   LIG    1       27.007 -20.518   8.475  0.00  0.00    +0.012 C 
ATOM     12  C   LIG    1       28.661 -20.914   6.689  0.00  0.00    +0.012 C 
ENDBRANCH   3  10
BRANCH   2  13
ATOM     13  O   LIG    1       24.026 -20.994   7.297  0.00  0.00    -0.465 OA
BRANCH  13  14
ATOM     14  C   LIG    1       23.739 -22.391   7.177  0.00  0.00    +0.406 C 
BRANCH  14  15
ATOM     15  O   LIG    1       24.780 -23.325   7.306  0.00  0.00    -0.249 OA
BRANCH  15  16
ATOM     16  P   LIG    1       24.839 -24.408   6.177  0.00  0.00    +0.475 P 
ATOM     17  O   LIG    1       25.941 -25.428   6.365  0.00  0.00    -0.227 OA
BRANCH  16  18
ATOM     18  O   LIG    1       24.872 -23.657   4.774  0.00  0.00    -0.302 OA
ATOM     19  H   LIG    1       23.985 -23.405   4.426  0.00  0.00    +0.222 HD
ENDBRANCH  16  18
BRANCH  16  20
ATOM     20  O   LIG    1       23.391 -25.038   6.170  0.00  0.00    -0.302 OA
ATOM     21  H   LIG    1       22.725 -24.401   5.848  0.00  0.00    +0.222 HD
ENDBRANCH  16  20
ENDBRANCH  15  16
ENDBRANCH  14  15
ENDBRANCH  13  14
ENDBRANCH   2  13
TORSDOF 8
ENDMDL
MODEL 2
REMARK VINA RESULT:      -7.3      0.118      3.897
REMARK  Name = *****
REMARK                            x       y       z     vdW  Elec       q    Type
REMARK                         _______ _______ _______ _____ _____    ______ ____
ROOT
ATOM      1  C   LIG    1       26.155 -20.510   6.093  0.00  0.00    -0.003 A 
ATOM      2  C   LIG    1       24.707 -20.516   6.196  0.00  0.00    +0.130 A 
ATOM      3  C   LIG    1       23.897 -19.935   5.136  0.00  0.00    -0.003 A 
ATOM      4  C   LIG    1       24.562 -19.436   4.004  0.00  0.00    +0.007 A 
ATOM      5  C   LIG    1       25.942 -19.398   3.923  0.00  0.00    +0.001 A 
ATOM      6  C   LIG    1       26.719 -19.901   4.954  0.00  0.00    +0.007 A 
ENDROOT
BRANCH   1   8
ATOM      7  C   LIG    1       28.685 -20.926   6.745  0.00  0.00    +0.012 C 
ATOM      8  C   LIG    1       27.170 -21.127   7.096  0.00  0.00    +0.016 C 
ATOM      9  C   LIG    1       26.971 -20.595   8.521  0.00  0.00    +0.012 C 
ENDBRANCH   1   8
BRANCH   3  10
ATOM     10  C   LIG    1       22.357 -19.803   5.088  0.00  0.00    +0.016 C 
ATOM     11  C   LIG    1       21.645 -21.112   4.659  0.00  0.00    +0.012 C 
ATOM     12  C   LIG    1       21.764 -18.690   4.211  0.00  0.00    +0.012 C 
ENDBRANCH   3  10
BRANCH   2  13
ATOM     13  O   LIG    1       24.147 -21.099   7.343  0.00  0.00    -0.465 OA
BRANCH  13  14
ATOM     14  C   LIG    1       23.815 -22.476   7.144  0.00  0.00    +0.406 C 
BRANCH  14  15
ATOM     15  O   LIG    1       24.820 -23.452   7.244  0.00  0.00    -0.249 OA
BRANCH  15  16
ATOM     16  P   LIG    1       24.893 -24.450   6.039  0.00  0.00    +0.475 P 
ATOM     17  O   LIG    1       26.057 -25.415   6.113  0.00  0.00    -0.227 OA
BRANCH  16  18
ATOM     18  O   LIG    1       24.827 -23.604   4.693  0.00  0.00    -0.302 OA
ATOM     19  H   LIG    1       23.918 -23.331   4.427  0.00  0.00    +0.222 HD
ENDBRANCH  16  18
BRANCH  16  20
ATOM     20  O   LIG    1       23.483 -25.161   6.039  0.00  0.00    -0.302 OA
ATOM     21  H   LIG    1       23.483 -25.958   5.476  0.00  0.00    +0.222 HD
ENDBRANCH  16  20
ENDBRANCH  15  16
ENDBRANCH  14  15
ENDBRANCH  13  14
ENDBRANCH   2  13
TORSDOF 8
ENDMDL
MODEL 3
REMARK VINA RESULT:      -6.8      1.221      3.890
REMARK  Name = *****
REMARK                            x       y       z     vdW  Elec       q    Type
REMARK                         _______ _______ _______ _____ _____    ______ ____
ROOT
ATOM      1  C   LIG    1       27.019 -20.135   5.738  0.00  0.00    -0.003 A 
ATOM      2  C   LIG    1       25.892 -20.936   6.180  0.00  0.00    +0.130 A 
ATOM      3  C   LIG    1       24.627 -20.876   5.463  0.00  0.00    -0.003 A 
ATOM      4  C   LIG    1       24.566 -20.075   4.312  0.00  0.00    +0.007 A 
ATOM      5  C   LIG    1       25.629 -19.285   3.911  0.00  0.00    +0.001 A 
ATOM      6  C   LIG    1       26.818 -19.298   4.623  0.00  0.00    +0.007 A 
ENDROOT
BRANCH   1   8
ATOM      7  C   LIG    1       29.405 -18.994   5.800  0.00  0.00    +0.012 C 
ATOM      8  C   LIG    1       28.450 -20.112   6.345  0.00  0.00    +0.016 C 
ATOM      9  C   LIG    1       28.428 -19.969   7.872  0.00  0.00    +0.012 C 
ENDBRANCH   1   8
BRANCH   3  10
ATOM     10  C   LIG    1       23.310 -21.609   5.809  0.00  0.00    +0.016 C 
ATOM     11  C   LIG    1       22.069 -20.997   5.109  0.00  0.00    +0.012 C 
ATOM     12  C   LIG    1       22.936 -21.744   7.293  0.00  0.00    +0.012 C 
ENDBRANCH   3  10
BRANCH   2  13
ATOM     13  O   LIG    1       26.085 -21.749   7.307  0.00  0.00    -0.465 OA
BRANCH  13  14
ATOM     14  C   LIG    1       26.428 -23.093   6.953  0.00  0.00    +0.406 C 
BRANCH  14  15
ATOM     15  O   LIG    1       25.492 -24.121   7.152  0.00  0.00    -0.249 OA
BRANCH  15  16
ATOM     16  P   LIG    1       25.320 -25.101   5.943  0.00  0.00    +0.475 P 
ATOM     17  O   LIG    1       26.479 -26.056   5.759  0.00  0.00    -0.227 OA
BRANCH  16  18
ATOM     18  O   LIG    1       24.972 -24.235   4.653  0.00  0.00    -0.302 OA
ATOM     19  H   LIG    1       25.177 -24.678   3.797  0.00  0.00    +0.222 HD
ENDBRANCH  16  18
BRANCH  16  20
ATOM     20  O   LIG    1       23.945 -25.824   6.224  0.00  0.00    -0.302 OA
ATOM     21  H   LIG    1       23.786 -26.552   5.593  0.00  0.00    +0.222 HD
ENDBRANCH  16  20
ENDBRANCH  15  16
ENDBRANCH  14  15
ENDBRANCH  13  14
ENDBRANCH   2  13
TORSDOF 8
ENDMDL
MODEL 4
REMARK VINA RESULT:      -6.8      1.208      1.717
REMARK  Name = *****
REMARK                            x       y       z     vdW  Elec       q    Type
REMARK                         _______ _______ _______ _____ _____    ______ ____
ROOT
ATOM      1  C   LIG    1       24.621 -20.761   5.364  0.00  0.00    -0.003 A 
ATOM      2  C   LIG    1       25.900 -20.803   6.048  0.00  0.00    +0.130 A 
ATOM      3  C   LIG    1       27.020 -20.016   5.552  0.00  0.00    -0.003 A 
ATOM      4  C   LIG    1       26.793 -19.184   4.444  0.00  0.00    +0.007 A 
ATOM      5  C   LIG    1       25.585 -19.171   3.772  0.00  0.00    +0.001 A 
ATOM      6  C   LIG    1       24.532 -19.960   4.208  0.00  0.00    +0.007 A 
ENDROOT
BRANCH   1   8
ATOM      7  C   LIG    1       22.973 -21.470   7.308  0.00  0.00    +0.012 C 
ATOM      8  C   LIG    1       23.311 -21.488   5.777  0.00  0.00    +0.016 C 
ATOM      9  C   LIG    1       22.084 -20.928   5.047  0.00  0.00    +0.012 C 
ENDBRANCH   1   8
BRANCH   3  10
ATOM     10  C   LIG    1       28.462 -19.969   6.109  0.00  0.00    +0.016 C 
ATOM     11  C   LIG    1       28.519 -20.006   7.658  0.00  0.00    +0.012 C 
ATOM     12  C   LIG    1       29.354 -18.793   5.680  0.00  0.00    +0.012 C 
ENDBRANCH   3  10
BRANCH   2  13
ATOM     13  O   LIG    1       25.995 -21.622   7.183  0.00  0.00    -0.465 OA
BRANCH  13  14
ATOM     14  C   LIG    1       26.316 -22.976   6.849  0.00  0.00    +0.406 C 
BRANCH  14  15
ATOM     15  O   LIG    1       25.459 -24.011   7.257  0.00  0.00    -0.249 OA
BRANCH  15  16
ATOM     16  P   LIG    1       24.987 -24.968   6.111  0.00  0.00    +0.475 P 
ATOM     17  O   LIG    1       25.685 -26.311   6.108  0.00  0.00    -0.227 OA
BRANCH  16  18
ATOM     18  O   LIG    1       25.084 -24.175   4.735  0.00  0.00    -0.302 OA
ATOM     19  H   LIG    1       24.332 -24.334   4.118  0.00  0.00    +0.222 HD
ENDBRANCH  16  18
BRANCH  16  20
ATOM     20  O   LIG    1       23.424 -25.070   6.312  0.00  0.00    -0.302 OA
ATOM     21  H   LIG    1       23.151 -24.727   7.184  0.00  0.00    +0.222 HD
ENDBRANCH  16  20
ENDBRANCH  15  16
ENDBRANCH  14  15
ENDBRANCH  13  14
ENDBRANCH   2  13
TORSDOF 8
ENDMDL
MODEL 5
REMARK VINA RESULT:      -6.7      3.226      5.375
REMARK  Name = *****
REMARK                            x       y       z     vdW  Elec       q    Type
REMARK                         _______ _______ _______ _____ _____    ______ ____
ROOT
ATOM      1  C   LIG    1       24.834 -22.289   6.258  0.00  0.00    -0.003 A 
ATOM      2  C   LIG    1       24.886 -21.156   5.352  0.00  0.00    +0.130 A 
ATOM      3  C   LIG    1       23.655 -20.528   4.896  0.00  0.00    -0.003 A 
ATOM      4  C   LIG    1       22.443 -21.016   5.411  0.00  0.00    +0.007 A 
ATOM      5  C   LIG    1       22.392 -22.118   6.246  0.00  0.00    +0.001 A 
ATOM      6  C   LIG    1       23.559 -22.753   6.639  0.00  0.00    +0.007 A 
ENDROOT
BRANCH   1   8
ATOM      7  C   LIG    1       26.381 -22.675   8.368  0.00  0.00    +0.012 C 
ATOM      8  C   LIG    1       26.038 -23.046   6.884  0.00  0.00    +0.016 C 
ATOM      9  C   LIG    1       25.850 -24.568   6.841  0.00  0.00    +0.012 C 
ENDBRANCH   1   8
BRANCH   3  10
ATOM     10  C   LIG    1       23.505 -19.354   3.901  0.00  0.00    +0.016 C 
ATOM     11  C   LIG    1       24.841 -18.618   3.618  0.00  0.00    +0.012 C 
ATOM     12  C   LIG    1       22.481 -18.259   4.238  0.00  0.00    +0.012 C 
ENDBRANCH   3  10
BRANCH   2  13
ATOM     13  O   LIG    1       26.155 -20.712   4.951  0.00  0.00    -0.465 OA
BRANCH  13  14
ATOM     14  C   LIG    1       26.869 -20.079   6.018  0.00  0.00    +0.406 C 
BRANCH  14  15
ATOM     15  O   LIG    1       28.192 -19.655   5.809  0.00  0.00    -0.249 OA
BRANCH  15  16
ATOM     16  P   LIG    1       29.184 -19.989   6.974  0.00  0.00    +0.475 P 
ATOM     17  O   LIG    1       28.705 -19.535   8.336  0.00  0.00    -0.227 OA
BRANCH  16  18
ATOM     18  O   LIG    1       30.622 -19.442   6.569  0.00  0.00    -0.302 OA
ATOM     19  H   LIG    1       31.352 -20.096   6.673  0.00  0.00    +0.222 HD
ENDBRANCH  16  18
BRANCH  16  20
ATOM     20  O   LIG    1       29.394 -21.550   6.868  0.00  0.00    -0.302 OA
ATOM     21  H   LIG    1       29.472 -21.963   7.749  0.00  0.00    +0.222 HD
ENDBRANCH  16  20
ENDBRANCH  15  16
ENDBRANCH  14  15
ENDBRANCH  13  14
ENDBRANCH   2  13
TORSDOF 8
ENDMDL
MODEL 6
REMARK VINA RESULT:      -6.6      3.223      4.358
REMARK  Name = *****
REMARK                            x       y       z     vdW  Elec       q    Type
REMARK                         _______ _______ _______ _____ _____    ______ ____
ROOT
ATOM      1  C   LIG    1       23.631 -20.480   4.891  0.00  0.00    -0.003 A 
ATOM      2  C   LIG    1       24.862 -21.088   5.362  0.00  0.00    +0.130 A 
ATOM      3  C   LIG    1       24.815 -22.226   6.268  0.00  0.00    -0.003 A 
ATOM      4  C   LIG    1       23.553 -22.740   6.606  0.00  0.00    +0.007 A 
ATOM      5  C   LIG    1       22.380 -22.139   6.186  0.00  0.00    +0.001 A 
ATOM      6  C   LIG    1       22.420 -21.022   5.368  0.00  0.00    +0.007 A 
ENDROOT
BRANCH   1   8
ATOM      7  C   LIG    1       22.482 -18.173   4.299  0.00  0.00    +0.012 C 
ATOM      8  C   LIG    1       23.489 -19.301   3.888  0.00  0.00    +0.016 C 
ATOM      9  C   LIG    1       24.833 -18.615   3.610  0.00  0.00    +0.012 C 
ENDBRANCH   1   8
BRANCH   3  10
ATOM     10  C   LIG    1       26.008 -22.971   6.912  0.00  0.00    +0.016 C 
ATOM     11  C   LIG    1       25.856 -24.513   6.877  0.00  0.00    +0.012 C 
ATOM     12  C   LIG    1       26.373 -22.613   8.361  0.00  0.00    +0.012 C 
ENDBRANCH   3  10
BRANCH   2  13
ATOM     13  O   LIG    1       26.067 -20.531   4.908  0.00  0.00    -0.465 OA
BRANCH  13  14
ATOM     14  C   LIG    1       26.870 -20.029   5.981  0.00  0.00    +0.406 C 
BRANCH  14  15
ATOM     15  O   LIG    1       28.213 -19.695   5.743  0.00  0.00    -0.249 OA
BRANCH  15  16
ATOM     16  P   LIG    1       29.187 -19.990   6.933  0.00  0.00    +0.475 P 
ATOM     17  O   LIG    1       28.670 -19.528   8.278  0.00  0.00    -0.227 OA
BRANCH  16  18
ATOM     18  O   LIG    1       30.622 -19.418   6.550  0.00  0.00    -0.302 OA
ATOM     19  H   LIG    1       30.688 -19.063   5.632  0.00  0.00    +0.222 HD
ENDBRANCH  16  18
BRANCH  16  20
ATOM     20  O   LIG    1       29.433 -21.548   6.854  0.00  0.00    -0.302 OA
ATOM     21  H   LIG    1       29.810 -21.809   5.993  0.00  0.00    +0.222 HD
ENDBRANCH  16  20
ENDBRANCH  15  16
ENDBRANCH  14  15
ENDBRANCH  13  14
ENDBRANCH   2  13
TORSDOF 8
ENDMDL
MODEL 7
REMARK VINA RESULT:      -6.6      4.300      5.654
REMARK  Name = *****
REMARK                            x       y       z     vdW  Elec       q    Type
REMARK                         _______ _______ _______ _____ _____    ______ ____
ROOT
ATOM      1  C   LIG    1       24.207 -20.006   5.219  0.00  0.00    -0.003 A 
ATOM      2  C   LIG    1       25.570 -19.744   4.794  0.00  0.00    +0.130 A 
ATOM      3  C   LIG    1       26.684 -20.061   5.676  0.00  0.00    -0.003 A 
ATOM      4  C   LIG    1       26.391 -20.677   6.903  0.00  0.00    +0.007 A 
ATOM      5  C   LIG    1       25.091 -20.893   7.322  0.00  0.00    +0.001 A 
ATOM      6  C   LIG    1       24.025 -20.544   6.509  0.00  0.00    +0.007 A 
ENDROOT
BRANCH   1   8
ATOM      7  C   LIG    1       21.766 -20.832   4.624  0.00  0.00    +0.012 C 
ATOM      8  C   LIG    1       22.908 -19.783   4.396  0.00  0.00    +0.016 C 
ATOM      9  C   LIG    1       22.294 -18.400   4.650  0.00  0.00    +0.012 C 
ENDBRANCH   1   8
BRANCH   3  10
ATOM     10  C   LIG    1       28.189 -19.811   5.424  0.00  0.00    +0.016 C 
ATOM     11  C   LIG    1       29.106 -20.491   6.473  0.00  0.00    +0.012 C 
ATOM     12  C   LIG    1       28.664 -18.352   5.329  0.00  0.00    +0.012 C 
ENDBRANCH   3  10
BRANCH   2  13
ATOM     13  O   LIG    1       25.749 -19.184   3.520  0.00  0.00    -0.465 OA
BRANCH  13  14
ATOM     14  C   LIG    1       25.533 -17.770   3.515  0.00  0.00    +0.406 C 
BRANCH  14  15
ATOM     15  O   LIG    1       26.567 -16.913   3.104  0.00  0.00    -0.249 OA
BRANCH  15  16
ATOM     16  P   LIG    1       26.308 -15.391   3.368  0.00  0.00    +0.475 P 
ATOM     17  O   LIG    1       24.950 -15.096   3.967  0.00  0.00    -0.227 OA
BRANCH  16  18
ATOM     18  O   LIG    1       26.619 -14.598   2.024  0.00  0.00    -0.302 OA
ATOM     19  H   LIG    1       25.857 -14.085   1.666  0.00  0.00    +0.222 HD
ENDBRANCH  16  18
BRANCH  16  20
ATOM     20  O   LIG    1       27.513 -14.947   4.287  0.00  0.00    -0.302 OA
ATOM     21  H   LIG    1       28.224 -14.527   3.768  0.00  0.00    +0.222 HD
ENDBRANCH  16  20
ENDBRANCH  15  16
ENDBRANCH  14  15
ENDBRANCH  13  14
ENDBRANCH   2  13
TORSDOF 8
ENDMDL
MODEL 8
REMARK VINA RESULT:      -6.5      3.693      5.208
REMARK  Name = *****
REMARK                            x       y       z     vdW  Elec       q    Type
REMARK                         _______ _______ _______ _____ _____    ______ ____
ROOT
ATOM      1  C   LIG    1       24.489 -22.436   6.751  0.00  0.00    -0.003 A 
ATOM      2  C   LIG    1       25.562 -23.413   6.717  0.00  0.00    +0.130 A 
ATOM      3  C   LIG    1       25.257 -24.830   6.590  0.00  0.00    -0.003 A 
ATOM      4  C   LIG    1       23.910 -25.197   6.439  0.00  0.00    +0.007 A 
ATOM      5  C   LIG    1       22.886 -24.270   6.506  0.00  0.00    +0.001 A 
ATOM      6  C   LIG    1       23.169 -22.925   6.682  0.00  0.00    +0.007 A 
ENDROOT
BRANCH   1   8
ATOM      7  C   LIG    1       25.158 -20.185   5.533  0.00  0.00    +0.012 C 
ATOM      8  C   LIG    1       24.628 -20.890   6.829  0.00  0.00    +0.016 C 
ATOM      9  C   LIG    1       23.303 -20.208   7.193  0.00  0.00    +0.012 C 
ENDBRANCH   1   8
BRANCH   3  10
ATOM     10  C   LIG    1       26.252 -26.014   6.587  0.00  0.00    +0.016 C 
ATOM     11  C   LIG    1       26.426 -26.663   5.189  0.00  0.00    +0.012 C 
ATOM     12  C   LIG    1       25.985 -27.172   7.562  0.00  0.00    +0.012 C 
ENDBRANCH   3  10
BRANCH   2  13
ATOM     13  O   LIG    1       26.875 -22.927   6.813  0.00  0.00    -0.465 OA
BRANCH  13  14
ATOM     14  C   LIG    1       27.039 -22.020   7.907  0.00  0.00    +0.406 C 
BRANCH  14  15
ATOM     15  O   LIG    1       28.313 -21.835   8.468  0.00  0.00    -0.249 OA
BRANCH  15  16
ATOM     16  P   LIG    1       29.209 -20.778   7.738  0.00  0.00    +0.475 P 
ATOM     17  O   LIG    1       29.005 -19.360   8.226  0.00  0.00    -0.227 OA
BRANCH  16  18
ATOM     18  O   LIG    1       29.015 -20.966   6.170  0.00  0.00    -0.302 OA
ATOM     19  H   LIG    1       28.393 -20.324   5.755  0.00  0.00    +0.222 HD
ENDBRANCH  16  18
BRANCH  16  20
ATOM     20  O   LIG    1       30.681 -21.311   7.944  0.00  0.00    -0.302 OA
ATOM     21  H   LIG    1       31.343 -20.615   7.770  0.00  0.00    +0.222 HD
ENDBRANCH  16  20
ENDBRANCH  15  16
ENDBRANCH  14  15
ENDBRANCH  13  14
ENDBRANCH   2  13
TORSDOF 8
ENDMDL
MODEL 9
REMARK VINA RESULT:      -6.4      4.016      5.769
REMARK  Name = *****
REMARK                            x       y       z     vdW  Elec       q    Type
REMARK                         _______ _______ _______ _____ _____    ______ ____
ROOT
ATOM      1  C   LIG    1       27.903 -19.716   6.128  0.00  0.00    -0.003 A 
ATOM      2  C   LIG    1       27.251 -20.607   7.070  0.00  0.00    +0.130 A 
ATOM      3  C   LIG    1       25.942 -21.164   6.762  0.00  0.00    -0.003 A 
ATOM      4  C   LIG    1       25.380 -20.858   5.513  0.00  0.00    +0.007 A 
ATOM      5  C   LIG    1       25.985 -19.981   4.631  0.00  0.00    +0.001 A 
ATOM      6  C   LIG    1       27.206 -19.406   4.943  0.00  0.00    +0.007 A 
ENDROOT
BRANCH   1   8
ATOM      7  C   LIG    1       29.717 -18.069   5.131  0.00  0.00    +0.012 C 
ATOM      8  C   LIG    1       29.312 -19.073   6.264  0.00  0.00    +0.016 C 
ATOM      9  C   LIG    1       29.483 -18.331   7.595  0.00  0.00    +0.012 C 
ENDBRANCH   1   8
BRANCH   3  10
ATOM     10  C   LIG    1       25.073 -22.083   7.653  0.00  0.00    +0.016 C 
ATOM     11  C   LIG    1       25.375 -23.590   7.452  0.00  0.00    +0.012 C 
ATOM     12  C   LIG    1       23.547 -21.938   7.551  0.00  0.00    +0.012 C 
ENDBRANCH   3  10
BRANCH   2  13
ATOM     13  O   LIG    1       27.934 -20.894   8.261  0.00  0.00    -0.465 OA
BRANCH  13  14
ATOM     14  C   LIG    1       28.927 -21.909   8.085  0.00  0.00    +0.406 C 
BRANCH  14  15
ATOM     15  O   LIG    1       30.262 -21.539   7.851  0.00  0.00    -0.249 OA
BRANCH  15  16
ATOM     16  P   LIG    1       31.232 -21.765   9.060  0.00  0.00    +0.475 P 
ATOM     17  O   LIG    1       30.552 -22.314  10.295  0.00  0.00    -0.227 OA
BRANCH  16  18
ATOM     18  O   LIG    1       32.042 -20.417   9.301  0.00  0.00    -0.302 OA
ATOM     19  H   LIG    1       33.003 -20.545   9.481  0.00  0.00    +0.222 HD
ENDBRANCH  16  18
BRANCH  16  20
ATOM     20  O   LIG    1       32.354 -22.714   8.482  0.00  0.00    -0.302 OA
ATOM     21  H   LIG    1       32.782 -23.234   9.188  0.00  0.00    +0.222 HD
ENDBRANCH  16  20
ENDBRANCH  15  16
ENDBRANCH  14  15
ENDBRANCH  13  14
ENDBRANCH   2  13
TORSDOF 8
ENDMDL
