MODEL 1
REMARK VINA RESULT:      -6.7      0.000      0.000
REMARK  Name = *****
REMARK                            x       y       z     vdW  Elec       q    Type
REMARK                         _______ _______ _______ _____ _____    ______ ____
ROOT
ATOM      1  C   LIG    1       28.969 -20.504   7.321  0.00  0.00    +0.330 A 
ATOM      2  O   LIG    1       28.716 -20.001   6.051  0.00  0.00    -0.278 OA
ATOM      3  N   LIG    1       27.335 -20.007   5.806  0.00  0.00    +0.233 NA
ATOM      4  N   LIG    1       26.810 -20.468   6.918  0.00  0.00    +0.064 N 
ATOM      5  C   LIG    1       27.742 -20.831   7.860  0.00  0.00    +0.447 A 
ENDROOT
BRANCH   4   6
ATOM      6  N   LIG    1       25.382 -20.682   7.094  0.00  0.00    -0.106 N 
ATOM      7  C   LIG    1       24.639 -20.660   5.818  0.00  0.00    +0.201 C 
ATOM      8  C   LIG    1       24.823 -21.966   5.040  0.00  0.00    +0.184 C 
ATOM      9  O   LIG    1       24.403 -23.076   5.831  0.00  0.00    -0.376 OA
ATOM     10  C   LIG    1       25.144 -23.180   7.048  0.00  0.00    +0.184 C 
ATOM     11  C   LIG    1       25.025 -21.889   7.865  0.00  0.00    +0.201 C 
ENDBRANCH   4   6
BRANCH   1  13
ATOM     12  C   LIG    1       30.685 -19.810   8.648  0.00  0.00    +0.391 C 
ATOM     13  N   LIG    1       30.203 -20.691   7.842  0.00  0.00    -0.135 NA
BRANCH  12  14
ATOM     14  O   LIG    1       31.911 -20.001   9.157  0.00  0.00    -0.466 OA
ATOM     15  H   LIG    1       32.409 -20.725   8.766  0.00  0.00    +0.297 HD
ENDBRANCH  12  14
BRANCH  12  16
ATOM     16  O   LIG    1       30.023 -18.702   9.057  0.00  0.00    -0.450 OA
BRANCH  16  18
ATOM     17  C   LIG    1       30.514 -17.166  10.826  0.00  0.00    +0.048 C 
ATOM     18  C   LIG    1       30.673 -17.449   9.345  0.00  0.00    +0.230 C 
ENDBRANCH  16  18
ENDBRANCH  12  16
ENDBRANCH   1  13
TORSDOF 5
ENDMDL
MODEL 2
REMARK VINA RESULT:      -6.6      1.477      2.004
REMARK  Name = *****
REMARK                            x       y       z     vdW  Elec       q    Type
REMARK                         _______ _______ _______ _____ _____    ______ ____
ROOT
ATOM      1  C   LIG    1       29.664 -19.770   6.620  0.00  0.00    +0.330 A 
ATOM      2  O   LIG    1       28.799 -19.232   5.676  0.00  0.00    -0.278 OA
ATOM      3  N   LIG    1       27.603 -19.962   5.659  0.00  0.00    +0.233 NA
ATOM      4  N   LIG    1       27.765 -20.873   6.592  0.00  0.00    +0.064 N 
ATOM      5  C   LIG    1       29.004 -20.844   7.183  0.00  0.00    +0.447 A 
ENDROOT
BRANCH   4   6
ATOM      6  N   LIG    1       26.768 -21.889   6.892  0.00  0.00    -0.106 N 
ATOM      7  C   LIG    1       26.464 -21.986   8.333  0.00  0.00    +0.201 C 
ATOM      8  C   LIG    1       25.554 -20.841   8.791  0.00  0.00    +0.184 C 
ATOM      9  O   LIG    1       24.344 -20.839   8.035  0.00  0.00    -0.376 OA
ATOM     10  C   LIG    1       24.585 -20.679   6.635  0.00  0.00    +0.184 C 
ATOM     11  C   LIG    1       25.516 -21.779   6.117  0.00  0.00    +0.201 C 
ENDBRANCH   4   6
BRANCH   1  13
ATOM     12  C   LIG    1       31.150 -18.530   7.821  0.00  0.00    +0.391 C 
ATOM     13  N   LIG    1       30.926 -19.338   6.843  0.00  0.00    -0.135 NA
BRANCH  12  14
ATOM     14  O   LIG    1       32.403 -18.102   8.032  0.00  0.00    -0.466 OA
ATOM     15  H   LIG    1       32.489 -17.163   8.224  0.00  0.00    +0.297 HD
ENDBRANCH  12  14
BRANCH  12  16
ATOM     16  O   LIG    1       30.206 -18.099   8.690  0.00  0.00    -0.450 OA
BRANCH  16  18
ATOM     17  C   LIG    1       30.456 -17.544  11.005  0.00  0.00    +0.048 C 
ATOM     18  C   LIG    1       30.403 -16.994   9.593  0.00  0.00    +0.230 C 
ENDBRANCH  16  18
ENDBRANCH  12  16
ENDBRANCH   1  13
TORSDOF 5
ENDMDL
MODEL 3
REMARK VINA RESULT:      -6.6      1.465      1.850
REMARK  Name = *****
REMARK                            x       y       z     vdW  Elec       q    Type
REMARK                         _______ _______ _______ _____ _____    ______ ____
ROOT
ATOM      1  C   LIG    1       28.011 -21.254   7.966  0.00  0.00    +0.330 A 
ATOM      2  O   LIG    1       27.181 -20.467   8.756  0.00  0.00    -0.278 OA
ATOM      3  N   LIG    1       25.924 -20.346   8.148  0.00  0.00    +0.233 NA
ATOM      4  N   LIG    1       26.020 -21.072   7.057  0.00  0.00    +0.064 N 
ATOM      5  C   LIG    1       27.268 -21.613   6.861  0.00  0.00    +0.447 A 
ENDROOT
BRANCH   4   6
ATOM      6  N   LIG    1       24.942 -21.197   6.089  0.00  0.00    -0.106 N 
ATOM      7  C   LIG    1       24.912 -22.519   5.431  0.00  0.00    +0.201 C 
ATOM      8  C   LIG    1       24.320 -23.589   6.353  0.00  0.00    +0.184 C 
ATOM      9  O   LIG    1       23.004 -23.217   6.761  0.00  0.00    -0.376 OA
ATOM     10  C   LIG    1       22.991 -21.973   7.464  0.00  0.00    +0.184 C 
ATOM     11  C   LIG    1       23.601 -20.860   6.605  0.00  0.00    +0.201 C 
ENDBRANCH   4   6
BRANCH   1  13
ATOM     12  C   LIG    1       30.195 -20.608   8.006  0.00  0.00    +0.391 C 
ATOM     13  N   LIG    1       29.311 -21.515   8.237  0.00  0.00    -0.135 NA
BRANCH  12  14
ATOM     14  O   LIG    1       31.481 -20.877   8.272  0.00  0.00    -0.466 OA
ATOM     15  H   LIG    1       31.719 -21.809   8.249  0.00  0.00    +0.297 HD
ENDBRANCH  12  14
BRANCH  12  16
ATOM     16  O   LIG    1       29.917 -19.368   7.538  0.00  0.00    -0.450 OA
BRANCH  16  18
ATOM     17  C   LIG    1       30.075 -17.888   9.413  0.00  0.00    +0.048 C 
ATOM     18  C   LIG    1       30.573 -18.175   8.010  0.00  0.00    +0.230 C 
ENDBRANCH  16  18
ENDBRANCH  12  16
ENDBRANCH   1  13
TORSDOF 5
ENDMDL
MODEL 4
REMARK VINA RESULT:      -6.5      1.891      6.526
REMARK  Name = *****
REMARK                            x       y       z     vdW  Elec       q    Type
REMARK                         _______ _______ _______ _____ _____    ______ ____
ROOT
ATOM      1  C   LIG    1       25.402 -20.696   7.130  0.00  0.00    +0.330 A 
ATOM      2  O   LIG    1       25.646 -20.546   8.490  0.00  0.00    -0.278 OA
ATOM      3  N   LIG    1       27.028 -20.540   8.726  0.00  0.00    +0.233 NA
ATOM      4  N   LIG    1       27.562 -20.648   7.530  0.00  0.00    +0.064 N 
ATOM      5  C   LIG    1       26.638 -20.792   6.524  0.00  0.00    +0.447 A 
ENDROOT
BRANCH   4   6
ATOM      6  N   LIG    1       28.997 -20.724   7.305  0.00  0.00    -0.106 N 
ATOM      7  C   LIG    1       29.404 -20.152   6.006  0.00  0.00    +0.201 C 
ATOM      8  C   LIG    1       29.408 -18.621   6.045  0.00  0.00    +0.184 C 
ATOM      9  O   LIG    1       30.276 -18.155   7.077  0.00  0.00    -0.376 OA
ATOM     10  C   LIG    1       29.880 -18.628   8.367  0.00  0.00    +0.184 C 
ATOM     11  C   LIG    1       29.826 -20.159   8.388  0.00  0.00    +0.201 C 
ENDBRANCH   4   6
BRANCH   1  13
ATOM     12  C   LIG    1       23.651 -21.971   6.427  0.00  0.00    +0.391 C 
ATOM     13  N   LIG    1       24.174 -20.803   6.575  0.00  0.00    -0.135 NA
BRANCH  12  14
ATOM     14  O   LIG    1       22.435 -22.069   5.872  0.00  0.00    -0.466 OA
ATOM     15  H   LIG    1       21.798 -21.407   6.159  0.00  0.00    +0.297 HD
ENDBRANCH  12  14
BRANCH  12  16
ATOM     16  O   LIG    1       24.231 -23.127   6.828  0.00  0.00    -0.450 OA
BRANCH  16  18
ATOM     17  C   LIG    1       24.078 -25.415   6.144  0.00  0.00    +0.048 C 
ATOM     18  C   LIG    1       24.788 -24.095   5.918  0.00  0.00    +0.230 C 
ENDBRANCH  16  18
ENDBRANCH  12  16
ENDBRANCH   1  13
TORSDOF 5
ENDMDL
MODEL 5
REMARK VINA RESULT:      -6.4      2.124      2.835
REMARK  Name = *****
REMARK                            x       y       z     vdW  Elec       q    Type
REMARK                         _______ _______ _______ _____ _____    ______ ____
ROOT
ATOM      1  C   LIG    1       27.778 -21.406   8.139  0.00  0.00    +0.330 A 
ATOM      2  O   LIG    1       26.972 -20.461   8.762  0.00  0.00    -0.278 OA
ATOM      3  N   LIG    1       25.627 -20.712   8.459  0.00  0.00    +0.233 NA
ATOM      4  N   LIG    1       25.658 -21.792   7.712  0.00  0.00    +0.064 N 
ATOM      5  C   LIG    1       26.929 -22.239   7.440  0.00  0.00    +0.447 A 
ENDROOT
BRANCH   4   6
ATOM      6  N   LIG    1       24.467 -22.391   7.130  0.00  0.00    -0.106 N 
ATOM      7  C   LIG    1       23.275 -21.530   7.254  0.00  0.00    +0.201 C 
ATOM      8  C   LIG    1       23.300 -20.389   6.232  0.00  0.00    +0.184 C 
ATOM      9  O   LIG    1       23.389 -20.913   4.908  0.00  0.00    -0.376 OA
ATOM     10  C   LIG    1       24.567 -21.700   4.720  0.00  0.00    +0.184 C 
ATOM     11  C   LIG    1       24.619 -22.847   5.735  0.00  0.00    +0.201 C 
ENDBRANCH   4   6
BRANCH   1  13
ATOM     12  C   LIG    1       29.775 -20.395   7.717  0.00  0.00    +0.391 C 
ATOM     13  N   LIG    1       29.130 -21.410   8.177  0.00  0.00    -0.135 NA
BRANCH  12  14
ATOM     14  O   LIG    1       31.115 -20.410   7.754  0.00  0.00    -0.466 OA
ATOM     15  H   LIG    1       31.543 -19.604   7.447  0.00  0.00    +0.297 HD
ENDBRANCH  12  14
BRANCH  12  16
ATOM     16  O   LIG    1       29.193 -19.278   7.220  0.00  0.00    -0.450 OA
BRANCH  16  18
ATOM     17  C   LIG    1       27.888 -19.437   5.220  0.00  0.00    +0.048 C 
ATOM     18  C   LIG    1       29.188 -18.939   5.820  0.00  0.00    +0.230 C 
ENDBRANCH  16  18
ENDBRANCH  12  16
ENDBRANCH   1  13
TORSDOF 5
ENDMDL
MODEL 6
REMARK VINA RESULT:      -6.3      1.774      6.341
REMARK  Name = *****
REMARK                            x       y       z     vdW  Elec       q    Type
REMARK                         _______ _______ _______ _____ _____    ______ ____
ROOT
ATOM      1  C   LIG    1       26.550 -20.771   8.217  0.00  0.00    +0.330 A 
ATOM      2  O   LIG    1       27.310 -21.751   8.842  0.00  0.00    -0.278 OA
ATOM      3  N   LIG    1       28.663 -21.579   8.518  0.00  0.00    +0.233 NA
ATOM      4  N   LIG    1       28.681 -20.509   7.757  0.00  0.00    +0.064 N 
ATOM      5  C   LIG    1       27.434 -19.995   7.496  0.00  0.00    +0.447 A 
ENDROOT
BRANCH   4   6
ATOM      6  N   LIG    1       29.896 -19.985   7.152  0.00  0.00    -0.106 N 
ATOM      7  C   LIG    1       29.860 -18.520   6.971  0.00  0.00    +0.201 C 
ATOM      8  C   LIG    1       30.103 -17.787   8.293  0.00  0.00    +0.184 C 
ATOM      9  O   LIG    1       31.356 -18.179   8.853  0.00  0.00    -0.376 OA
ATOM     10  C   LIG    1       31.413 -19.584   9.111  0.00  0.00    +0.184 C 
ATOM     11  C   LIG    1       31.147 -20.380   7.829  0.00  0.00    +0.201 C 
ENDBRANCH   4   6
BRANCH   1  13
ATOM     12  C   LIG    1       24.501 -21.218   7.330  0.00  0.00    +0.391 C 
ATOM     13  N   LIG    1       25.200 -20.690   8.272  0.00  0.00    -0.135 NA
BRANCH  12  14
ATOM     14  O   LIG    1       23.164 -21.130   7.390  0.00  0.00    -0.466 OA
ATOM     15  H   LIG    1       22.745 -21.686   8.054  0.00  0.00    +0.297 HD
ENDBRANCH  12  14
BRANCH  12  16
ATOM     16  O   LIG    1       25.018 -21.900   6.280  0.00  0.00    -0.450 OA
BRANCH  16  18
ATOM     17  C   LIG    1       25.587 -24.133   6.925  0.00  0.00    +0.048 C 
ATOM     18  C   LIG    1       24.726 -23.285   6.010  0.00  0.00    +0.230 C 
ENDBRANCH  16  18
ENDBRANCH  12  16
ENDBRANCH   1  13
TORSDOF 5
ENDMDL
MODEL 7
REMARK VINA RESULT:      -6.3      4.878      7.220
REMARK  Name = *****
REMARK                            x       y       z     vdW  Elec       q    Type
REMARK                         _______ _______ _______ _____ _____    ______ ____
ROOT
ATOM      1  C   LIG    1       24.714 -25.432   5.674  0.00  0.00    +0.330 A 
ATOM      2  O   LIG    1       23.426 -25.389   6.195  0.00  0.00    -0.278 OA
ATOM      3  N   LIG    1       23.190 -24.133   6.771  0.00  0.00    +0.233 NA
ATOM      4  N   LIG    1       24.299 -23.463   6.555  0.00  0.00    +0.064 N 
ATOM      5  C   LIG    1       25.279 -24.201   5.937  0.00  0.00    +0.447 A 
ENDROOT
BRANCH   4   6
ATOM      6  N   LIG    1       24.511 -22.104   7.029  0.00  0.00    -0.106 N 
ATOM      7  C   LIG    1       25.553 -21.388   6.267  0.00  0.00    +0.201 C 
ATOM      8  C   LIG    1       25.031 -20.920   4.906  0.00  0.00    +0.184 C 
ATOM      9  O   LIG    1       23.888 -20.082   5.077  0.00  0.00    -0.376 OA
ATOM     10  C   LIG    1       22.823 -20.756   5.750  0.00  0.00    +0.184 C 
ATOM     11  C   LIG    1       23.290 -21.278   7.113  0.00  0.00    +0.201 C 
ENDBRANCH   4   6
BRANCH   1  13
ATOM     12  C   LIG    1       25.704 -27.474   5.859  0.00  0.00    +0.391 C 
ATOM     13  N   LIG    1       25.278 -26.521   5.105  0.00  0.00    -0.135 NA
BRANCH  12  14
ATOM     14  O   LIG    1       26.267 -28.549   5.286  0.00  0.00    -0.466 OA
ATOM     15  H   LIG    1       26.127 -29.380   5.750  0.00  0.00    +0.297 HD
ENDBRANCH  12  14
BRANCH  12  16
ATOM     16  O   LIG    1       25.593 -27.493   7.208  0.00  0.00    -0.450 OA
BRANCH  16  18
ATOM     17  C   LIG    1       26.484 -28.533   9.171  0.00  0.00    +0.048 C 
ATOM     18  C   LIG    1       25.554 -28.705   7.986  0.00  0.00    +0.230 C 
ENDBRANCH  16  18
ENDBRANCH  12  16
ENDBRANCH   1  13
TORSDOF 5
ENDMDL
MODEL 8
REMARK VINA RESULT:      -6.1      1.928      6.262
REMARK  Name = *****
REMARK                            x       y       z     vdW  Elec       q    Type
REMARK                         _______ _______ _______ _____ _____    ______ ____
ROOT
ATOM      1  C   LIG    1       26.077 -21.563   7.998  0.00  0.00    +0.330 A 
ATOM      2  O   LIG    1       26.377 -20.546   8.896  0.00  0.00    -0.278 OA
ATOM      3  N   LIG    1       27.704 -20.131   8.715  0.00  0.00    +0.233 NA
ATOM      4  N   LIG    1       28.141 -20.866   7.718  0.00  0.00    +0.064 N 
ATOM      5  C   LIG    1       27.226 -21.785   7.265  0.00  0.00    +0.447 A 
ENDROOT
BRANCH   4   6
ATOM      6  N   LIG    1       29.505 -20.793   7.216  0.00  0.00    -0.106 N 
ATOM      7  C   LIG    1       29.637 -19.910   6.040  0.00  0.00    +0.201 C 
ATOM      8  C   LIG    1       29.619 -18.433   6.446  0.00  0.00    +0.184 C 
ATOM      9  O   LIG    1       30.665 -18.165   7.378  0.00  0.00    -0.376 OA
ATOM     10  C   LIG    1       30.541 -18.949   8.566  0.00  0.00    +0.184 C 
ATOM     11  C   LIG    1       30.521 -20.443   8.227  0.00  0.00    +0.201 C 
ENDBRANCH   4   6
BRANCH   1  13
ATOM     12  C   LIG    1       23.940 -21.754   7.235  0.00  0.00    +0.391 C 
ATOM     13  N   LIG    1       24.900 -22.227   7.951  0.00  0.00    -0.135 NA
BRANCH  12  14
ATOM     14  O   LIG    1       22.774 -22.416   7.199  0.00  0.00    -0.466 OA
ATOM     15  H   LIG    1       22.732 -23.204   7.750  0.00  0.00    +0.297 HD
ENDBRANCH  12  14
BRANCH  12  16
ATOM     16  O   LIG    1       24.029 -20.638   6.474  0.00  0.00    -0.450 OA
BRANCH  16  18
ATOM     17  C   LIG    1       22.492 -19.464   5.064  0.00  0.00    +0.048 C 
ATOM     18  C   LIG    1       23.540 -20.558   5.121  0.00  0.00    +0.230 C 
ENDBRANCH  16  18
ENDBRANCH  12  16
ENDBRANCH   1  13
TORSDOF 5
ENDMDL
MODEL 9
REMARK VINA RESULT:      -6.1      1.695      6.367
REMARK  Name = *****
REMARK                            x       y       z     vdW  Elec       q    Type
REMARK                         _______ _______ _______ _____ _____    ______ ____
ROOT
ATOM      1  C   LIG    1       27.029 -21.152   7.131  0.00  0.00    +0.330 A 
ATOM      2  O   LIG    1       26.894 -20.615   8.406  0.00  0.00    -0.278 OA
ATOM      3  N   LIG    1       27.942 -19.718   8.655  0.00  0.00    +0.233 NA
ATOM      4  N   LIG    1       28.639 -19.714   7.541  0.00  0.00    +0.064 N 
ATOM      5  C   LIG    1       28.170 -20.592   6.594  0.00  0.00    +0.447 A 
ENDROOT
BRANCH   4   6
ATOM      6  N   LIG    1       29.858 -18.940   7.370  0.00  0.00    -0.106 N 
ATOM      7  C   LIG    1       30.039 -17.916   8.417  0.00  0.00    +0.201 C 
ATOM      8  C   LIG    1       30.521 -18.538   9.731  0.00  0.00    +0.184 C 
ATOM      9  O   LIG    1       31.742 -19.246   9.524  0.00  0.00    -0.376 OA
ATOM     10  C   LIG    1       31.599 -20.296   8.565  0.00  0.00    +0.184 C 
ATOM     11  C   LIG    1       31.089 -19.743   7.231  0.00  0.00    +0.201 C 
ENDBRANCH   4   6
BRANCH   1  13
ATOM     12  C   LIG    1       25.246 -21.736   5.841  0.00  0.00    +0.391 C 
ATOM     13  N   LIG    1       26.218 -22.097   6.604  0.00  0.00    -0.135 NA
BRANCH  12  14
ATOM     14  O   LIG    1       24.444 -22.679   5.326  0.00  0.00    -0.466 OA
ATOM     15  H   LIG    1       24.608 -23.573   5.640  0.00  0.00    +0.297 HD
ENDBRANCH  12  14
BRANCH  12  16
ATOM     16  O   LIG    1       24.988 -20.456   5.481  0.00  0.00    -0.450 OA
BRANCH  16  18
ATOM     17  C   LIG    1       22.693 -19.780   5.396  0.00  0.00    +0.048 C 
ATOM     18  C   LIG    1       23.932 -20.083   4.575  0.00  0.00    +0.230 C 
ENDBRANCH  16  18
ENDBRANCH  12  16
ENDBRANCH   1  13
TORSDOF 5
ENDMDL
