MODEL 1
REMARK VINA RESULT:      20.3      0.000      0.000
REMARK  Name = *****
REMARK                            x       y       z     vdW  Elec       q    Type
REMARK                         _______ _______ _______ _____ _____    ______ ____
ROOT
ATOM      1  C   LIG    1       29.121 -18.142   5.759  0.00  0.00    -0.000 C 
ENDROOT
BRANCH   1   2
ATOM      2  C   LIG    1       28.738 -17.135   6.976  0.00  0.00    -0.000 C 
BRANCH   2   3
ATOM      3  C   LIG    1       28.553 -15.402   6.811  0.00  0.00    +0.000 C 
BRANCH   3   4
ATOM      4  C   LIG    1       27.123 -14.411   6.578  0.00  0.00    +0.002 C 
BRANCH   4   5
ATOM      5  C   LIG    1       27.171 -12.752   5.981  0.00  0.00    +0.019 C 
BRANCH   5   6
ATOM      6  C   LIG    1       26.007 -11.697   5.264  0.00  0.00    +0.111 C 
BRANCH   6   7
ATOM      7  N   LIG    1       24.659 -12.119   4.709  0.00  0.00    -0.270 N 
ATOM      8  C   LIG    1       24.318 -12.345   3.323  0.00  0.00    +0.408 C 
ATOM      9  O   LIG    1       23.182 -12.513   2.822  0.00  0.00    -0.226 OA
ATOM     10  C   LIG    1       23.491 -12.115   5.582  0.00  0.00    +0.135 C 
BRANCH   8  11
ATOM     11  O   LIG    1       25.443 -12.620   2.495  0.00  0.00    -0.411 OA
BRANCH  11  12
ATOM     12  C   LIG    1       26.307 -13.660   2.960  0.00  0.00    +0.139 A 
ATOM     13  C   LIG    1       25.800 -14.966   3.127  0.00  0.00    +0.118 A 
ATOM     14  C   LIG    1       26.672 -16.068   3.392  0.00  0.00    +0.149 A 
ATOM     15  C   LIG    1       28.033 -15.807   3.542  0.00  0.00    +0.072 A 
ATOM     16  C   LIG    1       28.527 -14.514   3.375  0.00  0.00    +0.010 A 
ATOM     17  C   LIG    1       27.679 -13.455   3.054  0.00  0.00    +0.047 A 
BRANCH  14  18
ATOM     18  N   LIG    1       26.189 -17.543   3.363  0.00  0.00    -0.383 NA
ATOM     19  C   LIG    1       27.314 -18.432   3.873  0.00  0.00    +0.361 C 
ATOM     20  C   LIG    1       25.959 -17.969   1.957  0.00  0.00    +0.361 C 
ATOM     21  C   LIG    1       24.743 -17.752   3.985  0.00  0.00    +0.361 C 
ENDBRANCH  14  18
ENDBRANCH  11  12
ENDBRANCH   8  11
ENDBRANCH   6   7
ENDBRANCH   5   6
ENDBRANCH   4   5
ENDBRANCH   3   4
ENDBRANCH   2   3
ENDBRANCH   1   2
BRANCH   1  22
ATOM     22  C   LIG    1       28.487 -19.617   5.619  0.00  0.00    +0.000 C 
BRANCH  22  23
ATOM     23  C   LIG    1       27.938 -20.330   6.929  0.00  0.00    +0.002 C 
BRANCH  23  24
ATOM     24  C   LIG    1       26.407 -20.444   7.062  0.00  0.00    +0.019 C 
BRANCH  24  25
ATOM     25  C   LIG    1       25.321 -20.289   5.949  0.00  0.00    +0.111 C 
BRANCH  25  27
ATOM     26  C   LIG    1       24.820 -21.520   3.619  0.00  0.00    +0.135 C 
ATOM     27  N   LIG    1       24.514 -21.124   5.014  0.00  0.00    -0.270 N 
ATOM     28  C   LIG    1       23.157 -21.070   5.290  0.00  0.00    +0.408 C 
ATOM     29  O   LIG    1       22.658 -21.061   6.510  0.00  0.00    -0.226 OA
BRANCH  28  30
ATOM     30  O   LIG    1       22.360 -20.853   4.193  0.00  0.00    -0.411 OA
BRANCH  30  31
ATOM     31  C   LIG    1       21.683 -19.665   3.958  0.00  0.00    +0.139 A 
ATOM     32  C   LIG    1       22.229 -18.489   4.409  0.00  0.00    +0.118 A 
ATOM     33  C   LIG    1       21.444 -17.380   4.511  0.00  0.00    +0.149 A 
ATOM     34  C   LIG    1       20.187 -17.391   3.895  0.00  0.00    +0.072 A 
ATOM     35  C   LIG    1       19.715 -18.531   3.281  0.00  0.00    +0.010 A 
ATOM     36  C   LIG    1       20.412 -19.707   3.411  0.00  0.00    +0.047 A 
BRANCH  33  37
ATOM     37  N   LIG    1       21.972 -16.230   5.291  0.00  0.00    -0.383 NA
ATOM     38  C   LIG    1       22.828 -15.495   4.388  0.00  0.00    +0.361 C 
ATOM     39  C   LIG    1       20.806 -15.558   6.027  0.00  0.00    +0.361 C 
ATOM     40  C   LIG    1       23.032 -16.561   6.338  0.00  0.00    +0.361 C 
ENDBRANCH  33  37
ENDBRANCH  30  31
ENDBRANCH  28  30
ENDBRANCH  25  27
ENDBRANCH  24  25
ENDBRANCH  23  24
ENDBRANCH  22  23
ENDBRANCH   1  22
TORSDOF 17
ENDMDL
MODEL 2
REMARK VINA RESULT:      22.0      1.804      7.067
REMARK  Name = *****
REMARK                            x       y       z     vdW  Elec       q    Type
REMARK                         _______ _______ _______ _____ _____    ______ ____
ROOT
ATOM      1  C   LIG    1       26.538 -17.517   4.170  0.00  0.00    -0.000 C 
ENDROOT
BRANCH   1   2
ATOM      2  C   LIG    1       26.177 -16.207   3.277  0.00  0.00    -0.000 C 
BRANCH   2   3
ATOM      3  C   LIG    1       24.550 -15.668   2.919  0.00  0.00    +0.000 C 
BRANCH   3   4
ATOM      4  C   LIG    1       23.091 -15.678   3.893  0.00  0.00    +0.002 C 
BRANCH   4   5
ATOM      5  C   LIG    1       22.720 -16.926   5.084  0.00  0.00    +0.019 C 
BRANCH   5   6
ATOM      6  C   LIG    1       21.583 -18.224   5.153  0.00  0.00    +0.111 C 
BRANCH   6   7
ATOM      7  N   LIG    1       20.651 -18.640   4.030  0.00  0.00    -0.270 N 
ATOM      8  C   LIG    1       20.264 -19.986   3.670  0.00  0.00    +0.408 C 
ATOM      9  O   LIG    1       19.650 -20.368   2.647  0.00  0.00    -0.226 OA
ATOM     10  C   LIG    1       20.230 -17.651   3.044  0.00  0.00    +0.135 C 
BRANCH   8  11
ATOM     11  O   LIG    1       20.420 -20.927   4.727  0.00  0.00    -0.411 OA
BRANCH  11  12
ATOM     12  C   LIG    1       21.768 -21.165   5.141  0.00  0.00    +0.139 A 
ATOM     13  C   LIG    1       22.830 -20.881   4.257  0.00  0.00    +0.118 A 
ATOM     14  C   LIG    1       24.189 -20.912   4.702  0.00  0.00    +0.149 A 
ATOM     15  C   LIG    1       24.440 -21.292   6.020  0.00  0.00    +0.072 A 
ATOM     16  C   LIG    1       23.385 -21.571   6.887  0.00  0.00    +0.010 A 
ATOM     17  C   LIG    1       22.060 -21.477   6.464  0.00  0.00    +0.047 A 
BRANCH  14  18
ATOM     18  N   LIG    1       25.366 -20.395   3.833  0.00  0.00    -0.383 NA
ATOM     19  C   LIG    1       26.660 -20.567   4.616  0.00  0.00    +0.361 C 
ATOM     20  C   LIG    1       25.229 -18.930   3.621  0.00  0.00    +0.361 C 
ATOM     21  C   LIG    1       25.333 -20.923   2.335  0.00  0.00    +0.361 C 
ENDBRANCH  14  18
ENDBRANCH  11  12
ENDBRANCH   8  11
ENDBRANCH   6   7
ENDBRANCH   5   6
ENDBRANCH   4   5
ENDBRANCH   3   4
ENDBRANCH   2   3
ENDBRANCH   1   2
BRANCH   1  22
ATOM     22  C   LIG    1       28.046 -17.879   4.609  0.00  0.00    +0.000 C 
BRANCH  22  23
ATOM     23  C   LIG    1       28.717 -17.030   5.774  0.00  0.00    +0.002 C 
BRANCH  23  24
ATOM     24  C   LIG    1       29.233 -15.628   5.393  0.00  0.00    +0.019 C 
BRANCH  24  25
ATOM     25  C   LIG    1       28.450 -14.452   4.725  0.00  0.00    +0.111 C 
BRANCH  25  27
ATOM     26  C   LIG    1       29.258 -11.991   4.028  0.00  0.00    +0.135 C 
ATOM     27  N   LIG    1       28.670 -13.328   3.771  0.00  0.00    -0.270 N 
ATOM     28  C   LIG    1       27.776 -13.346   2.713  0.00  0.00    +0.408 C 
ATOM     29  O   LIG    1       27.384 -14.448   2.104  0.00  0.00    -0.226 OA
BRANCH  28  30
ATOM     30  O   LIG    1       27.186 -12.135   2.444  0.00  0.00    -0.411 OA
BRANCH  30  31
ATOM     31  C   LIG    1       25.885 -11.818   2.806  0.00  0.00    +0.139 A 
ATOM     32  C   LIG    1       25.548 -11.816   4.137  0.00  0.00    +0.118 A 
ATOM     33  C   LIG    1       24.234 -11.861   4.497  0.00  0.00    +0.149 A 
ATOM     34  C   LIG    1       23.264 -11.625   3.517  0.00  0.00    +0.072 A 
ATOM     35  C   LIG    1       23.624 -11.447   2.199  0.00  0.00    +0.010 A 
ATOM     36  C   LIG    1       24.927 -11.658   1.819  0.00  0.00    +0.047 A 
BRANCH  33  37
ATOM     37  N   LIG    1       23.918 -12.177   5.915  0.00  0.00    -0.383 NA
ATOM     38  C   LIG    1       23.507 -13.562   5.932  0.00  0.00    +0.361 C 
ATOM     39  C   LIG    1       25.058 -11.660   6.801  0.00  0.00    +0.361 C 
ATOM     40  C   LIG    1       22.622 -11.583   6.461  0.00  0.00    +0.361 C 
ENDBRANCH  33  37
ENDBRANCH  30  31
ENDBRANCH  28  30
ENDBRANCH  25  27
ENDBRANCH  24  25
ENDBRANCH  23  24
ENDBRANCH  22  23
ENDBRANCH   1  22
TORSDOF 17
ENDMDL
