MODEL 1
REMARK VINA RESULT:      -7.3      0.000      0.000
REMARK  Name = *****
REMARK                            x       y       z     vdW  Elec       q    Type
REMARK                         _______ _______ _______ _____ _____    ______ ____
ROOT
ATOM      1  C   LIG    1       28.923 -20.705   6.843  0.00  0.00    +0.173 A 
ATOM      2  C   LIG    1       27.739 -21.411   6.904  0.00  0.00    +0.167 A 
ATOM      3  O   LIG    1       27.578 -22.695   7.346  0.00  0.00    -0.480 OA
ATOM      4  C   LIG    1       26.157 -23.006   7.185  0.00  0.00    +0.229 C 
ATOM      5  C   LIG    1       25.467 -21.837   6.447  0.00  0.00    +0.049 C 
ATOM      6  C   LIG    1       25.082 -22.074   4.982  0.00  0.00    +0.043 C 
ATOM      7  C   LIG    1       24.390 -20.760   4.506  0.00  0.00    +0.069 C 
ATOM      8  N   LIG    1       23.134 -20.446   5.223  0.00  0.00    -0.301 NA
ATOM      9  C   LIG    1       21.947 -20.751   4.424  0.00  0.00    +0.105 C 
ATOM     10  C   LIG    1       23.019 -21.070   6.545  0.00  0.00    +0.085 C 
ATOM     11  C   LIG    1       25.382 -19.517   4.659  0.00  0.00    +0.055 C 
ATOM     12  C   LIG    1       26.606 -19.770   5.519  0.00  0.00    -0.038 A 
ATOM     13  C   LIG    1       27.789 -19.031   5.466  0.00  0.00    +0.008 A 
ATOM     14  C   LIG    1       24.393 -23.400   4.824  0.00  0.00    -0.021 C 
ATOM     15  C   LIG    1       24.845 -24.462   5.512  0.00  0.00    +0.017 C 
ATOM     16  C   LIG    1       24.345 -21.179   7.294  0.00  0.00    +0.031 C 
ATOM     17  C   LIG    1       25.994 -24.386   6.495  0.00  0.00    +0.240 C 
ATOM     18  C   LIG    1       26.607 -20.897   6.328  0.00  0.00    +0.012 A 
ATOM     19  C   LIG    1       28.944 -19.494   6.138  0.00  0.00    +0.050 A 
ENDROOT
BRANCH   1  20
ATOM     20  O   LIG    1       30.137 -21.254   7.263  0.00  0.00    -0.422 OA
BRANCH  20  22
ATOM     21  C   LIG    1       31.217 -22.078   9.180  0.00  0.00    +0.136 C 
ATOM     22  C   LIG    1       30.543 -20.897   8.546  0.00  0.00    +0.309 C 
ATOM     23  O   LIG    1       30.433 -19.789   9.057  0.00  0.00    -0.251 OA
ENDBRANCH  20  22
ENDBRANCH   1  20
BRANCH  17  24
ATOM     24  O   LIG    1       25.714 -25.385   7.503  0.00  0.00    -0.454 OA
BRANCH  24  25
ATOM     25  C   LIG    1       26.105 -26.656   7.209  0.00  0.00    +0.305 C 
ATOM     26  O   LIG    1       26.011 -27.623   7.943  0.00  0.00    -0.251 OA
ATOM     27  C   LIG    1       26.742 -26.689   5.851  0.00  0.00    +0.136 C 
ENDBRANCH  24  25
ENDBRANCH  17  24
TORSDOF 4
ENDMDL
MODEL 2
REMARK VINA RESULT:      -7.3      4.854      8.785
REMARK  Name = *****
REMARK                            x       y       z     vdW  Elec       q    Type
REMARK                         _______ _______ _______ _____ _____    ______ ____
ROOT
ATOM      1  C   LIG    1       25.598 -27.182   6.212  0.00  0.00    +0.173 A 
ATOM      2  C   LIG    1       25.548 -27.977   7.338  0.00  0.00    +0.167 A 
ATOM      3  O   LIG    1       26.233 -27.781   8.505  0.00  0.00    -0.480 OA
ATOM      4  C   LIG    1       25.878 -28.900   9.379  0.00  0.00    +0.229 C 
ATOM      5  C   LIG    1       25.019 -29.907   8.583  0.00  0.00    +0.049 C 
ATOM      6  C   LIG    1       25.699 -31.216   8.162  0.00  0.00    +0.043 C 
ATOM      7  C   LIG    1       24.609 -32.040   7.411  0.00  0.00    +0.069 C 
ATOM      8  N   LIG    1       23.453 -32.420   8.253  0.00  0.00    -0.301 NA
ATOM      9  C   LIG    1       23.499 -33.825   8.659  0.00  0.00    +0.105 C 
ATOM     10  C   LIG    1       23.254 -31.567   9.429  0.00  0.00    +0.085 C 
ATOM     11  C   LIG    1       24.066 -31.228   6.146  0.00  0.00    +0.055 C 
ATOM     12  C   LIG    1       24.428 -29.755   6.121  0.00  0.00    -0.038 A 
ATOM     13  C   LIG    1       24.450 -28.954   4.977  0.00  0.00    +0.008 A 
ATOM     14  C   LIG    1       26.448 -31.818   9.318  0.00  0.00    -0.021 C 
ATOM     15  C   LIG    1       27.138 -31.014  10.144  0.00  0.00    +0.017 C 
ATOM     16  C   LIG    1       23.607 -30.100   9.196  0.00  0.00    +0.031 C 
ATOM     17  C   LIG    1       27.161 -29.506  10.007  0.00  0.00    +0.240 C 
ATOM     18  C   LIG    1       24.900 -29.183   7.294  0.00  0.00    +0.012 A 
ATOM     19  C   LIG    1       25.024 -27.663   5.026  0.00  0.00    +0.050 A 
ENDROOT
BRANCH   1  20
ATOM     20  O   LIG    1       26.383 -26.027   6.152  0.00  0.00    -0.422 OA
BRANCH  20  22
ATOM     21  C   LIG    1       25.797 -24.020   7.222  0.00  0.00    +0.136 C 
ATOM     22  C   LIG    1       25.683 -24.838   5.969  0.00  0.00    +0.309 C 
ATOM     23  O   LIG    1       25.121 -24.480   4.941  0.00  0.00    -0.251 OA
ENDBRANCH  20  22
ENDBRANCH   1  20
BRANCH  17  24
ATOM     24  O   LIG    1       27.313 -28.992  11.351  0.00  0.00    -0.454 OA
BRANCH  24  25
ATOM     25  C   LIG    1       28.456 -29.347  12.000  0.00  0.00    +0.305 C 
ATOM     26  O   LIG    1       29.561 -29.452  11.499  0.00  0.00    -0.251 OA
ATOM     27  C   LIG    1       28.149 -29.662  13.435  0.00  0.00    +0.136 C 
ENDBRANCH  24  25
ENDBRANCH  17  24
TORSDOF 4
ENDMDL
MODEL 3
REMARK VINA RESULT:      -7.2      5.371     10.390
REMARK  Name = *****
REMARK                            x       y       z     vdW  Elec       q    Type
REMARK                         _______ _______ _______ _____ _____    ______ ____
ROOT
ATOM      1  C   LIG    1       26.206 -32.286   5.048  0.00  0.00    +0.173 A 
ATOM      2  C   LIG    1       25.703 -31.285   5.853  0.00  0.00    +0.167 A 
ATOM      3  O   LIG    1       25.213 -30.077   5.441  0.00  0.00    -0.480 OA
ATOM      4  C   LIG    1       24.834 -29.354   6.655  0.00  0.00    +0.229 C 
ATOM      5  C   LIG    1       25.283 -30.171   7.887  0.00  0.00    +0.049 C 
ATOM      6  C   LIG    1       26.499 -29.648   8.660  0.00  0.00    +0.043 C 
ATOM      7  C   LIG    1       26.706 -30.636   9.848  0.00  0.00    +0.069 C 
ATOM      8  N   LIG    1       25.582 -30.667  10.810  0.00  0.00    -0.301 NA
ATOM      9  C   LIG    1       25.882 -29.936  12.040  0.00  0.00    +0.105 C 
ATOM     10  C   LIG    1       24.302 -30.213  10.259  0.00  0.00    +0.085 C 
ATOM     11  C   LIG    1       26.949 -32.120   9.308  0.00  0.00    +0.055 C 
ATOM     12  C   LIG    1       26.597 -32.341   7.848  0.00  0.00    -0.038 A 
ATOM     13  C   LIG    1       27.094 -33.374   7.051  0.00  0.00    +0.008 A 
ATOM     14  C   LIG    1       26.372 -28.172   8.909  0.00  0.00    -0.021 C 
ATOM     15  C   LIG    1       25.884 -27.381   7.938  0.00  0.00    +0.017 C 
ATOM     16  C   LIG    1       24.092 -30.585   8.793  0.00  0.00    +0.031 C 
ATOM     17  C   LIG    1       25.395 -27.909   6.606  0.00  0.00    +0.240 C 
ATOM     18  C   LIG    1       25.828 -31.375   7.214  0.00  0.00    +0.012 A 
ATOM     19  C   LIG    1       26.888 -33.352   5.653  0.00  0.00    +0.050 A 
ENDROOT
BRANCH   1  20
ATOM     20  O   LIG    1       26.255 -32.167   3.657  0.00  0.00    -0.422 OA
BRANCH  20  22
ATOM     21  C   LIG    1       26.609 -33.686   1.901  0.00  0.00    +0.136 C 
ATOM     22  C   LIG    1       25.649 -33.199   2.946  0.00  0.00    +0.309 C 
ATOM     23  O   LIG    1       24.545 -33.681   3.171  0.00  0.00    -0.251 OA
ENDBRANCH  20  22
ENDBRANCH   1  20
BRANCH  17  24
ATOM     24  O   LIG    1       24.339 -27.010   6.192  0.00  0.00    -0.454 OA
BRANCH  24  25
ATOM     25  C   LIG    1       24.737 -25.787   5.746  0.00  0.00    +0.305 C 
ATOM     26  O   LIG    1       25.637 -25.570   4.954  0.00  0.00    -0.251 OA
ATOM     27  C   LIG    1       23.942 -24.713   6.430  0.00  0.00    +0.136 C 
ENDBRANCH  24  25
ENDBRANCH  17  24
TORSDOF 4
ENDMDL
MODEL 4
REMARK VINA RESULT:      -6.7      8.479      9.650
REMARK  Name = *****
REMARK                            x       y       z     vdW  Elec       q    Type
REMARK                         _______ _______ _______ _____ _____    ______ ____
ROOT
ATOM      1  C   LIG    1       25.370 -26.488  13.228  0.00  0.00    +0.173 A 
ATOM      2  C   LIG    1       24.974 -27.763  12.883  0.00  0.00    +0.167 A 
ATOM      3  O   LIG    1       25.690 -28.668  12.150  0.00  0.00    -0.480 OA
ATOM      4  C   LIG    1       24.842 -29.853  12.022  0.00  0.00    +0.229 C 
ATOM      5  C   LIG    1       23.451 -29.542  12.617  0.00  0.00    +0.049 C 
ATOM      6  C   LIG    1       22.302 -29.334  11.622  0.00  0.00    +0.043 C 
ATOM      7  C   LIG    1       21.033 -29.067  12.487  0.00  0.00    +0.069 C 
ATOM      8  N   LIG    1       20.639 -30.205  13.348  0.00  0.00    -0.301 NA
ATOM      9  C   LIG    1       19.490 -30.935  12.813  0.00  0.00    +0.105 C 
ATOM     10  C   LIG    1       21.728 -31.139  13.651  0.00  0.00    +0.085 C 
ATOM     11  C   LIG    1       21.245 -27.783  13.414  0.00  0.00    +0.055 C 
ATOM     12  C   LIG    1       22.681 -27.307  13.537  0.00  0.00    -0.038 A 
ATOM     13  C   LIG    1       23.069 -26.020  13.914  0.00  0.00    +0.008 A 
ATOM     14  C   LIG    1       22.302 -30.417  10.581  0.00  0.00    -0.021 C 
ATOM     15  C   LIG    1       23.472 -30.844  10.076  0.00  0.00    +0.017 C 
ATOM     16  C   LIG    1       23.092 -30.470  13.807  0.00  0.00    +0.031 C 
ATOM     17  C   LIG    1       24.816 -30.326  10.544  0.00  0.00    +0.240 C 
ATOM     18  C   LIG    1       23.687 -28.167  13.121  0.00  0.00    +0.012 A 
ATOM     19  C   LIG    1       24.416 -25.615  13.771  0.00  0.00    +0.050 A 
ENDROOT
BRANCH   1  20
ATOM     20  O   LIG    1       26.614 -25.970  12.859  0.00  0.00    -0.422 OA
BRANCH  20  22
ATOM     21  C   LIG    1       27.836 -26.488  14.797  0.00  0.00    +0.136 C 
ATOM     22  C   LIG    1       27.352 -25.395  13.890  0.00  0.00    +0.309 C 
ATOM     23  O   LIG    1       27.624 -24.207  14.009  0.00  0.00    -0.251 OA
ENDBRANCH  20  22
ENDBRANCH   1  20
BRANCH  17  24
ATOM     24  O   LIG    1       25.737 -31.431  10.389  0.00  0.00    -0.454 OA
BRANCH  24  25
ATOM     25  C   LIG    1       26.881 -31.162   9.701  0.00  0.00    +0.305 C 
ATOM     26  O   LIG    1       27.791 -30.445  10.075  0.00  0.00    -0.251 OA
ATOM     27  C   LIG    1       26.836 -31.833   8.359  0.00  0.00    +0.136 C 
ENDBRANCH  24  25
ENDBRANCH  17  24
TORSDOF 4
ENDMDL
MODEL 5
REMARK VINA RESULT:      -6.7      1.583      5.545
REMARK  Name = *****
REMARK                            x       y       z     vdW  Elec       q    Type
REMARK                         _______ _______ _______ _____ _____    ______ ____
ROOT
ATOM      1  C   LIG    1       25.647 -25.874   6.716  0.00  0.00    +0.173 A 
ATOM      2  C   LIG    1       25.911 -24.521   6.685  0.00  0.00    +0.167 A 
ATOM      3  O   LIG    1       27.029 -23.897   7.163  0.00  0.00    -0.480 OA
ATOM      4  C   LIG    1       26.828 -22.466   6.934  0.00  0.00    +0.229 C 
ATOM      5  C   LIG    1       25.395 -22.238   6.405  0.00  0.00    +0.049 C 
ATOM      6  C   LIG    1       24.385 -21.626   7.382  0.00  0.00    +0.043 C 
ATOM      7  C   LIG    1       23.052 -21.487   6.585  0.00  0.00    +0.069 C 
ATOM      8  N   LIG    1       23.132 -20.561   5.433  0.00  0.00    -0.301 NA
ATOM      9  C   LIG    1       22.500 -19.271   5.711  0.00  0.00    +0.105 C 
ATOM     10  C   LIG    1       24.489 -20.352   4.919  0.00  0.00    +0.085 C 
ATOM     11  C   LIG    1       22.564 -22.912   6.054  0.00  0.00    +0.055 C 
ATOM     12  C   LIG    1       23.607 -24.013   6.111  0.00  0.00    -0.038 A 
ATOM     13  C   LIG    1       23.328 -25.381   6.115  0.00  0.00    +0.008 A 
ATOM     14  C   LIG    1       24.981 -20.440   8.085  0.00  0.00    -0.021 C 
ATOM     15  C   LIG    1       26.262 -20.490   8.489  0.00  0.00    +0.017 C 
ATOM     16  C   LIG    1       25.377 -21.591   4.994  0.00  0.00    +0.031 C 
ATOM     17  C   LIG    1       27.170 -21.673   8.223  0.00  0.00    +0.240 C 
ATOM     18  C   LIG    1       24.930 -23.643   6.306  0.00  0.00    +0.012 A 
ATOM     19  C   LIG    1       24.352 -26.312   6.406  0.00  0.00    +0.050 A 
ENDROOT
BRANCH   1  20
ATOM     20  O   LIG    1       26.552 -26.795   7.252  0.00  0.00    -0.422 OA
BRANCH  20  22
ATOM     21  C   LIG    1       26.397 -28.257   9.084  0.00  0.00    +0.136 C 
ATOM     22  C   LIG    1       26.001 -28.008   7.659  0.00  0.00    +0.309 C 
ATOM     23  O   LIG    1       25.262 -28.725   6.996  0.00  0.00    -0.251 OA
ENDBRANCH  20  22
ENDBRANCH   1  20
BRANCH  17  24
ATOM     24  O   LIG    1       28.503 -21.123   8.096  0.00  0.00    -0.454 OA
BRANCH  24  25
ATOM     25  C   LIG    1       28.626 -20.039   7.282  0.00  0.00    +0.305 C 
ATOM     26  O   LIG    1       28.167 -19.930   6.159  0.00  0.00    -0.251 OA
ATOM     27  C   LIG    1       29.481 -19.000   7.946  0.00  0.00    +0.136 C 
ENDBRANCH  24  25
ENDBRANCH  17  24
TORSDOF 4
ENDMDL
MODEL 6
REMARK VINA RESULT:      -6.5      8.285     10.741
REMARK  Name = *****
REMARK                            x       y       z     vdW  Elec       q    Type
REMARK                         _______ _______ _______ _____ _____    ______ ____
ROOT
ATOM      1  C   LIG    1       24.568 -29.731   8.063  0.00  0.00    +0.173 A 
ATOM      2  C   LIG    1       23.989 -30.088   9.262  0.00  0.00    +0.167 A 
ATOM      3  O   LIG    1       22.732 -30.596   9.441  0.00  0.00    -0.480 OA
ATOM      4  C   LIG    1       22.568 -30.781  10.883  0.00  0.00    +0.229 C 
ATOM      5  C   LIG    1       23.796 -30.187  11.609  0.00  0.00    +0.049 C 
ATOM      6  C   LIG    1       23.589 -28.860  12.348  0.00  0.00    +0.043 C 
ATOM      7  C   LIG    1       24.963 -28.516  13.000  0.00  0.00    +0.069 C 
ATOM      8  N   LIG    1       25.411 -29.495  14.016  0.00  0.00    -0.301 NA
ATOM      9  C   LIG    1       25.224 -29.005  15.381  0.00  0.00    +0.105 C 
ATOM     10  C   LIG    1       24.812 -30.826  13.877  0.00  0.00    +0.085 C 
ATOM     11  C   LIG    1       26.098 -28.394  11.883  0.00  0.00    +0.055 C 
ATOM     12  C   LIG    1       25.727 -28.953  10.522  0.00  0.00    -0.038 A 
ATOM     13  C   LIG    1       26.339 -28.603   9.317  0.00  0.00    +0.008 A 
ATOM     14  C   LIG    1       22.340 -28.908  13.183  0.00  0.00    -0.021 C 
ATOM     15  C   LIG    1       21.242 -29.505  12.688  0.00  0.00    +0.017 C 
ATOM     16  C   LIG    1       24.573 -31.250  12.430  0.00  0.00    +0.031 C 
ATOM     17  C   LIG    1       21.207 -30.191  11.339  0.00  0.00    +0.240 C 
ATOM     18  C   LIG    1       24.612 -29.775  10.441  0.00  0.00    +0.012 A 
ATOM     19  C   LIG    1       25.766 -29.002   8.088  0.00  0.00    +0.050 A 
ENDROOT
BRANCH   1  20
ATOM     20  O   LIG    1       23.900 -29.874   6.843  0.00  0.00    -0.422 OA
BRANCH  20  22
ATOM     21  C   LIG    1       25.302 -31.107   5.418  0.00  0.00    +0.136 C 
ATOM     22  C   LIG    1       24.039 -31.115   6.228  0.00  0.00    +0.309 C 
ATOM     23  O   LIG    1       23.297 -32.079   6.369  0.00  0.00    -0.251 OA
ENDBRANCH  20  22
ENDBRANCH   1  20
BRANCH  17  24
ATOM     24  O   LIG    1       20.250 -31.269  11.471  0.00  0.00    -0.454 OA
BRANCH  24  25
ATOM     25  C   LIG    1       19.540 -31.577  10.351  0.00  0.00    +0.305 C 
ATOM     26  O   LIG    1       18.797 -30.826   9.744  0.00  0.00    -0.251 OA
ATOM     27  C   LIG    1       19.750 -33.020   9.998  0.00  0.00    +0.136 C 
ENDBRANCH  24  25
ENDBRANCH  17  24
TORSDOF 4
ENDMDL
MODEL 7
REMARK VINA RESULT:      -6.4      8.980     10.779
REMARK  Name = *****
REMARK                            x       y       z     vdW  Elec       q    Type
REMARK                         _______ _______ _______ _____ _____    ______ ____
ROOT
ATOM      1  C   LIG    1       24.271 -30.204   9.755  0.00  0.00    +0.173 A 
ATOM      2  C   LIG    1       24.102 -29.636  11.001  0.00  0.00    +0.167 A 
ATOM      3  O   LIG    1       22.913 -29.334  11.604  0.00  0.00    -0.480 OA
ATOM      4  C   LIG    1       23.251 -28.721  12.889  0.00  0.00    +0.229 C 
ATOM      5  C   LIG    1       24.781 -28.524  12.964  0.00  0.00    +0.049 C 
ATOM      6  C   LIG    1       25.304 -27.091  12.809  0.00  0.00    +0.043 C 
ATOM      7  C   LIG    1       26.853 -27.184  12.952  0.00  0.00    +0.069 C 
ATOM      8  N   LIG    1       27.310 -27.654  14.279  0.00  0.00    -0.301 NA
ATOM      9  C   LIG    1       27.816 -26.563  15.111  0.00  0.00    +0.105 C 
ATOM     10  C   LIG    1       26.311 -28.427  15.023  0.00  0.00    +0.085 C 
ATOM     11  C   LIG    1       27.462 -28.154  11.837  0.00  0.00    +0.055 C 
ATOM     12  C   LIG    1       26.450 -29.029  11.121  0.00  0.00    -0.038 A 
ATOM     13  C   LIG    1       26.643 -29.620   9.872  0.00  0.00    +0.008 A 
ATOM     14  C   LIG    1       24.514 -26.144  13.668  0.00  0.00    -0.021 C 
ATOM     15  C   LIG    1       23.182 -26.298  13.764  0.00  0.00    +0.017 C 
ATOM     16  C   LIG    1       25.424 -29.304  14.142  0.00  0.00    +0.031 C 
ATOM     17  C   LIG    1       22.426 -27.422  13.087  0.00  0.00    +0.240 C 
ATOM     18  C   LIG    1       25.186 -29.150  11.682  0.00  0.00    +0.012 A 
ATOM     19  C   LIG    1       25.556 -30.219   9.194  0.00  0.00    +0.050 A 
ENDROOT
BRANCH   1  20
ATOM     20  O   LIG    1       23.187 -30.562   8.948  0.00  0.00    -0.422 OA
BRANCH  20  22
ATOM     21  C   LIG    1       23.068 -32.841   9.505  0.00  0.00    +0.136 C 
ATOM     22  C   LIG    1       23.246 -31.841   8.401  0.00  0.00    +0.309 C 
ATOM     23  O   LIG    1       23.358 -32.114   7.212  0.00  0.00    -0.251 OA
ENDBRANCH  20  22
ENDBRANCH   1  20
BRANCH  17  24
ATOM     24  O   LIG    1       21.298 -27.709  13.947  0.00  0.00    -0.454 OA
BRANCH  24  25
ATOM     25  C   LIG    1       20.210 -26.905  13.791  0.00  0.00    +0.305 C 
ATOM     26  O   LIG    1       19.863 -26.360  12.759  0.00  0.00    -0.251 OA
ATOM     27  C   LIG    1       19.519 -26.726  15.111  0.00  0.00    +0.136 C 
ENDBRANCH  24  25
ENDBRANCH  17  24
TORSDOF 4
ENDMDL
MODEL 8
REMARK VINA RESULT:      -6.2      8.218     10.664
REMARK  Name = *****
REMARK                            x       y       z     vdW  Elec       q    Type
REMARK                         _______ _______ _______ _____ _____    ______ ____
ROOT
ATOM      1  C   LIG    1       21.808 -29.183  12.766  0.00  0.00    +0.173 A 
ATOM      2  C   LIG    1       23.117 -29.405  12.395  0.00  0.00    +0.167 A 
ATOM      3  O   LIG    1       24.222 -28.762  12.880  0.00  0.00    -0.480 OA
ATOM      4  C   LIG    1       25.368 -29.319  12.160  0.00  0.00    +0.229 C 
ATOM      5  C   LIG    1       24.853 -30.269  11.055  0.00  0.00    +0.049 C 
ATOM      6  C   LIG    1       24.937 -29.761   9.611  0.00  0.00    +0.043 C 
ATOM      7  C   LIG    1       24.385 -30.916   8.721  0.00  0.00    +0.069 C 
ATOM      8  N   LIG    1       25.189 -32.157   8.775  0.00  0.00    -0.301 NA
ATOM      9  C   LIG    1       26.021 -32.333   7.586  0.00  0.00    +0.105 C 
ATOM     10  C   LIG    1       26.008 -32.295   9.983  0.00  0.00    +0.085 C 
ATOM     11  C   LIG    1       22.882 -31.270   9.131  0.00  0.00    +0.055 C 
ATOM     12  C   LIG    1       22.425 -30.701  10.462  0.00  0.00    -0.038 A 
ATOM     13  C   LIG    1       21.095 -30.505  10.836  0.00  0.00    +0.008 A 
ATOM     14  C   LIG    1       26.290 -29.168   9.337  0.00  0.00    -0.021 C 
ATOM     15  C   LIG    1       26.881 -28.414  10.280  0.00  0.00    +0.017 C 
ATOM     16  C   LIG    1       25.357 -31.725  11.241  0.00  0.00    +0.031 C 
ATOM     17  C   LIG    1       26.275 -28.170  11.646  0.00  0.00    +0.240 C 
ATOM     18  C   LIG    1       23.396 -30.215  11.326  0.00  0.00    +0.012 A 
ATOM     19  C   LIG    1       20.787 -29.756  11.995  0.00  0.00    +0.050 A 
ENDROOT
BRANCH   1  20
ATOM     20  O   LIG    1       21.460 -28.240  13.737  0.00  0.00    -0.422 OA
BRANCH  20  22
ATOM     21  C   LIG    1       19.966 -26.516  13.179  0.00  0.00    +0.136 C 
ATOM     22  C   LIG    1       21.406 -26.920  13.297  0.00  0.00    +0.309 C 
ATOM     23  O   LIG    1       22.364 -26.184  13.099  0.00  0.00    -0.251 OA
ENDBRANCH  20  22
ENDBRANCH   1  20
BRANCH  17  24
ATOM     24  O   LIG    1       27.396 -28.018  12.550  0.00  0.00    -0.454 OA
BRANCH  24  25
ATOM     25  C   LIG    1       27.235 -27.110  13.552  0.00  0.00    +0.305 C 
ATOM     26  O   LIG    1       27.497 -27.287  14.728  0.00  0.00    -0.251 OA
ATOM     27  C   LIG    1       26.614 -25.857  13.007  0.00  0.00    +0.136 C 
ENDBRANCH  24  25
ENDBRANCH  17  24
TORSDOF 4
ENDMDL
MODEL 9
REMARK VINA RESULT:      -6.2      8.382     10.450
REMARK  Name = *****
REMARK                            x       y       z     vdW  Elec       q    Type
REMARK                         _______ _______ _______ _____ _____    ______ ____
ROOT
ATOM      1  C   LIG    1       23.100 -26.841  13.414  0.00  0.00    +0.173 A 
ATOM      2  C   LIG    1       23.386 -28.091  12.905  0.00  0.00    +0.167 A 
ATOM      3  O   LIG    1       24.561 -28.488  12.332  0.00  0.00    -0.480 OA
ATOM      4  C   LIG    1       24.365 -29.879  11.921  0.00  0.00    +0.229 C 
ATOM      5  C   LIG    1       22.888 -30.268  12.152  0.00  0.00    +0.049 C 
ATOM      6  C   LIG    1       22.001 -30.390  10.907  0.00  0.00    +0.043 C 
ATOM      7  C   LIG    1       20.593 -30.813  11.427  0.00  0.00    +0.069 C 
ATOM      8  N   LIG    1       20.568 -32.136  12.089  0.00  0.00    -0.301 NA
ATOM      9  C   LIG    1       19.995 -33.175  11.234  0.00  0.00    +0.105 C 
ATOM     10  C   LIG    1       21.866 -32.577  12.610  0.00  0.00    +0.085 C 
ATOM     11  C   LIG    1       20.023 -29.726  12.450  0.00  0.00    +0.055 C 
ATOM     12  C   LIG    1       21.044 -28.730  12.968  0.00  0.00    -0.038 A 
ATOM     13  C   LIG    1       20.740 -27.478  13.505  0.00  0.00    +0.008 A 
ATOM     14  C   LIG    1       22.693 -31.191   9.841  0.00  0.00    -0.021 C 
ATOM     15  C   LIG    1       24.009 -31.011   9.633  0.00  0.00    +0.017 C 
ATOM     16  C   LIG    1       22.732 -31.443  13.153  0.00  0.00    +0.031 C 
ATOM     17  C   LIG    1       24.859 -30.072  10.462  0.00  0.00    +0.240 C 
ATOM     18  C   LIG    1       22.387 -29.020  12.778  0.00  0.00    +0.012 A 
ATOM     19  C   LIG    1       21.771 -26.538  13.740  0.00  0.00    +0.050 A 
ENDROOT
BRANCH   1  20
ATOM     20  O   LIG    1       24.038 -25.805  13.410  0.00  0.00    -0.422 OA
BRANCH  20  22
ATOM     21  C   LIG    1       25.315 -24.251  14.623  0.00  0.00    +0.136 C 
ATOM     22  C   LIG    1       24.754 -25.642  14.594  0.00  0.00    +0.309 C 
ATOM     23  O   LIG    1       24.859 -26.465  15.495  0.00  0.00    -0.251 OA
ENDBRANCH  20  22
ENDBRANCH   1  20
BRANCH  17  24
ATOM     24  O   LIG    1       26.181 -30.659  10.488  0.00  0.00    -0.454 OA
BRANCH  24  25
ATOM     25  C   LIG    1       27.223 -29.789  10.383  0.00  0.00    +0.305 C 
ATOM     26  O   LIG    1       28.311 -29.905  10.919  0.00  0.00    -0.251 OA
ATOM     27  C   LIG    1       26.815 -28.608   9.551  0.00  0.00    +0.136 C 
ENDBRANCH  24  25
ENDBRANCH  17  24
TORSDOF 4
ENDMDL
