MODEL 1
REMARK VINA RESULT:      -3.8      0.000      0.000
REMARK  Name = *****
REMARK                            x       y       z     vdW  Elec       q    Type
REMARK                         _______ _______ _______ _____ _____    ______ ____
ROOT
ATOM      1  C   LIG    1       25.140 -17.031   3.301  0.00  0.00    +0.162 C 
ENDROOT
BRANCH   1   2
ATOM      2  C   LIG    1       24.240 -18.073   3.952  0.00  0.00    -0.007 A 
ATOM      3  C   LIG    1       24.774 -19.180   4.673  0.00  0.00    +0.009 A 
ATOM      4  C   LIG    1       23.867 -20.187   5.091  0.00  0.00    +0.071 A 
ATOM      5  C   LIG    1       24.357 -21.319   5.726  0.00  0.00    +0.032 A 
ATOM      6  C   LIG    1       25.712 -21.478   6.009  0.00  0.00    +0.048 A 
ATOM      7  C   LIG    1       26.607 -20.468   5.684  0.00  0.00    +0.121 A 
ATOM      8  N   LIG    1       22.543 -20.108   4.902  0.00  0.00    -0.255 NA
ATOM      9  C   LIG    1       22.057 -19.001   4.315  0.00  0.00    +0.112 A 
ATOM     10  C   LIG    1       26.145 -19.340   5.006  0.00  0.00    +0.056 A 
ATOM     11  C   LIG    1       22.846 -17.975   3.836  0.00  0.00    +0.026 A 
BRANCH   7  12
ATOM     12  O   LIG    1       27.910 -20.698   6.030  0.00  0.00    -0.495 OA
ATOM     13  C   LIG    1       28.762 -19.559   5.969  0.00  0.00    +0.277 C 
ENDBRANCH   7  12
ENDBRANCH   1   2
BRANCH   1  17
ATOM     14  C   LIG    1       25.449 -12.719   4.298  0.00  0.00    +0.028 C 
ATOM     15  C   LIG    1       24.632 -13.318   3.128  0.00  0.00    -0.000 C 
ATOM     16  C   LIG    1       24.054 -14.690   3.517  0.00  0.00    +0.026 C 
ATOM     17  C   LIG    1       25.193 -15.622   3.989  0.00  0.00    +0.090 C 
ATOM     18  N   LIG    1       26.535 -14.957   3.842  0.00  0.00    -0.296 NA
ATOM     19  C   LIG    1       26.743 -14.493   2.450  0.00  0.00    +0.085 C 
ATOM     20  C   LIG    1       25.612 -13.574   1.969  0.00  0.00    +0.019 C 
ATOM     21  C   LIG    1       26.528 -13.753   4.724  0.00  0.00    +0.092 C 
BRANCH  14  23
ATOM     22  C   LIG    1       23.542 -11.448   5.344  0.00  0.00    +0.004 C 
ATOM     23  C   LIG    1       24.572 -12.296   5.455  0.00  0.00    -0.029 C 
ENDBRANCH  14  23
ENDBRANCH   1  17
BRANCH   1  24
ATOM     24  O   LIG    1       26.465 -17.563   3.238  0.00  0.00    -0.386 OA
ATOM     25  H   LIG    1       26.344 -18.533   3.301  0.00  0.00    +0.210 HD
ENDBRANCH   1  24
TORSDOF 5
ENDMDL
MODEL 2
REMARK VINA RESULT:      -3.6      2.161      3.759
REMARK  Name = *****
REMARK                            x       y       z     vdW  Elec       q    Type
REMARK                         _______ _______ _______ _____ _____    ______ ____
ROOT
ATOM      1  C   LIG    1       26.404 -17.438   3.786  0.00  0.00    +0.162 C 
ENDROOT
BRANCH   1   2
ATOM      2  C   LIG    1       27.311 -18.325   4.629  0.00  0.00    -0.007 A 
ATOM      3  C   LIG    1       26.802 -19.435   5.365  0.00  0.00    +0.009 A 
ATOM      4  C   LIG    1       27.689 -20.091   6.255  0.00  0.00    +0.071 A 
ATOM      5  C   LIG    1       27.212 -21.125   7.048  0.00  0.00    +0.032 A 
ATOM      6  C   LIG    1       25.894 -21.572   6.963  0.00  0.00    +0.048 A 
ATOM      7  C   LIG    1       25.030 -20.999   6.040  0.00  0.00    +0.121 A 
ATOM      8  N   LIG    1       28.982 -19.763   6.380  0.00  0.00    -0.255 NA
ATOM      9  C   LIG    1       29.460 -18.784   5.593  0.00  0.00    +0.112 A 
ATOM     10  C   LIG    1       25.475 -19.930   5.263  0.00  0.00    +0.056 A 
ATOM     11  C   LIG    1       28.683 -18.052   4.718  0.00  0.00    +0.026 A 
BRANCH   7  12
ATOM     12  O   LIG    1       23.769 -21.524   6.006  0.00  0.00    -0.495 OA
ATOM     13  C   LIG    1       22.767 -20.659   5.481  0.00  0.00    +0.277 C 
ENDBRANCH   7  12
ENDBRANCH   1   2
BRANCH   1  17
ATOM     14  C   LIG    1       27.079 -13.071   3.405  0.00  0.00    +0.028 C 
ATOM     15  C   LIG    1       26.692 -13.814   4.707  0.00  0.00    -0.000 C 
ATOM     16  C   LIG    1       27.327 -15.215   4.739  0.00  0.00    +0.026 C 
ATOM     17  C   LIG    1       26.933 -15.997   3.466  0.00  0.00    +0.090 C 
ATOM     18  N   LIG    1       25.975 -15.205   2.618  0.00  0.00    -0.296 NA
ATOM     19  C   LIG    1       24.787 -14.798   3.404  0.00  0.00    +0.085 C 
ATOM     20  C   LIG    1       25.169 -14.029   4.676  0.00  0.00    +0.019 C 
ATOM     21  C   LIG    1       26.686 -13.962   2.195  0.00  0.00    +0.092 C 
BRANCH  14  23
ATOM     22  C   LIG    1       29.185 -12.121   4.410  0.00  0.00    +0.004 C 
ATOM     23  C   LIG    1       28.539 -12.679   3.379  0.00  0.00    -0.029 C 
ENDBRANCH  14  23
ENDBRANCH   1  17
BRANCH   1  24
ATOM     24  O   LIG    1       26.137 -18.116   2.555  0.00  0.00    -0.386 OA
ATOM     25  H   LIG    1       27.019 -18.247   2.150  0.00  0.00    +0.210 HD
ENDBRANCH   1  24
TORSDOF 5
ENDMDL
MODEL 3
REMARK VINA RESULT:      -2.5      1.548      3.378
REMARK  Name = *****
REMARK                            x       y       z     vdW  Elec       q    Type
REMARK                         _______ _______ _______ _____ _____    ______ ____
ROOT
ATOM      1  C   LIG    1       26.040 -17.172   3.279  0.00  0.00    +0.162 C 
ENDROOT
BRANCH   1   2
ATOM      2  C   LIG    1       25.681 -18.439   4.045  0.00  0.00    -0.007 A 
ATOM      3  C   LIG    1       24.327 -18.838   4.242  0.00  0.00    +0.009 A 
ATOM      4  C   LIG    1       24.088 -19.930   5.114  0.00  0.00    +0.071 A 
ATOM      5  C   LIG    1       22.780 -20.299   5.394  0.00  0.00    +0.032 A 
ATOM      6  C   LIG    1       21.690 -19.658   4.807  0.00  0.00    +0.048 A 
ATOM      7  C   LIG    1       21.903 -18.641   3.888  0.00  0.00    +0.121 A 
ATOM      8  N   LIG    1       25.068 -20.636   5.695  0.00  0.00    -0.255 NA
ATOM      9  C   LIG    1       26.337 -20.304   5.404  0.00  0.00    +0.112 A 
ATOM     10  C   LIG    1       23.207 -18.223   3.623  0.00  0.00    +0.056 A 
ATOM     11  C   LIG    1       26.689 -19.239   4.600  0.00  0.00    +0.026 A 
BRANCH   7  12
ATOM     12  O   LIG    1       20.776 -18.094   3.340  0.00  0.00    -0.495 OA
ATOM     13  C   LIG    1       19.646 -18.960   3.290  0.00  0.00    +0.277 C 
ENDBRANCH   7  12
ENDBRANCH   1   2
BRANCH   1  17
ATOM     14  C   LIG    1       25.376 -12.922   4.361  0.00  0.00    +0.028 C 
ATOM     15  C   LIG    1       25.022 -13.573   3.002  0.00  0.00    -0.000 C 
ATOM     16  C   LIG    1       24.582 -15.034   3.200  0.00  0.00    +0.026 C 
ATOM     17  C   LIG    1       25.677 -15.810   3.966  0.00  0.00    +0.090 C 
ATOM     18  N   LIG    1       26.884 -14.946   4.210  0.00  0.00    -0.296 NA
ATOM     19  C   LIG    1       27.395 -14.383   2.938  0.00  0.00    +0.085 C 
ATOM     20  C   LIG    1       26.312 -13.618   2.165  0.00  0.00    +0.019 C 
ATOM     21  C   LIG    1       26.443 -13.805   5.065  0.00  0.00    +0.092 C 
BRANCH  14  23
ATOM     22  C   LIG    1       23.589 -11.500   5.424  0.00  0.00    +0.004 C 
ATOM     23  C   LIG    1       24.157 -12.696   5.226  0.00  0.00    -0.029 C 
ENDBRANCH  14  23
ENDBRANCH   1  17
BRANCH   1  24
ATOM     24  O   LIG    1       27.445 -17.195   3.012  0.00  0.00    -0.386 OA
ATOM     25  H   LIG    1       27.608 -18.080   2.625  0.00  0.00    +0.210 HD
ENDBRANCH   1  24
TORSDOF 5
ENDMDL
MODEL 4
REMARK VINA RESULT:      -2.3      1.870      3.492
REMARK  Name = *****
REMARK                            x       y       z     vdW  Elec       q    Type
REMARK                         _______ _______ _______ _____ _____    ______ ____
ROOT
ATOM      1  C   LIG    1       27.871 -17.253   4.117  0.00  0.00    +0.162 C 
ENDROOT
BRANCH   1   2
ATOM      2  C   LIG    1       27.636 -18.574   4.839  0.00  0.00    -0.007 A 
ATOM      3  C   LIG    1       26.368 -19.226   4.815  0.00  0.00    +0.009 A 
ATOM      4  C   LIG    1       26.198 -20.354   5.656  0.00  0.00    +0.071 A 
ATOM      5  C   LIG    1       24.956 -20.970   5.722  0.00  0.00    +0.032 A 
ATOM      6  C   LIG    1       23.878 -20.541   4.948  0.00  0.00    +0.048 A 
ATOM      7  C   LIG    1       24.045 -19.490   4.056  0.00  0.00    +0.121 A 
ATOM      8  N   LIG    1       27.183 -20.867   6.406  0.00  0.00    -0.255 NA
ATOM      9  C   LIG    1       28.396 -20.297   6.325  0.00  0.00    +0.112 A 
ATOM     10  C   LIG    1       25.272 -18.828   4.005  0.00  0.00    +0.056 A 
ATOM     11  C   LIG    1       28.670 -19.175   5.570  0.00  0.00    +0.026 A 
BRANCH   7  12
ATOM     12  O   LIG    1       22.943 -19.162   3.317  0.00  0.00    -0.495 OA
ATOM     13  C   LIG    1       21.914 -18.487   4.033  0.00  0.00    +0.277 C 
ENDBRANCH   7  12
ENDBRANCH   1   2
BRANCH   1  17
ATOM     14  C   LIG    1       25.226 -13.709   3.774  0.00  0.00    +0.028 C 
ATOM     15  C   LIG    1       25.871 -14.471   2.591  0.00  0.00    -0.000 C 
ATOM     16  C   LIG    1       25.973 -15.974   2.907  0.00  0.00    +0.026 C 
ATOM     17  C   LIG    1       26.736 -16.178   4.235  0.00  0.00    +0.090 C 
ATOM     18  N   LIG    1       27.236 -14.867   4.781  0.00  0.00    -0.296 NA
ATOM     19  C   LIG    1       28.060 -14.158   3.775  0.00  0.00    +0.085 C 
ATOM     20  C   LIG    1       27.315 -13.959   2.449  0.00  0.00    +0.019 C 
ATOM     21  C   LIG    1       26.038 -14.022   5.061  0.00  0.00    +0.092 C 
BRANCH  14  23
ATOM     22  C   LIG    1       23.283 -15.051   4.652  0.00  0.00    +0.004 C 
ATOM     23  C   LIG    1       23.756 -14.027   3.931  0.00  0.00    -0.029 C 
ENDBRANCH  14  23
ENDBRANCH   1  17
BRANCH   1  24
ATOM     24  O   LIG    1       29.093 -16.691   4.604  0.00  0.00    -0.386 OA
ATOM     25  H   LIG    1       28.900 -15.736   4.706  0.00  0.00    +0.210 HD
ENDBRANCH   1  24
TORSDOF 5
ENDMDL
MODEL 5
REMARK VINA RESULT:      -1.4      1.925      6.530
REMARK  Name = *****
REMARK                            x       y       z     vdW  Elec       q    Type
REMARK                         _______ _______ _______ _____ _____    ______ ____
ROOT
ATOM      1  C   LIG    1       25.340 -17.945   3.803  0.00  0.00    +0.162 C 
ENDROOT
BRANCH   1   2
ATOM      2  C   LIG    1       24.686 -16.571   3.863  0.00  0.00    -0.007 A 
ATOM      3  C   LIG    1       25.455 -15.371   3.826  0.00  0.00    +0.009 A 
ATOM      4  C   LIG    1       24.774 -14.151   4.063  0.00  0.00    +0.071 A 
ATOM      5  C   LIG    1       25.500 -12.969   4.113  0.00  0.00    +0.032 A 
ATOM      6  C   LIG    1       26.876 -12.938   3.890  0.00  0.00    +0.048 A 
ATOM      7  C   LIG    1       27.549 -14.109   3.573  0.00  0.00    +0.121 A 
ATOM      8  N   LIG    1       23.450 -14.071   4.248  0.00  0.00    -0.255 NA
ATOM      9  C   LIG    1       22.736 -15.207   4.170  0.00  0.00    +0.112 A 
ATOM     10  C   LIG    1       26.849 -15.315   3.560  0.00  0.00    +0.056 A 
ATOM     11  C   LIG    1       23.294 -16.455   3.980  0.00  0.00    +0.026 A 
BRANCH   7  12
ATOM     12  O   LIG    1       28.889 -13.976   3.339  0.00  0.00    -0.495 OA
ATOM     13  C   LIG    1       29.450 -12.725   3.725  0.00  0.00    +0.277 C 
ENDBRANCH   7  12
ENDBRANCH   1   2
BRANCH   1  17
ATOM     14  C   LIG    1       23.405 -21.563   5.489  0.00  0.00    +0.028 C 
ATOM     15  C   LIG    1       23.918 -20.352   6.304  0.00  0.00    -0.000 C 
ATOM     16  C   LIG    1       23.734 -19.047   5.509  0.00  0.00    +0.026 C 
ATOM     17  C   LIG    1       24.422 -19.174   4.132  0.00  0.00    +0.090 C 
ATOM     18  N   LIG    1       25.147 -20.486   4.005  0.00  0.00    -0.296 NA
ATOM     19  C   LIG    1       26.107 -20.667   5.119  0.00  0.00    +0.085 C 
ATOM     20  C   LIG    1       25.434 -20.534   6.493  0.00  0.00    +0.019 C 
ATOM     21  C   LIG    1       24.122 -21.567   4.111  0.00  0.00    +0.092 C 
BRANCH  14  23
ATOM     22  C   LIG    1       21.240 -21.083   4.295  0.00  0.00    +0.004 C 
ATOM     23  C   LIG    1       21.899 -21.570   5.353  0.00  0.00    -0.029 C 
ENDBRANCH  14  23
ENDBRANCH   1  17
BRANCH   1  24
ATOM     24  O   LIG    1       25.894 -18.118   2.496  0.00  0.00    -0.386 OA
ATOM     25  H   LIG    1       25.160 -17.897   1.887  0.00  0.00    +0.210 HD
ENDBRANCH   1  24
TORSDOF 5
ENDMDL
