MODEL 1
REMARK VINA RESULT:      -5.9      0.000      0.000
REMARK  Name = *****
REMARK                            x       y       z     vdW  Elec       q    Type
REMARK                         _______ _______ _______ _____ _____    ______ ____
ROOT
ATOM      1  S   LIG    1       28.436 -20.059   6.573  0.00  0.00    -0.030 S 
ATOM      2  C   LIG    1       29.702 -20.361   7.599  0.00  0.00    +0.113 C 
ATOM      3  C   LIG    1       30.448 -19.335   8.229  0.00  0.00    +0.116 A 
ATOM      4  C   LIG    1       31.494 -19.603   9.077  0.00  0.00    +0.182 A 
ATOM      5  N   LIG    1       32.051 -18.455   9.554  0.00  0.00    -0.216 NA
ATOM      6  C   LIG    1       31.352 -17.486   9.003  0.00  0.00    +0.199 A 
ATOM      7  N   LIG    1       31.896 -20.908   9.379  0.00  0.00    -0.216 NA
ATOM      8  C   LIG    1       31.195 -21.821   8.787  0.00  0.00    +0.199 C 
ATOM      9  N   LIG    1       30.365 -17.971   8.188  0.00  0.00    -0.341 N 
ATOM     10  H   LIG    1       29.700 -17.426   7.656  0.00  0.00    +0.167 HD
ATOM     11  N   LIG    1       30.136 -21.620   7.925  0.00  0.00    -0.339 N 
ATOM     12  H   LIG    1       29.657 -22.409   7.515  0.00  0.00    +0.167 HD
ENDROOT
TORSDOF 0
ENDMDL
MODEL 2
REMARK VINA RESULT:      -5.7      0.698      2.823
REMARK  Name = *****
REMARK                            x       y       z     vdW  Elec       q    Type
REMARK                         _______ _______ _______ _____ _____    ______ ____
ROOT
ATOM      1  S   LIG    1       28.464 -19.950   6.400  0.00  0.00    -0.030 S 
ATOM      2  C   LIG    1       29.745 -19.585   7.386  0.00  0.00    +0.113 C 
ATOM      3  C   LIG    1       30.459 -20.564   8.120  0.00  0.00    +0.116 A 
ATOM      4  C   LIG    1       31.519 -20.244   8.932  0.00  0.00    +0.182 A 
ATOM      5  N   LIG    1       32.038 -21.353   9.528  0.00  0.00    -0.216 NA
ATOM      6  C   LIG    1       31.301 -22.351   9.087  0.00  0.00    +0.199 A 
ATOM      7  N   LIG    1       31.970 -18.930   9.091  0.00  0.00    -0.216 NA
ATOM      8  C   LIG    1       31.296 -18.061   8.408  0.00  0.00    +0.199 C 
ATOM      9  N   LIG    1       30.327 -21.921   8.227  0.00  0.00    -0.341 N 
ATOM     10  H   LIG    1       29.639 -22.495   7.758  0.00  0.00    +0.167 HD
ATOM     11  N   LIG    1       30.223 -18.315   7.578  0.00  0.00    -0.339 N 
ATOM     12  H   LIG    1       29.766 -17.557   7.090  0.00  0.00    +0.167 HD
ENDROOT
TORSDOF 0
ENDMDL
MODEL 3
REMARK VINA RESULT:      -5.5      1.944      3.436
REMARK  Name = *****
REMARK                            x       y       z     vdW  Elec       q    Type
REMARK                         _______ _______ _______ _____ _____    ______ ____
ROOT
ATOM      1  S   LIG    1       31.129 -22.152   9.258  0.00  0.00    -0.030 S 
ATOM      2  C   LIG    1       31.057 -20.614   8.645  0.00  0.00    +0.113 C 
ATOM      3  C   LIG    1       30.188 -20.242   7.589  0.00  0.00    +0.116 A 
ATOM      4  C   LIG    1       30.141 -18.962   7.095  0.00  0.00    +0.182 A 
ATOM      5  N   LIG    1       29.232 -18.855   6.086  0.00  0.00    -0.216 NA
ATOM      6  C   LIG    1       28.723 -20.063   5.960  0.00  0.00    +0.199 A 
ATOM      7  N   LIG    1       30.945 -17.935   7.599  0.00  0.00    -0.216 NA
ATOM      8  C   LIG    1       31.727 -18.308   8.561  0.00  0.00    +0.199 C 
ATOM      9  N   LIG    1       29.274 -20.942   6.853  0.00  0.00    -0.341 N 
ATOM     10  H   LIG    1       29.048 -21.922   6.952  0.00  0.00    +0.167 HD
ATOM     11  N   LIG    1       31.825 -19.574   9.102  0.00  0.00    -0.339 N 
ATOM     12  H   LIG    1       32.473 -19.757   9.855  0.00  0.00    +0.167 HD
ENDROOT
TORSDOF 0
ENDMDL
MODEL 4
REMARK VINA RESULT:      -5.3      1.751      2.534
REMARK  Name = *****
REMARK                            x       y       z     vdW  Elec       q    Type
REMARK                         _______ _______ _______ _____ _____    ______ ____
ROOT
ATOM      1  S   LIG    1       31.078 -22.037   9.221  0.00  0.00    -0.030 S 
ATOM      2  C   LIG    1       30.694 -20.677   8.355  0.00  0.00    +0.113 C 
ATOM      3  C   LIG    1       31.099 -19.375   8.740  0.00  0.00    +0.116 A 
ATOM      4  C   LIG    1       30.773 -18.259   8.010  0.00  0.00    +0.182 A 
ATOM      5  N   LIG    1       31.274 -17.130   8.582  0.00  0.00    -0.216 NA
ATOM      6  C   LIG    1       31.905 -17.547   9.659  0.00  0.00    +0.199 A 
ATOM      7  N   LIG    1       30.019 -18.329   6.834  0.00  0.00    -0.216 NA
ATOM      8  C   LIG    1       29.665 -19.531   6.511  0.00  0.00    +0.199 C 
ATOM      9  N   LIG    1       31.827 -18.907   9.799  0.00  0.00    -0.341 N 
ATOM     10  H   LIG    1       32.229 -19.461  10.542  0.00  0.00    +0.167 HD
ATOM     11  N   LIG    1       29.957 -20.691   7.199  0.00  0.00    -0.339 N 
ATOM     12  H   LIG    1       29.628 -21.583   6.857  0.00  0.00    +0.167 HD
ENDROOT
TORSDOF 0
ENDMDL
MODEL 5
REMARK VINA RESULT:      -5.1      5.370      6.252
REMARK  Name = *****
REMARK                            x       y       z     vdW  Elec       q    Type
REMARK                         _______ _______ _______ _____ _____    ______ ____
ROOT
ATOM      1  S   LIG    1       24.417 -20.715   4.266  0.00  0.00    -0.030 S 
ATOM      2  C   LIG    1       24.885 -21.902   5.323  0.00  0.00    +0.113 C 
ATOM      3  C   LIG    1       25.355 -21.631   6.632  0.00  0.00    +0.116 A 
ATOM      4  C   LIG    1       25.737 -22.627   7.495  0.00  0.00    +0.182 A 
ATOM      5  N   LIG    1       26.151 -22.116   8.688  0.00  0.00    -0.216 NA
ATOM      6  C   LIG    1       26.024 -20.812   8.560  0.00  0.00    +0.199 A 
ATOM      7  N   LIG    1       25.689 -23.980   7.145  0.00  0.00    -0.216 NA
ATOM      8  C   LIG    1       25.256 -24.193   5.944  0.00  0.00    +0.199 C 
ATOM      9  N   LIG    1       25.543 -20.468   7.325  0.00  0.00    -0.341 N 
ATOM     10  H   LIG    1       25.361 -19.532   6.988  0.00  0.00    +0.167 HD
ATOM     11  N   LIG    1       24.859 -23.240   5.028  0.00  0.00    -0.339 N 
ATOM     12  H   LIG    1       24.536 -23.519   4.111  0.00  0.00    +0.167 HD
ENDROOT
TORSDOF 0
ENDMDL
MODEL 6
REMARK VINA RESULT:      -5.1      3.592      4.608
REMARK  Name = *****
REMARK                            x       y       z     vdW  Elec       q    Type
REMARK                         _______ _______ _______ _____ _____    ______ ____
ROOT
ATOM      1  S   LIG    1       24.793 -20.758   4.723  0.00  0.00    -0.030 S 
ATOM      2  C   LIG    1       25.561 -20.680   6.190  0.00  0.00    +0.113 C 
ATOM      3  C   LIG    1       26.941 -20.388   6.326  0.00  0.00    +0.116 A 
ATOM      4  C   LIG    1       27.560 -20.327   7.550  0.00  0.00    +0.182 A 
ATOM      5  N   LIG    1       28.884 -20.033   7.419  0.00  0.00    -0.216 NA
ATOM      6  C   LIG    1       29.078 -19.915   6.123  0.00  0.00    +0.199 A 
ATOM      7  N   LIG    1       26.873 -20.547   8.748  0.00  0.00    -0.216 NA
ATOM      8  C   LIG    1       25.616 -20.811   8.588  0.00  0.00    +0.199 C 
ATOM      9  N   LIG    1       27.925 -20.122   5.415  0.00  0.00    -0.341 N 
ATOM     10  H   LIG    1       27.819 -20.086   4.411  0.00  0.00    +0.167 HD
ATOM     11  N   LIG    1       24.934 -20.890   7.391  0.00  0.00    -0.339 N 
ATOM     12  H   LIG    1       23.947 -21.104   7.381  0.00  0.00    +0.167 HD
ENDROOT
TORSDOF 0
ENDMDL
MODEL 7
REMARK VINA RESULT:      -5.1      2.072      3.260
REMARK  Name = *****
REMARK                            x       y       z     vdW  Elec       q    Type
REMARK                         _______ _______ _______ _____ _____    ______ ____
ROOT
ATOM      1  S   LIG    1       26.917 -21.412   6.863  0.00  0.00    -0.030 S 
ATOM      2  C   LIG    1       28.172 -20.383   6.529  0.00  0.00    +0.113 C 
ATOM      3  C   LIG    1       29.423 -20.449   7.191  0.00  0.00    +0.116 A 
ATOM      4  C   LIG    1       30.452 -19.588   6.902  0.00  0.00    +0.182 A 
ATOM      5  N   LIG    1       31.547 -19.851   7.669  0.00  0.00    -0.216 NA
ATOM      6  C   LIG    1       31.193 -20.867   8.427  0.00  0.00    +0.199 A 
ATOM      7  N   LIG    1       30.340 -18.586   5.933  0.00  0.00    -0.216 NA
ATOM      8  C   LIG    1       29.186 -18.552   5.348  0.00  0.00    +0.199 C 
ATOM      9  N   LIG    1       29.909 -21.267   8.173  0.00  0.00    -0.341 N 
ATOM     10  H   LIG    1       29.412 -22.023   8.624  0.00  0.00    +0.167 HD
ATOM     11  N   LIG    1       28.111 -19.384   5.592  0.00  0.00    -0.339 N 
ATOM     12  H   LIG    1       27.251 -19.269   5.075  0.00  0.00    +0.167 HD
ENDROOT
TORSDOF 0
ENDMDL
MODEL 8
REMARK VINA RESULT:      -5.1      4.486      6.038
REMARK  Name = *****
REMARK                            x       y       z     vdW  Elec       q    Type
REMARK                         _______ _______ _______ _____ _____    ______ ____
ROOT
ATOM      1  S   LIG    1       28.983 -19.933   6.295  0.00  0.00    -0.030 S 
ATOM      2  C   LIG    1       27.458 -20.267   6.853  0.00  0.00    +0.113 C 
ATOM      3  C   LIG    1       26.345 -20.450   5.997  0.00  0.00    +0.116 A 
ATOM      4  C   LIG    1       25.088 -20.726   6.477  0.00  0.00    +0.182 A 
ATOM      5  N   LIG    1       24.189 -20.858   5.462  0.00  0.00    -0.216 NA
ATOM      6  C   LIG    1       24.888 -20.663   4.363  0.00  0.00    +0.199 A 
ATOM      7  N   LIG    1       24.819 -20.848   7.844  0.00  0.00    -0.216 NA
ATOM      8  C   LIG    1       25.857 -20.674   8.597  0.00  0.00    +0.199 C 
ATOM      9  N   LIG    1       26.205 -20.411   4.638  0.00  0.00    -0.341 N 
ATOM     10  H   LIG    1       26.938 -20.230   3.965  0.00  0.00    +0.167 HD
ATOM     11  N   LIG    1       27.142 -20.392   8.181  0.00  0.00    -0.339 N 
ATOM     12  H   LIG    1       27.883 -20.274   8.859  0.00  0.00    +0.167 HD
ENDROOT
TORSDOF 0
ENDMDL
MODEL 9
REMARK VINA RESULT:      -5.1      3.884      5.055
REMARK  Name = *****
REMARK                            x       y       z     vdW  Elec       q    Type
REMARK                         _______ _______ _______ _____ _____    ______ ____
ROOT
ATOM      1  S   LIG    1       24.899 -20.329   4.256  0.00  0.00    -0.030 S 
ATOM      2  C   LIG    1       26.189 -20.222   5.290  0.00  0.00    +0.113 C 
ATOM      3  C   LIG    1       26.104 -20.540   6.668  0.00  0.00    +0.116 A 
ATOM      4  C   LIG    1       27.184 -20.446   7.510  0.00  0.00    +0.182 A 
ATOM      5  N   LIG    1       26.852 -20.803   8.782  0.00  0.00    -0.216 NA
ATOM      6  C   LIG    1       25.574 -21.114   8.723  0.00  0.00    +0.199 A 
ATOM      7  N   LIG    1       28.445 -20.032   7.068  0.00  0.00    -0.216 NA
ATOM      8  C   LIG    1       28.488 -19.748   5.806  0.00  0.00    +0.199 C 
ATOM      9  N   LIG    1       25.074 -20.969   7.457  0.00  0.00    -0.341 N 
ATOM     10  H   LIG    1       24.124 -21.146   7.160  0.00  0.00    +0.167 HD
ATOM     11  N   LIG    1       27.443 -19.819   4.907  0.00  0.00    -0.339 N 
ATOM     12  H   LIG    1       27.587 -19.573   3.938  0.00  0.00    +0.167 HD
ENDROOT
TORSDOF 0
ENDMDL
