MODEL 1
REMARK VINA RESULT:      -3.3      0.000      0.000
REMARK  Name = *****
REMARK                            x       y       z     vdW  Elec       q    Type
REMARK                         _______ _______ _______ _____ _____    ______ ____
ROOT
ATOM      1  C   LIG    1       24.806 -14.157   4.321  0.00  0.00    +0.192 C 
ATOM      2  N   LIG    1       26.237 -14.073   3.788  0.00  0.00    +0.238 N 
ATOM      3  C   LIG    1       26.243 -13.201   2.544  0.00  0.00    +0.192 C 
ATOM      4  C   LIG    1       26.690 -15.484   3.421  0.00  0.00    +0.192 C 
ENDROOT
BRANCH   2   5
ATOM      5  C   LIG    1       27.123 -13.472   4.911  0.00  0.00    +0.160 C 
BRANCH   5   6
ATOM      6  C   LIG    1       28.421 -12.799   4.431  0.00  0.00    +0.206 C 
BRANCH   6   7
ATOM      7  O   LIG    1       28.956 -11.945   5.433  0.00  0.00    -0.390 OA
ATOM      8  H   LIG    1       29.118 -11.075   5.023  0.00  0.00    +0.210 HD
ENDBRANCH   6   7
ENDBRANCH   5   6
ENDBRANCH   2   5
TORSDOF 3
ENDMDL
MODEL 2
REMARK VINA RESULT:      -3.2      0.233      1.657
REMARK  Name = *****
REMARK                            x       y       z     vdW  Elec       q    Type
REMARK                         _______ _______ _______ _____ _____    ______ ____
ROOT
ATOM      1  C   LIG    1       26.302 -13.197   2.527  0.00  0.00    +0.192 C 
ATOM      2  N   LIG    1       26.272 -14.062   3.787  0.00  0.00    +0.238 N 
ATOM      3  C   LIG    1       26.625 -15.490   3.406  0.00  0.00    +0.192 C 
ATOM      4  C   LIG    1       24.855 -14.026   4.355  0.00  0.00    +0.192 C 
ENDROOT
BRANCH   2   5
ATOM      5  C   LIG    1       27.296 -13.469   4.790  0.00  0.00    +0.160 C 
BRANCH   5   6
ATOM      6  C   LIG    1       28.555 -12.854   4.153  0.00  0.00    +0.206 C 
BRANCH   6   7
ATOM      7  O   LIG    1       29.170 -11.921   5.033  0.00  0.00    -0.390 OA
ATOM      8  H   LIG    1       29.775 -11.371   4.501  0.00  0.00    +0.210 HD
ENDBRANCH   6   7
ENDBRANCH   5   6
ENDBRANCH   2   5
TORSDOF 3
ENDMDL
MODEL 3
REMARK VINA RESULT:      -3.2      2.435      3.389
REMARK  Name = *****
REMARK                            x       y       z     vdW  Elec       q    Type
REMARK                         _______ _______ _______ _____ _____    ______ ____
ROOT
ATOM      1  C   LIG    1       27.067 -15.301   3.600  0.00  0.00    +0.192 C 
ATOM      2  N   LIG    1       26.991 -13.782   3.764  0.00  0.00    +0.238 N 
ATOM      3  C   LIG    1       28.401 -13.217   3.724  0.00  0.00    +0.192 C 
ATOM      4  C   LIG    1       26.364 -13.482   5.124  0.00  0.00    +0.192 C 
ENDROOT
BRANCH   2   5
ATOM      5  C   LIG    1       26.120 -13.226   2.608  0.00  0.00    +0.160 C 
BRANCH   5   6
ATOM      6  C   LIG    1       24.609 -13.177   2.892  0.00  0.00    +0.206 C 
BRANCH   6   7
ATOM      7  O   LIG    1       23.964 -12.212   2.071  0.00  0.00    -0.390 OA
ATOM      8  H   LIG    1       24.126 -12.461   1.142  0.00  0.00    +0.210 HD
ENDBRANCH   6   7
ENDBRANCH   5   6
ENDBRANCH   2   5
TORSDOF 3
ENDMDL
MODEL 4
REMARK VINA RESULT:      -3.2      2.462      3.336
REMARK  Name = *****
REMARK                            x       y       z     vdW  Elec       q    Type
REMARK                         _______ _______ _______ _____ _____    ______ ____
ROOT
ATOM      1  C   LIG    1       26.123 -13.529   4.977  0.00  0.00    +0.192 C 
ATOM      2  N   LIG    1       26.741 -13.859   3.618  0.00  0.00    +0.238 N 
ATOM      3  C   LIG    1       26.756 -15.368   3.443  0.00  0.00    +0.192 C 
ATOM      4  C   LIG    1       28.176 -13.334   3.609  0.00  0.00    +0.192 C 
ENDROOT
BRANCH   2   5
ATOM      5  C   LIG    1       25.881 -13.165   2.529  0.00  0.00    +0.160 C 
BRANCH   5   6
ATOM      6  C   LIG    1       24.388 -13.019   2.870  0.00  0.00    +0.206 C 
BRANCH   6   7
ATOM      7  O   LIG    1       23.834 -11.861   2.258  0.00  0.00    -0.390 OA
ATOM      8  H   LIG    1       24.553 -11.411   1.775  0.00  0.00    +0.210 HD
ENDBRANCH   6   7
ENDBRANCH   5   6
ENDBRANCH   2   5
TORSDOF 3
ENDMDL
MODEL 5
REMARK VINA RESULT:      -3.1      1.781      2.383
REMARK  Name = *****
REMARK                            x       y       z     vdW  Elec       q    Type
REMARK                         _______ _______ _______ _____ _____    ______ ____
ROOT
ATOM      1  C   LIG    1       23.862 -14.526   4.083  0.00  0.00    +0.192 C 
ATOM      2  N   LIG    1       24.700 -13.274   3.820  0.00  0.00    +0.238 N 
ATOM      3  C   LIG    1       24.108 -12.118   4.608  0.00  0.00    +0.192 C 
ATOM      4  C   LIG    1       24.629 -12.960   2.327  0.00  0.00    +0.192 C 
ENDROOT
BRANCH   2   5
ATOM      5  C   LIG    1       26.155 -13.581   4.262  0.00  0.00    +0.160 C 
BRANCH   5   6
ATOM      6  C   LIG    1       27.098 -14.042   3.137  0.00  0.00    +0.206 C 
BRANCH   6   7
ATOM      7  O   LIG    1       28.296 -13.277   3.127  0.00  0.00    -0.390 OA
ATOM      8  H   LIG    1       28.651 -13.298   2.219  0.00  0.00    +0.210 HD
ENDBRANCH   6   7
ENDBRANCH   5   6
ENDBRANCH   2   5
TORSDOF 3
ENDMDL
MODEL 6
REMARK VINA RESULT:      -3.1      1.744      2.672
REMARK  Name = *****
REMARK                            x       y       z     vdW  Elec       q    Type
REMARK                         _______ _______ _______ _____ _____    ______ ____
ROOT
ATOM      1  C   LIG    1       24.751 -12.993   2.338  0.00  0.00    +0.192 C 
ATOM      2  N   LIG    1       24.737 -13.321   3.832  0.00  0.00    +0.238 N 
ATOM      3  C   LIG    1       23.862 -14.543   4.054  0.00  0.00    +0.192 C 
ATOM      4  C   LIG    1       24.140 -12.128   4.574  0.00  0.00    +0.192 C 
ENDROOT
BRANCH   2   5
ATOM      5  C   LIG    1       26.202 -13.581   4.270  0.00  0.00    +0.160 C 
BRANCH   5   6
ATOM      6  C   LIG    1       27.161 -13.993   3.138  0.00  0.00    +0.206 C 
BRANCH   6   7
ATOM      7  O   LIG    1       28.364 -13.236   3.185  0.00  0.00    -0.390 OA
ATOM      8  H   LIG    1       28.369 -12.644   2.410  0.00  0.00    +0.210 HD
ENDBRANCH   6   7
ENDBRANCH   5   6
ENDBRANCH   2   5
TORSDOF 3
ENDMDL
MODEL 7
REMARK VINA RESULT:      -3.1      1.749      2.142
REMARK  Name = *****
REMARK                            x       y       z     vdW  Elec       q    Type
REMARK                         _______ _______ _______ _____ _____    ______ ____
ROOT
ATOM      1  C   LIG    1       24.150 -12.153   4.598  0.00  0.00    +0.192 C 
ATOM      2  N   LIG    1       24.739 -13.336   3.827  0.00  0.00    +0.238 N 
ATOM      3  C   LIG    1       24.730 -13.004   2.345  0.00  0.00    +0.192 C 
ATOM      4  C   LIG    1       23.854 -14.555   4.079  0.00  0.00    +0.192 C 
ENDROOT
BRANCH   2   5
ATOM      5  C   LIG    1       26.180 -13.568   4.352  0.00  0.00    +0.160 C 
BRANCH   5   6
ATOM      6  C   LIG    1       27.169 -14.136   3.319  0.00  0.00    +0.206 C 
BRANCH   6   7
ATOM      7  O   LIG    1       28.306 -13.293   3.182  0.00  0.00    -0.390 OA
ATOM      8  H   LIG    1       28.225 -12.827   2.329  0.00  0.00    +0.210 HD
ENDBRANCH   6   7
ENDBRANCH   5   6
ENDBRANCH   2   5
TORSDOF 3
ENDMDL
MODEL 8
REMARK VINA RESULT:      -3.0      6.873      7.796
REMARK  Name = *****
REMARK                            x       y       z     vdW  Elec       q    Type
REMARK                         _______ _______ _______ _____ _____    ______ ____
ROOT
ATOM      1  C   LIG    1       21.779 -21.400   4.904  0.00  0.00    +0.192 C 
ATOM      2  N   LIG    1       22.955 -20.446   5.115  0.00  0.00    +0.238 N 
ATOM      3  C   LIG    1       23.404 -20.539   6.564  0.00  0.00    +0.192 C 
ATOM      4  C   LIG    1       22.473 -19.026   4.825  0.00  0.00    +0.192 C 
ENDROOT
BRANCH   2   5
ATOM      5  C   LIG    1       24.085 -20.867   4.139  0.00  0.00    +0.160 C 
BRANCH   5   6
ATOM      6  C   LIG    1       25.168 -19.802   3.892  0.00  0.00    +0.206 C 
BRANCH   6   7
ATOM      7  O   LIG    1       26.414 -20.200   4.450  0.00  0.00    -0.390 OA
ATOM      8  H   LIG    1       26.532 -19.709   5.285  0.00  0.00    +0.210 HD
ENDBRANCH   6   7
ENDBRANCH   5   6
ENDBRANCH   2   5
TORSDOF 3
ENDMDL
MODEL 9
REMARK VINA RESULT:      -2.8      2.742      3.443
REMARK  Name = *****
REMARK                            x       y       z     vdW  Elec       q    Type
REMARK                         _______ _______ _______ _____ _____    ______ ____
ROOT
ATOM      1  C   LIG    1       26.152 -13.380   5.099  0.00  0.00    +0.192 C 
ATOM      2  N   LIG    1       25.499 -13.665   3.746  0.00  0.00    +0.238 N 
ATOM      3  C   LIG    1       26.424 -13.172   2.646  0.00  0.00    +0.192 C 
ATOM      4  C   LIG    1       24.181 -12.896   3.682  0.00  0.00    +0.192 C 
ENDROOT
BRANCH   2   5
ATOM      5  C   LIG    1       25.262 -15.195   3.650  0.00  0.00    +0.160 C 
BRANCH   5   6
ATOM      6  C   LIG    1       26.518 -16.034   3.354  0.00  0.00    +0.206 C 
BRANCH   6   7
ATOM      7  O   LIG    1       26.177 -17.387   3.079  0.00  0.00    -0.390 OA
ATOM      8  H   LIG    1       26.452 -17.579   2.163  0.00  0.00    +0.210 HD
ENDBRANCH   6   7
ENDBRANCH   5   6
ENDBRANCH   2   5
TORSDOF 3
ENDMDL
