MODEL 1
REMARK VINA RESULT:      -4.1      0.000      0.000
REMARK  Name = *****
REMARK                            x       y       z     vdW  Elec       q    Type
REMARK                         _______ _______ _______ _____ _____    ______ ____
ROOT
ATOM      1  C   LIG    1       22.264 -18.242   4.533  0.00  0.00    +0.000 C 
ENDROOT
BRANCH   1   2
ATOM      2  C   LIG    1       21.993 -16.756   4.765  0.00  0.00    +0.005 C 
BRANCH   2   3
ATOM      3  C   LIG    1       23.180 -15.815   4.479  0.00  0.00    +0.051 C 
BRANCH   3   4
ATOM      4  C   LIG    1       22.927 -14.542   3.616  0.00  0.00    +0.133 C 
BRANCH   4   5
ATOM      5  N   LIG    1       24.161 -13.617   3.355  0.00  0.00    +0.242 N 
ATOM      6  C   LIG    1       24.117 -12.400   4.270  0.00  0.00    +0.192 C 
ATOM      7  C   LIG    1       24.119 -13.236   1.901  0.00  0.00    +0.192 C 
BRANCH   5   8
ATOM      8  C   LIG    1       25.480 -14.437   3.693  0.00  0.00    +0.169 C 
BRANCH   8   9
ATOM      9  C   LIG    1       26.780 -13.716   4.090  0.00  0.00    -0.003 A 
ATOM     10  C   LIG    1       27.669 -13.286   3.093  0.00  0.00    +0.009 A 
ATOM     11  C   LIG    1       28.846 -12.611   3.443  0.00  0.00    +0.001 A 
ATOM     12  C   LIG    1       29.132 -12.298   4.781  0.00  0.00    +0.000 A 
ATOM     13  C   LIG    1       28.261 -12.670   5.761  0.00  0.00    +0.001 A 
ATOM     14  C   LIG    1       27.132 -13.367   5.405  0.00  0.00    +0.009 A 
ENDBRANCH   8   9
ENDBRANCH   5   8
ENDBRANCH   4   5
ENDBRANCH   3   4
ENDBRANCH   2   3
ENDBRANCH   1   2
BRANCH   1  15
ATOM     15  C   LIG    1       23.626 -18.484   3.859  0.00  0.00    -0.000 C 
BRANCH  15  16
ATOM     16  C   LIG    1       24.384 -19.759   4.271  0.00  0.00    -0.000 C 
BRANCH  16  17
ATOM     17  C   LIG    1       23.594 -21.080   4.196  0.00  0.00    -0.000 C 
BRANCH  17  18
ATOM     18  C   LIG    1       23.139 -21.526   5.604  0.00  0.00    -0.000 C 
BRANCH  18  19
ATOM     19  C   LIG    1       23.811 -20.833   6.802  0.00  0.00    -0.000 C 
BRANCH  19  20
ATOM     20  C   LIG    1       25.280 -20.408   6.628  0.00  0.00    -0.000 C 
BRANCH  20  21
ATOM     21  C   LIG    1       26.283 -21.492   6.196  0.00  0.00    -0.000 C 
BRANCH  21  22
ATOM     22  C   LIG    1       27.589 -21.493   7.048  0.00  0.00    -0.000 C 
BRANCH  22  23
ATOM     23  C   LIG    1       28.877 -21.092   6.289  0.00  0.00    -0.000 C 
BRANCH  23  24
ATOM     24  C   LIG    1       29.470 -19.721   6.680  0.00  0.00    -0.000 C 
BRANCH  24  26
ATOM     25  C   LIG    1       27.862 -18.840   4.780  0.00  0.00    +0.004 C 
ATOM     26  C   LIG    1       28.923 -18.549   5.835  0.00  0.00    -0.003 C 
ENDBRANCH  24  26
ENDBRANCH  23  24
ENDBRANCH  22  23
ENDBRANCH  21  22
ENDBRANCH  20  21
ENDBRANCH  19  20
ENDBRANCH  18  19
ENDBRANCH  17  18
ENDBRANCH  16  17
ENDBRANCH  15  16
ENDBRANCH   1  15
TORSDOF 17
ENDMDL
MODEL 2
REMARK VINA RESULT:      -3.5      1.912      8.012
REMARK  Name = *****
REMARK                            x       y       z     vdW  Elec       q    Type
REMARK                         _______ _______ _______ _____ _____    ______ ____
ROOT
ATOM      1  C   LIG    1       27.206 -15.861   3.726  0.00  0.00    +0.000 C 
ENDROOT
BRANCH   1   2
ATOM      2  C   LIG    1       26.195 -16.928   3.308  0.00  0.00    +0.005 C 
BRANCH   2   3
ATOM      3  C   LIG    1       26.400 -18.318   3.941  0.00  0.00    +0.051 C 
BRANCH   3   4
ATOM      4  C   LIG    1       27.681 -18.562   4.795  0.00  0.00    +0.133 C 
BRANCH   4   5
ATOM      5  N   LIG    1       27.713 -19.873   5.648  0.00  0.00    +0.242 N 
ATOM      6  C   LIG    1       27.212 -19.601   7.061  0.00  0.00    +0.192 C 
ATOM      7  C   LIG    1       29.134 -20.365   5.635  0.00  0.00    +0.192 C 
BRANCH   5   8
ATOM      8  C   LIG    1       26.737 -20.931   4.976  0.00  0.00    +0.169 C 
BRANCH   8   9
ATOM      9  C   LIG    1       25.248 -20.991   5.362  0.00  0.00    -0.003 A 
ATOM     10  C   LIG    1       24.289 -21.297   4.384  0.00  0.00    +0.009 A 
ATOM     11  C   LIG    1       22.933 -21.374   4.729  0.00  0.00    +0.001 A 
ATOM     12  C   LIG    1       22.512 -21.210   6.058  0.00  0.00    +0.000 A 
ATOM     13  C   LIG    1       23.433 -20.954   7.030  0.00  0.00    +0.001 A 
ATOM     14  C   LIG    1       24.753 -20.841   6.668  0.00  0.00    +0.009 A 
ENDBRANCH   8   9
ENDBRANCH   5   8
ENDBRANCH   4   5
ENDBRANCH   3   4
ENDBRANCH   2   3
ENDBRANCH   1   2
BRANCH   1  15
ATOM     15  C   LIG    1       27.147 -14.619   2.818  0.00  0.00    -0.000 C 
BRANCH  15  16
ATOM     16  C   LIG    1       27.879 -13.361   3.319  0.00  0.00    -0.000 C 
BRANCH  16  17
ATOM     17  C   LIG    1       27.730 -13.033   4.818  0.00  0.00    -0.000 C 
BRANCH  17  18
ATOM     18  C   LIG    1       26.328 -13.437   5.328  0.00  0.00    -0.000 C 
BRANCH  18  19
ATOM     19  C   LIG    1       25.309 -12.301   5.527  0.00  0.00    -0.000 C 
BRANCH  19  20
ATOM     20  C   LIG    1       24.078 -12.298   4.602  0.00  0.00    -0.000 C 
BRANCH  20  21
ATOM     21  C   LIG    1       24.152 -13.152   3.324  0.00  0.00    -0.000 C 
BRANCH  21  22
ATOM     22  C   LIG    1       23.479 -14.550   3.481  0.00  0.00    -0.000 C 
BRANCH  22  23
ATOM     23  C   LIG    1       23.169 -14.978   4.935  0.00  0.00    -0.000 C 
BRANCH  23  24
ATOM     24  C   LIG    1       22.113 -16.096   5.081  0.00  0.00    -0.000 C 
BRANCH  24  26
ATOM     25  C   LIG    1       21.747 -18.388   3.822  0.00  0.00    +0.004 C 
ATOM     26  C   LIG    1       22.635 -17.494   4.681  0.00  0.00    -0.003 C 
ENDBRANCH  24  26
ENDBRANCH  23  24
ENDBRANCH  22  23
ENDBRANCH  21  22
ENDBRANCH  20  21
ENDBRANCH  19  20
ENDBRANCH  18  19
ENDBRANCH  17  18
ENDBRANCH  16  17
ENDBRANCH  15  16
ENDBRANCH   1  15
TORSDOF 17
ENDMDL
MODEL 3
REMARK VINA RESULT:      -3.2      1.457      3.998
REMARK  Name = *****
REMARK                            x       y       z     vdW  Elec       q    Type
REMARK                         _______ _______ _______ _____ _____    ______ ____
ROOT
ATOM      1  C   LIG    1       23.779 -14.134   3.318  0.00  0.00    +0.000 C 
ENDROOT
BRANCH   1   2
ATOM      2  C   LIG    1       24.080 -12.740   3.869  0.00  0.00    +0.005 C 
BRANCH   2   3
ATOM      3  C   LIG    1       25.257 -12.662   4.859  0.00  0.00    +0.051 C 
BRANCH   3   4
ATOM      4  C   LIG    1       26.644 -12.188   4.328  0.00  0.00    +0.133 C 
BRANCH   4   5
ATOM      5  N   LIG    1       27.899 -12.942   4.878  0.00  0.00    +0.242 N 
ATOM      6  C   LIG    1       27.554 -13.681   6.165  0.00  0.00    +0.192 C 
ATOM      7  C   LIG    1       28.971 -11.909   5.087  0.00  0.00    +0.192 C 
BRANCH   5   8
ATOM      8  C   LIG    1       28.347 -14.019   3.800  0.00  0.00    +0.169 C 
BRANCH   8   9
ATOM      9  C   LIG    1       27.706 -15.418   3.762  0.00  0.00    -0.003 A 
ATOM     10  C   LIG    1       28.352 -16.496   4.386  0.00  0.00    +0.009 A 
ATOM     11  C   LIG    1       27.766 -17.769   4.375  0.00  0.00    +0.001 A 
ATOM     12  C   LIG    1       26.503 -17.981   3.800  0.00  0.00    +0.000 A 
ATOM     13  C   LIG    1       25.840 -16.938   3.226  0.00  0.00    +0.001 A 
ATOM     14  C   LIG    1       26.446 -15.706   3.209  0.00  0.00    +0.009 A 
ENDBRANCH   8   9
ENDBRANCH   5   8
ENDBRANCH   4   5
ENDBRANCH   3   4
ENDBRANCH   2   3
ENDBRANCH   1   2
BRANCH   1  15
ATOM     15  C   LIG    1       23.234 -15.080   4.404  0.00  0.00    -0.000 C 
BRANCH  15  16
ATOM     16  C   LIG    1       22.929 -16.526   3.970  0.00  0.00    -0.000 C 
BRANCH  16  17
ATOM     17  C   LIG    1       21.806 -17.249   4.737  0.00  0.00    -0.000 C 
BRANCH  17  18
ATOM     18  C   LIG    1       21.793 -18.757   4.395  0.00  0.00    -0.000 C 
BRANCH  18  19
ATOM     19  C   LIG    1       23.160 -19.434   4.197  0.00  0.00    -0.000 C 
BRANCH  19  20
ATOM     20  C   LIG    1       23.210 -20.964   4.359  0.00  0.00    -0.000 C 
BRANCH  20  21
ATOM     21  C   LIG    1       23.018 -21.532   5.776  0.00  0.00    -0.000 C 
BRANCH  21  22
ATOM     22  C   LIG    1       23.870 -20.794   6.853  0.00  0.00    -0.000 C 
BRANCH  22  23
ATOM     23  C   LIG    1       25.305 -21.338   7.051  0.00  0.00    -0.000 C 
BRANCH  23  24
ATOM     24  C   LIG    1       26.422 -20.504   6.387  0.00  0.00    -0.000 C 
BRANCH  24  26
ATOM     25  C   LIG    1       28.986 -19.955   6.700  0.00  0.00    +0.004 C 
ATOM     26  C   LIG    1       27.846 -20.965   6.768  0.00  0.00    -0.003 C 
ENDBRANCH  24  26
ENDBRANCH  23  24
ENDBRANCH  22  23
ENDBRANCH  21  22
ENDBRANCH  20  21
ENDBRANCH  19  20
ENDBRANCH  18  19
ENDBRANCH  17  18
ENDBRANCH  16  17
ENDBRANCH  15  16
ENDBRANCH   1  15
TORSDOF 17
ENDMDL
MODEL 4
REMARK VINA RESULT:      -3.0      1.882      6.668
REMARK  Name = *****
REMARK                            x       y       z     vdW  Elec       q    Type
REMARK                         _______ _______ _______ _____ _____    ______ ____
ROOT
ATOM      1  C   LIG    1       25.722 -20.550   6.312  0.00  0.00    +0.000 C 
ENDROOT
BRANCH   1   2
ATOM      2  C   LIG    1       24.855 -21.562   7.059  0.00  0.00    +0.005 C 
BRANCH   2   3
ATOM      3  C   LIG    1       23.336 -21.409   6.853  0.00  0.00    +0.051 C 
BRANCH   3   4
ATOM      4  C   LIG    1       22.809 -20.131   6.134  0.00  0.00    +0.133 C 
BRANCH   4   5
ATOM      5  N   LIG    1       22.364 -20.299   4.643  0.00  0.00    +0.242 N 
ATOM      6  C   LIG    1       21.291 -21.374   4.527  0.00  0.00    +0.192 C 
ATOM      7  C   LIG    1       23.599 -20.643   3.857  0.00  0.00    +0.192 C 
BRANCH   5   8
ATOM      8  C   LIG    1       21.738 -18.925   4.150  0.00  0.00    +0.169 C 
BRANCH   8   9
ATOM      9  C   LIG    1       22.560 -17.624   4.181  0.00  0.00    -0.003 A 
ATOM     10  C   LIG    1       22.030 -16.482   4.800  0.00  0.00    +0.009 A 
ATOM     11  C   LIG    1       22.778 -15.298   4.850  0.00  0.00    +0.001 A 
ATOM     12  C   LIG    1       24.086 -15.244   4.344  0.00  0.00    +0.000 A 
ATOM     13  C   LIG    1       24.635 -16.355   3.776  0.00  0.00    +0.001 A 
ATOM     14  C   LIG    1       23.873 -17.495   3.697  0.00  0.00    +0.009 A 
ENDBRANCH   8   9
ENDBRANCH   5   8
ENDBRANCH   4   5
ENDBRANCH   3   4
ENDBRANCH   2   3
ENDBRANCH   1   2
BRANCH   1  15
ATOM     15  C   LIG    1       27.035 -20.249   7.058  0.00  0.00    -0.000 C 
BRANCH  15  16
ATOM     16  C   LIG    1       28.331 -20.316   6.230  0.00  0.00    -0.000 C 
BRANCH  16  17
ATOM     17  C   LIG    1       29.471 -19.374   6.663  0.00  0.00    -0.000 C 
BRANCH  17  18
ATOM     18  C   LIG    1       29.462 -18.080   5.817  0.00  0.00    -0.000 C 
BRANCH  18  19
ATOM     19  C   LIG    1       28.498 -18.042   4.618  0.00  0.00    -0.000 C 
BRANCH  19  20
ATOM     20  C   LIG    1       27.684 -16.751   4.419  0.00  0.00    -0.000 C 
BRANCH  20  21
ATOM     21  C   LIG    1       28.460 -15.422   4.389  0.00  0.00    -0.000 C 
BRANCH  21  22
ATOM     22  C   LIG    1       27.556 -14.191   4.080  0.00  0.00    -0.000 C 
BRANCH  22  23
ATOM     23  C   LIG    1       27.019 -14.109   2.631  0.00  0.00    -0.000 C 
BRANCH  23  24
ATOM     24  C   LIG    1       26.340 -12.773   2.255  0.00  0.00    -0.000 C 
BRANCH  24  26
ATOM     25  C   LIG    1       23.750 -12.286   2.424  0.00  0.00    +0.004 C 
ATOM     26  C   LIG    1       25.099 -12.449   3.116  0.00  0.00    -0.003 C 
ENDBRANCH  24  26
ENDBRANCH  23  24
ENDBRANCH  22  23
ENDBRANCH  21  22
ENDBRANCH  20  21
ENDBRANCH  19  20
ENDBRANCH  18  19
ENDBRANCH  17  18
ENDBRANCH  16  17
ENDBRANCH  15  16
ENDBRANCH   1  15
TORSDOF 17
ENDMDL
MODEL 5
REMARK VINA RESULT:      -2.8      1.763      7.064
REMARK  Name = *****
REMARK                            x       y       z     vdW  Elec       q    Type
REMARK                         _______ _______ _______ _____ _____    ______ ____
ROOT
ATOM      1  C   LIG    1       22.322 -16.446   4.550  0.00  0.00    +0.000 C 
ENDROOT
BRANCH   1   2
ATOM      2  C   LIG    1       22.737 -17.912   4.433  0.00  0.00    +0.005 C 
BRANCH   2   3
ATOM      3  C   LIG    1       24.067 -18.166   3.698  0.00  0.00    +0.051 C 
BRANCH   3   4
ATOM      4  C   LIG    1       24.995 -19.306   4.214  0.00  0.00    +0.133 C 
BRANCH   4   5
ATOM      5  N   LIG    1       24.291 -20.619   4.691  0.00  0.00    +0.242 N 
ATOM      6  C   LIG    1       24.089 -21.570   3.519  0.00  0.00    +0.192 C 
ATOM      7  C   LIG    1       22.989 -20.210   5.322  0.00  0.00    +0.192 C 
BRANCH   5   8
ATOM      8  C   LIG    1       25.236 -21.337   5.748  0.00  0.00    +0.169 C 
BRANCH   8   9
ATOM      9  C   LIG    1       26.687 -20.870   5.959  0.00  0.00    -0.003 A 
ATOM     10  C   LIG    1       27.140 -19.701   5.330  0.00  0.00    +0.009 A 
ATOM     11  C   LIG    1       28.453 -19.257   5.532  0.00  0.00    +0.001 A 
ATOM     12  C   LIG    1       29.320 -19.929   6.408  0.00  0.00    +0.000 A 
ATOM     13  C   LIG    1       28.886 -21.043   7.062  0.00  0.00    +0.001 A 
ATOM     14  C   LIG    1       27.609 -21.489   6.821  0.00  0.00    +0.009 A 
ENDBRANCH   8   9
ENDBRANCH   5   8
ENDBRANCH   4   5
ENDBRANCH   3   4
ENDBRANCH   2   3
ENDBRANCH   1   2
BRANCH   1  15
ATOM     15  C   LIG    1       23.393 -15.494   3.986  0.00  0.00    -0.000 C 
BRANCH  15  16
ATOM     16  C   LIG    1       23.197 -13.992   4.264  0.00  0.00    -0.000 C 
BRANCH  16  17
ATOM     17  C   LIG    1       23.816 -13.020   3.241  0.00  0.00    -0.000 C 
BRANCH  17  18
ATOM     18  C   LIG    1       24.434 -11.796   3.956  0.00  0.00    -0.000 C 
BRANCH  18  19
ATOM     19  C   LIG    1       24.966 -12.022   5.382  0.00  0.00    -0.000 C 
BRANCH  19  20
ATOM     20  C   LIG    1       25.883 -13.239   5.601  0.00  0.00    -0.000 C 
BRANCH  20  21
ATOM     21  C   LIG    1       27.395 -13.028   5.412  0.00  0.00    -0.000 C 
BRANCH  21  22
ATOM     22  C   LIG    1       27.763 -12.458   4.008  0.00  0.00    -0.000 C 
BRANCH  22  23
ATOM     23  C   LIG    1       28.002 -13.515   2.904  0.00  0.00    -0.000 C 
BRANCH  23  24
ATOM     24  C   LIG    1       26.766 -14.358   2.522  0.00  0.00    -0.000 C 
BRANCH  24  26
ATOM     25  C   LIG    1       27.771 -16.096   4.238  0.00  0.00    +0.004 C 
ATOM     26  C   LIG    1       26.599 -15.632   3.380  0.00  0.00    -0.003 C 
ENDBRANCH  24  26
ENDBRANCH  23  24
ENDBRANCH  22  23
ENDBRANCH  21  22
ENDBRANCH  20  21
ENDBRANCH  19  20
ENDBRANCH  18  19
ENDBRANCH  17  18
ENDBRANCH  16  17
ENDBRANCH  15  16
ENDBRANCH   1  15
TORSDOF 17
ENDMDL
MODEL 6
REMARK VINA RESULT:      -2.5      1.302      5.058
REMARK  Name = *****
REMARK                            x       y       z     vdW  Elec       q    Type
REMARK                         _______ _______ _______ _____ _____    ______ ____
ROOT
ATOM      1  C   LIG    1       26.936 -16.002   3.921  0.00  0.00    +0.000 C 
ENDROOT
BRANCH   1   2
ATOM      2  C   LIG    1       27.603 -14.835   3.195  0.00  0.00    +0.005 C 
BRANCH   2   3
ATOM      3  C   LIG    1       27.353 -13.444   3.810  0.00  0.00    +0.051 C 
BRANCH   3   4
ATOM      4  C   LIG    1       26.478 -12.427   3.015  0.00  0.00    +0.133 C 
BRANCH   4   5
ATOM      5  N   LIG    1       24.946 -12.731   2.941  0.00  0.00    +0.242 N 
ATOM      6  C   LIG    1       24.680 -13.901   2.002  0.00  0.00    +0.192 C 
ATOM      7  C   LIG    1       24.274 -11.468   2.478  0.00  0.00    +0.192 C 
BRANCH   5   8
ATOM      8  C   LIG    1       24.447 -13.143   4.392  0.00  0.00    +0.169 C 
BRANCH   8   9
ATOM      9  C   LIG    1       23.681 -14.458   4.622  0.00  0.00    -0.003 A 
ATOM     10  C   LIG    1       22.665 -14.510   5.589  0.00  0.00    +0.009 A 
ATOM     11  C   LIG    1       21.948 -15.697   5.792  0.00  0.00    +0.001 A 
ATOM     12  C   LIG    1       22.183 -16.832   5.000  0.00  0.00    +0.000 A 
ATOM     13  C   LIG    1       23.137 -16.789   4.028  0.00  0.00    +0.001 A 
ATOM     14  C   LIG    1       23.859 -15.631   3.869  0.00  0.00    +0.009 A 
ENDBRANCH   8   9
ENDBRANCH   5   8
ENDBRANCH   4   5
ENDBRANCH   3   4
ENDBRANCH   2   3
ENDBRANCH   1   2
BRANCH   1  15
ATOM     15  C   LIG    1       27.866 -17.223   4.033  0.00  0.00    -0.000 C 
BRANCH  15  16
ATOM     16  C   LIG    1       28.647 -17.379   5.350  0.00  0.00    -0.000 C 
BRANCH  16  17
ATOM     17  C   LIG    1       29.474 -18.670   5.509  0.00  0.00    -0.000 C 
BRANCH  17  18
ATOM     18  C   LIG    1       29.184 -19.340   6.871  0.00  0.00    -0.000 C 
BRANCH  18  19
ATOM     19  C   LIG    1       29.094 -20.876   6.883  0.00  0.00    -0.000 C 
BRANCH  19  20
ATOM     20  C   LIG    1       27.694 -21.492   7.060  0.00  0.00    -0.000 C 
BRANCH  20  21
ATOM     21  C   LIG    1       26.490 -20.656   6.591  0.00  0.00    -0.000 C 
BRANCH  21  22
ATOM     22  C   LIG    1       26.368 -20.572   5.039  0.00  0.00    -0.000 C 
BRANCH  22  23
ATOM     23  C   LIG    1       25.147 -19.782   4.511  0.00  0.00    -0.000 C 
BRANCH  23  24
ATOM     24  C   LIG    1       24.046 -20.638   3.847  0.00  0.00    -0.000 C 
BRANCH  24  26
ATOM     25  C   LIG    1       22.470 -19.911   5.836  0.00  0.00    +0.004 C 
ATOM     26  C   LIG    1       22.853 -20.941   4.780  0.00  0.00    -0.003 C 
ENDBRANCH  24  26
ENDBRANCH  23  24
ENDBRANCH  22  23
ENDBRANCH  21  22
ENDBRANCH  20  21
ENDBRANCH  19  20
ENDBRANCH  18  19
ENDBRANCH  17  18
ENDBRANCH  16  17
ENDBRANCH  15  16
ENDBRANCH   1  15
TORSDOF 17
ENDMDL
MODEL 7
REMARK VINA RESULT:      -2.2      2.157      7.770
REMARK  Name = *****
REMARK                            x       y       z     vdW  Elec       q    Type
REMARK                         _______ _______ _______ _____ _____    ______ ____
ROOT
ATOM      1  C   LIG    1       26.047 -17.843   3.357  0.00  0.00    +0.000 C 
ENDROOT
BRANCH   1   2
ATOM      2  C   LIG    1       25.745 -19.313   3.645  0.00  0.00    +0.005 C 
BRANCH   2   3
ATOM      3  C   LIG    1       26.513 -19.924   4.832  0.00  0.00    +0.051 C 
BRANCH   3   4
ATOM      4  C   LIG    1       25.695 -20.485   6.035  0.00  0.00    +0.133 C 
BRANCH   4   5
ATOM      5  N   LIG    1       24.184 -20.791   5.772  0.00  0.00    +0.242 N 
ATOM      6  C   LIG    1       23.588 -21.570   6.937  0.00  0.00    +0.192 C 
ATOM      7  C   LIG    1       24.114 -21.558   4.481  0.00  0.00    +0.192 C 
BRANCH   5   8
ATOM      8  C   LIG    1       23.407 -19.410   5.658  0.00  0.00    +0.169 C 
BRANCH   8   9
ATOM      9  C   LIG    1       22.111 -19.296   4.836  0.00  0.00    -0.003 A 
ATOM     10  C   LIG    1       21.820 -18.102   4.159  0.00  0.00    +0.009 A 
ATOM     11  C   LIG    1       20.652 -17.995   3.392  0.00  0.00    +0.001 A 
ATOM     12  C   LIG    1       19.785 -19.088   3.233  0.00  0.00    +0.000 A 
ATOM     13  C   LIG    1       20.072 -20.269   3.848  0.00  0.00    +0.001 A 
ATOM     14  C   LIG    1       21.199 -20.345   4.630  0.00  0.00    +0.009 A 
ENDBRANCH   8   9
ENDBRANCH   5   8
ENDBRANCH   4   5
ENDBRANCH   3   4
ENDBRANCH   2   3
ENDBRANCH   1   2
BRANCH   1  15
ATOM     15  C   LIG    1       24.770 -16.981   3.339  0.00  0.00    -0.000 C 
BRANCH  15  16
ATOM     16  C   LIG    1       24.850 -15.614   4.041  0.00  0.00    -0.000 C 
BRANCH  16  17
ATOM     17  C   LIG    1       23.548 -14.791   4.090  0.00  0.00    -0.000 C 
BRANCH  17  18
ATOM     18  C   LIG    1       23.858 -13.277   4.117  0.00  0.00    -0.000 C 
BRANCH  18  19
ATOM     19  C   LIG    1       24.190 -12.612   2.770  0.00  0.00    -0.000 C 
BRANCH  19  20
ATOM     20  C   LIG    1       25.673 -12.567   2.360  0.00  0.00    -0.000 C 
BRANCH  20  21
ATOM     21  C   LIG    1       26.357 -13.906   2.033  0.00  0.00    -0.000 C 
BRANCH  21  22
ATOM     22  C   LIG    1       27.745 -14.070   2.726  0.00  0.00    -0.000 C 
BRANCH  22  23
ATOM     23  C   LIG    1       28.380 -12.764   3.258  0.00  0.00    -0.000 C 
BRANCH  23  24
ATOM     24  C   LIG    1       28.413 -12.627   4.796  0.00  0.00    -0.000 C 
BRANCH  24  26
ATOM     25  C   LIG    1       26.349 -13.186   6.345  0.00  0.00    +0.004 C 
ATOM     26  C   LIG    1       27.541 -13.671   5.527  0.00  0.00    -0.003 C 
ENDBRANCH  24  26
ENDBRANCH  23  24
ENDBRANCH  22  23
ENDBRANCH  21  22
ENDBRANCH  20  21
ENDBRANCH  19  20
ENDBRANCH  18  19
ENDBRANCH  17  18
ENDBRANCH  16  17
ENDBRANCH  15  16
ENDBRANCH   1  15
TORSDOF 17
ENDMDL
MODEL 8
REMARK VINA RESULT:      -2.1      1.820      7.296
REMARK  Name = *****
REMARK                            x       y       z     vdW  Elec       q    Type
REMARK                         _______ _______ _______ _____ _____    ______ ____
ROOT
ATOM      1  C   LIG    1       24.181 -15.770   3.955  0.00  0.00    +0.000 C 
ENDROOT
BRANCH   1   2
ATOM      2  C   LIG    1       23.665 -16.993   4.711  0.00  0.00    +0.005 C 
BRANCH   2   3
ATOM      3  C   LIG    1       22.462 -17.709   4.068  0.00  0.00    +0.051 C 
BRANCH   3   4
ATOM      4  C   LIG    1       22.631 -19.194   3.627  0.00  0.00    +0.133 C 
BRANCH   4   5
ATOM      5  N   LIG    1       22.850 -20.242   4.767  0.00  0.00    +0.242 N 
ATOM      6  C   LIG    1       21.711 -21.253   4.786  0.00  0.00    +0.192 C 
ATOM      7  C   LIG    1       22.945 -19.471   6.054  0.00  0.00    +0.192 C 
BRANCH   5   8
ATOM      8  C   LIG    1       24.198 -21.029   4.472  0.00  0.00    +0.169 C 
BRANCH   8   9
ATOM      9  C   LIG    1       25.500 -20.674   5.212  0.00  0.00    -0.003 A 
ATOM     10  C   LIG    1       25.837 -21.355   6.392  0.00  0.00    +0.009 A 
ATOM     11  C   LIG    1       27.030 -21.054   7.062  0.00  0.00    +0.001 A 
ATOM     12  C   LIG    1       27.938 -20.117   6.543  0.00  0.00    +0.000 A 
ATOM     13  C   LIG    1       27.648 -19.474   5.376  0.00  0.00    +0.001 A 
ATOM     14  C   LIG    1       26.456 -19.751   4.753  0.00  0.00    +0.009 A 
ENDBRANCH   8   9
ENDBRANCH   5   8
ENDBRANCH   4   5
ENDBRANCH   3   4
ENDBRANCH   2   3
ENDBRANCH   1   2
BRANCH   1  15
ATOM     15  C   LIG    1       25.621 -15.967   3.448  0.00  0.00    -0.000 C 
BRANCH  15  16
ATOM     16  C   LIG    1       26.090 -15.031   2.319  0.00  0.00    -0.000 C 
BRANCH  16  17
ATOM     17  C   LIG    1       25.996 -13.518   2.599  0.00  0.00    -0.000 C 
BRANCH  17  18
ATOM     18  C   LIG    1       24.824 -12.889   1.812  0.00  0.00    -0.000 C 
BRANCH  18  19
ATOM     19  C   LIG    1       24.031 -11.776   2.519  0.00  0.00    -0.000 C 
BRANCH  19  20
ATOM     20  C   LIG    1       23.694 -11.996   4.005  0.00  0.00    -0.000 C 
BRANCH  20  21
ATOM     21  C   LIG    1       24.842 -11.856   5.019  0.00  0.00    -0.000 C 
BRANCH  21  22
ATOM     22  C   LIG    1       25.084 -13.149   5.855  0.00  0.00    -0.000 C 
BRANCH  22  23
ATOM     23  C   LIG    1       26.518 -13.322   6.411  0.00  0.00    -0.000 C 
BRANCH  23  24
ATOM     24  C   LIG    1       27.584 -13.720   5.367  0.00  0.00    -0.000 C 
BRANCH  24  26
ATOM     25  C   LIG    1       29.219 -12.509   3.684  0.00  0.00    +0.004 C 
ATOM     26  C   LIG    1       28.613 -12.604   5.080  0.00  0.00    -0.003 C 
ENDBRANCH  24  26
ENDBRANCH  23  24
ENDBRANCH  22  23
ENDBRANCH  21  22
ENDBRANCH  20  21
ENDBRANCH  19  20
ENDBRANCH  18  19
ENDBRANCH  17  18
ENDBRANCH  16  17
ENDBRANCH  15  16
ENDBRANCH   1  15
TORSDOF 17
ENDMDL
MODEL 9
REMARK VINA RESULT:      -1.8      2.047      7.959
REMARK  Name = *****
REMARK                            x       y       z     vdW  Elec       q    Type
REMARK                         _______ _______ _______ _____ _____    ______ ____
ROOT
ATOM      1  C   LIG    1       26.546 -16.565   3.395  0.00  0.00    +0.000 C 
ENDROOT
BRANCH   1   2
ATOM      2  C   LIG    1       27.713 -16.453   4.376  0.00  0.00    +0.005 C 
BRANCH   2   3
ATOM      3  C   LIG    1       28.436 -17.775   4.694  0.00  0.00    +0.051 C 
BRANCH   3   4
ATOM      4  C   LIG    1       27.576 -19.049   4.956  0.00  0.00    +0.133 C 
BRANCH   4   5
ATOM      5  N   LIG    1       28.068 -20.004   6.093  0.00  0.00    +0.242 N 
ATOM      6  C   LIG    1       28.977 -19.256   7.060  0.00  0.00    +0.192 C 
ATOM      7  C   LIG    1       28.773 -21.151   5.423  0.00  0.00    +0.192 C 
BRANCH   5   8
ATOM      8  C   LIG    1       26.800 -20.510   6.905  0.00  0.00    +0.169 C 
BRANCH   8   9
ATOM      9  C   LIG    1       25.409 -20.565   6.248  0.00  0.00    -0.003 A 
ATOM     10  C   LIG    1       24.261 -20.607   7.053  0.00  0.00    +0.009 A 
ATOM     11  C   LIG    1       22.990 -20.637   6.465  0.00  0.00    +0.001 A 
ATOM     12  C   LIG    1       22.833 -20.564   5.071  0.00  0.00    +0.000 A 
ATOM     13  C   LIG    1       23.934 -20.480   4.273  0.00  0.00    +0.001 A 
ATOM     14  C   LIG    1       25.175 -20.493   4.864  0.00  0.00    +0.009 A 
ENDBRANCH   8   9
ENDBRANCH   5   8
ENDBRANCH   4   5
ENDBRANCH   3   4
ENDBRANCH   2   3
ENDBRANCH   1   2
BRANCH   1  15
ATOM     15  C   LIG    1       25.236 -16.015   3.988  0.00  0.00    -0.000 C 
BRANCH  15  16
ATOM     16  C   LIG    1       24.424 -15.057   3.098  0.00  0.00    -0.000 C 
BRANCH  16  17
ATOM     17  C   LIG    1       25.229 -14.010   2.304  0.00  0.00    -0.000 C 
BRANCH  17  18
ATOM     18  C   LIG    1       24.309 -12.870   1.812  0.00  0.00    -0.000 C 
BRANCH  18  19
ATOM     19  C   LIG    1       24.326 -11.564   2.626  0.00  0.00    -0.000 C 
BRANCH  19  20
ATOM     20  C   LIG    1       23.656 -11.597   4.011  0.00  0.00    -0.000 C 
BRANCH  20  21
ATOM     21  C   LIG    1       24.259 -12.539   5.067  0.00  0.00    -0.000 C 
BRANCH  21  22
ATOM     22  C   LIG    1       25.707 -12.141   5.489  0.00  0.00    -0.000 C 
BRANCH  22  23
ATOM     23  C   LIG    1       26.733 -13.299   5.514  0.00  0.00    -0.000 C 
BRANCH  23  24
ATOM     24  C   LIG    1       28.214 -12.867   5.432  0.00  0.00    -0.000 C 
BRANCH  24  26
ATOM     25  C   LIG    1       27.793 -12.754   2.828  0.00  0.00    +0.004 C 
ATOM     26  C   LIG    1       28.773 -12.851   3.992  0.00  0.00    -0.003 C 
ENDBRANCH  24  26
ENDBRANCH  23  24
ENDBRANCH  22  23
ENDBRANCH  21  22
ENDBRANCH  20  21
ENDBRANCH  19  20
ENDBRANCH  18  19
ENDBRANCH  17  18
ENDBRANCH  16  17
ENDBRANCH  15  16
ENDBRANCH   1  15
TORSDOF 17
ENDMDL
