MODEL 1
REMARK VINA RESULT:      -7.5      0.000      0.000
REMARK  Name = *****
REMARK                            x       y       z     vdW  Elec       q    Type
REMARK                         _______ _______ _______ _____ _____    ______ ____
ROOT
ATOM      1  C   LIG    1       27.813 -20.328   7.360  0.00  0.00    +0.034 A 
ATOM      2  C   LIG    1       27.200 -20.355   6.098  0.00  0.00    +0.038 A 
ATOM      3  C   LIG    1       25.800 -20.496   5.974  0.00  0.00    +0.060 A 
ATOM      4  C   LIG    1       25.010 -20.634   7.136  0.00  0.00    +0.131 A 
ATOM      5  C   LIG    1       25.652 -20.624   8.375  0.00  0.00    +0.048 A 
ATOM      6  C   LIG    1       27.022 -20.488   8.480  0.00  0.00    +0.027 A 
ENDROOT
BRANCH   1   8
ATOM      7  C   LIG    1       29.878 -19.055   6.842  0.00  0.00    +0.217 C 
ATOM      8  N   LIG    1       29.197 -20.126   7.438  0.00  0.00    -0.285 N 
ATOM      9  H   LIG    1       29.747 -20.822   7.912  0.00  0.00    +0.155 HD
ATOM     10  O   LIG    1       29.406 -18.151   6.179  0.00  0.00    -0.276 OA
BRANCH   7  11
ATOM     11  C   LIG    1       31.375 -19.125   7.046  0.00  0.00    +0.096 C 
BRANCH  11  13
ATOM     12  C   LIG    1       31.149 -17.721   9.100  0.00  0.00    +0.004 C 
ATOM     13  C   LIG    1       31.681 -19.023   8.532  0.00  0.00    +0.006 C 
ENDBRANCH  11  13
ENDBRANCH   7  11
ENDBRANCH   1   8
BRANCH   3  14
ATOM     14  C   LIG    1       25.223 -20.501   4.587  0.00  0.00    +0.164 C 
ATOM     15  O   LIG    1       24.661 -21.499   4.139  0.00  0.00    -0.292 OA
ATOM     16  C   LIG    1       25.373 -19.251   3.737  0.00  0.00    +0.091 C 
ENDBRANCH   3  14
BRANCH   4  17
ATOM     17  O   LIG    1       23.645 -20.732   7.047  0.00  0.00    -0.489 OA
BRANCH  17  18
ATOM     18  C   LIG    1       22.983 -21.830   7.718  0.00  0.00    +0.261 C 
BRANCH  18  19
ATOM     19  C   LIG    1       22.384 -22.862   6.737  0.00  0.00    +0.166 C 
BRANCH  19  20
ATOM     20  O   LIG    1       22.178 -22.308   5.436  0.00  0.00    -0.387 OA
ATOM     21  H   LIG    1       23.012 -21.846   5.221  0.00  0.00    +0.210 HD
ENDBRANCH  19  20
BRANCH  19  22
ATOM     22  C   LIG    1       23.259 -24.125   6.642  0.00  0.00    +0.115 C 
BRANCH  22  23
ATOM     23  N   LIG    1       24.149 -24.116   5.467  0.00  0.00    -0.311 NA
ATOM     24  H   LIG    1       24.220 -23.149   5.120  0.00  0.00    +0.122 HD
BRANCH  23  25
ATOM     25  C   LIG    1       25.500 -24.609   5.768  0.00  0.00    +0.048 C 
ATOM     26  C   LIG    1       25.581 -26.137   5.735  0.00  0.00    +0.024 C 
ATOM     27  C   LIG    1       25.923 -24.110   7.154  0.00  0.00    +0.024 C 
ENDBRANCH  23  25
ENDBRANCH  22  23
ENDBRANCH  19  22
ENDBRANCH  18  19
ENDBRANCH  17  18
ENDBRANCH   4  17
TORSDOF 11
ENDMDL
MODEL 2
REMARK VINA RESULT:      -7.5      2.022      7.012
REMARK  Name = *****
REMARK                            x       y       z     vdW  Elec       q    Type
REMARK                         _______ _______ _______ _____ _____    ______ ____
ROOT
ATOM      1  C   LIG    1       25.080 -24.306   6.135  0.00  0.00    +0.034 A 
ATOM      2  C   LIG    1       24.596 -23.236   5.367  0.00  0.00    +0.038 A 
ATOM      3  C   LIG    1       24.979 -21.906   5.650  0.00  0.00    +0.060 A 
ATOM      4  C   LIG    1       25.845 -21.650   6.737  0.00  0.00    +0.131 A 
ATOM      5  C   LIG    1       26.292 -22.733   7.494  0.00  0.00    +0.048 A 
ATOM      6  C   LIG    1       25.906 -24.027   7.205  0.00  0.00    +0.027 A 
ENDROOT
BRANCH   1   8
ATOM      7  C   LIG    1       25.633 -26.620   5.434  0.00  0.00    +0.217 C 
ATOM      8  N   LIG    1       24.722 -25.612   5.780  0.00  0.00    -0.285 N 
ATOM      9  H   LIG    1       23.741 -25.830   5.721  0.00  0.00    +0.155 HD
ATOM     10  O   LIG    1       26.845 -26.540   5.383  0.00  0.00    -0.276 OA
BRANCH   7  11
ATOM     11  C   LIG    1       24.956 -27.915   5.042  0.00  0.00    +0.096 C 
BRANCH  11  13
ATOM     12  C   LIG    1       25.153 -28.830   7.358  0.00  0.00    +0.004 C 
ATOM     13  C   LIG    1       24.196 -28.462   6.240  0.00  0.00    +0.006 C 
ENDBRANCH  11  13
ENDBRANCH   7  11
ENDBRANCH   1   8
BRANCH   3  14
ATOM     14  C   LIG    1       24.427 -20.822   4.770  0.00  0.00    +0.164 C 
ATOM     15  O   LIG    1       25.079 -20.381   3.824  0.00  0.00    -0.292 OA
ATOM     16  C   LIG    1       23.052 -20.261   5.090  0.00  0.00    +0.091 C 
ENDBRANCH   3  14
BRANCH   4  17
ATOM     17  O   LIG    1       26.266 -20.373   7.010  0.00  0.00    -0.489 OA
BRANCH  17  18
ATOM     18  C   LIG    1       27.652 -20.162   7.365  0.00  0.00    +0.261 C 
BRANCH  18  19
ATOM     19  C   LIG    1       28.563 -19.946   6.136  0.00  0.00    +0.166 C 
BRANCH  19  20
ATOM     20  O   LIG    1       27.812 -19.802   4.930  0.00  0.00    -0.387 OA
ATOM     21  H   LIG    1       28.114 -18.959   4.540  0.00  0.00    +0.210 HD
ENDBRANCH  19  20
BRANCH  19  22
ATOM     22  C   LIG    1       29.492 -18.733   6.329  0.00  0.00    +0.115 C 
BRANCH  22  23
ATOM     23  N   LIG    1       30.894 -19.121   6.572  0.00  0.00    -0.311 NA
ATOM     24  H   LIG    1       31.502 -18.510   6.009  0.00  0.00    +0.122 HD
BRANCH  23  25
ATOM     25  C   LIG    1       31.284 -19.005   7.983  0.00  0.00    +0.048 C 
ATOM     26  C   LIG    1       31.163 -20.335   8.731  0.00  0.00    +0.024 C 
ATOM     27  C   LIG    1       30.399 -17.957   8.667  0.00  0.00    +0.024 C 
ENDBRANCH  23  25
ENDBRANCH  22  23
ENDBRANCH  19  22
ENDBRANCH  18  19
ENDBRANCH  17  18
ENDBRANCH   4  17
TORSDOF 11
ENDMDL
MODEL 3
REMARK VINA RESULT:      -7.4      1.796      3.385
REMARK  Name = *****
REMARK                            x       y       z     vdW  Elec       q    Type
REMARK                         _______ _______ _______ _____ _____    ______ ____
ROOT
ATOM      1  C   LIG    1       29.766 -19.086   7.616  0.00  0.00    +0.034 A 
ATOM      2  C   LIG    1       28.747 -19.734   8.332  0.00  0.00    +0.038 A 
ATOM      3  C   LIG    1       27.634 -20.294   7.666  0.00  0.00    +0.060 A 
ATOM      4  C   LIG    1       27.535 -20.178   6.261  0.00  0.00    +0.131 A 
ATOM      5  C   LIG    1       28.553 -19.510   5.581  0.00  0.00    +0.048 A 
ATOM      6  C   LIG    1       29.634 -18.966   6.247  0.00  0.00    +0.027 A 
ENDROOT
BRANCH   1   8
ATOM      7  C   LIG    1       30.861 -17.491   9.167  0.00  0.00    +0.217 C 
ATOM      8  N   LIG    1       30.880 -18.601   8.311  0.00  0.00    -0.285 N 
ATOM      9  H   LIG    1       31.766 -19.049   8.148  0.00  0.00    +0.155 HD
ATOM     10  O   LIG    1       29.912 -16.783   9.445  0.00  0.00    -0.276 OA
BRANCH   7  11
ATOM     11  C   LIG    1       32.225 -17.164   9.735  0.00  0.00    +0.096 C 
BRANCH  11  13
ATOM     12  C   LIG    1       32.028 -16.766  12.194  0.00  0.00    +0.004 C 
ATOM     13  C   LIG    1       32.071 -16.114  10.825  0.00  0.00    +0.006 C 
ENDBRANCH  11  13
ENDBRANCH   7  11
ENDBRANCH   1   8
BRANCH   3  14
ATOM     14  C   LIG    1       26.597 -20.982   8.506  0.00  0.00    +0.164 C 
ATOM     15  O   LIG    1       25.972 -20.368   9.369  0.00  0.00    -0.292 OA
ATOM     16  C   LIG    1       26.354 -22.465   8.283  0.00  0.00    +0.091 C 
ENDBRANCH   3  14
BRANCH   4  17
ATOM     17  O   LIG    1       26.486 -20.746   5.585  0.00  0.00    -0.489 OA
BRANCH  17  18
ATOM     18  C   LIG    1       25.642 -19.896   4.774  0.00  0.00    +0.261 C 
BRANCH  18  19
ATOM     19  C   LIG    1       24.242 -20.498   4.524  0.00  0.00    +0.166 C 
BRANCH  19  20
ATOM     20  O   LIG    1       24.006 -20.751   3.138  0.00  0.00    -0.387 OA
ATOM     21  H   LIG    1       24.405 -19.991   2.670  0.00  0.00    +0.210 HD
ENDBRANCH  19  20
BRANCH  19  22
ATOM     22  C   LIG    1       24.027 -21.785   5.341  0.00  0.00    +0.115 C 
BRANCH  22  23
ATOM     23  N   LIG    1       24.675 -22.962   4.734  0.00  0.00    -0.311 NA
ATOM     24  H   LIG    1       25.599 -22.678   4.382  0.00  0.00    +0.122 HD
BRANCH  23  25
ATOM     25  C   LIG    1       24.850 -24.071   5.680  0.00  0.00    +0.048 C 
ATOM     26  C   LIG    1       25.115 -25.402   4.973  0.00  0.00    +0.024 C 
ATOM     27  C   LIG    1       23.592 -24.200   6.546  0.00  0.00    +0.024 C 
ENDBRANCH  23  25
ENDBRANCH  22  23
ENDBRANCH  19  22
ENDBRANCH  18  19
ENDBRANCH  17  18
ENDBRANCH   4  17
TORSDOF 11
ENDMDL
MODEL 4
REMARK VINA RESULT:      -7.4      1.195      1.260
REMARK  Name = *****
REMARK                            x       y       z     vdW  Elec       q    Type
REMARK                         _______ _______ _______ _____ _____    ______ ____
ROOT
ATOM      1  C   LIG    1       27.774 -20.158   7.169  0.00  0.00    +0.034 A 
ATOM      2  C   LIG    1       27.100 -20.234   5.941  0.00  0.00    +0.038 A 
ATOM      3  C   LIG    1       25.708 -20.472   5.889  0.00  0.00    +0.060 A 
ATOM      4  C   LIG    1       24.990 -20.657   7.092  0.00  0.00    +0.131 A 
ATOM      5  C   LIG    1       25.693 -20.596   8.296  0.00  0.00    +0.048 A 
ATOM      6  C   LIG    1       27.054 -20.365   8.329  0.00  0.00    +0.027 A 
ENDROOT
BRANCH   1   8
ATOM      7  C   LIG    1       30.096 -20.522   7.958  0.00  0.00    +0.217 C 
ATOM      8  N   LIG    1       29.142 -19.860   7.174  0.00  0.00    -0.285 N 
ATOM      9  H   LIG    1       29.456 -19.085   6.614  0.00  0.00    +0.155 HD
ATOM     10  O   LIG    1       29.912 -21.435   8.740  0.00  0.00    -0.276 OA
BRANCH   7  11
ATOM     11  C   LIG    1       31.488 -19.949   7.800  0.00  0.00    +0.096 C 
BRANCH  11  13
ATOM     12  C   LIG    1       31.506 -18.162   9.546  0.00  0.00    +0.004 C 
ATOM     13  C   LIG    1       31.442 -18.451   8.058  0.00  0.00    +0.006 C 
ENDBRANCH  11  13
ENDBRANCH   7  11
ENDBRANCH   1   8
BRANCH   3  14
ATOM     14  C   LIG    1       25.062 -20.525   4.535  0.00  0.00    +0.164 C 
ATOM     15  O   LIG    1       24.560 -21.566   4.113  0.00  0.00    -0.292 OA
ATOM     16  C   LIG    1       25.065 -19.267   3.683  0.00  0.00    +0.091 C 
ENDBRANCH   3  14
BRANCH   4  17
ATOM     17  O   LIG    1       23.632 -20.849   7.074  0.00  0.00    -0.489 OA
BRANCH  17  18
ATOM     18  C   LIG    1       23.086 -22.000   7.759  0.00  0.00    +0.261 C 
BRANCH  18  19
ATOM     19  C   LIG    1       22.726 -23.156   6.800  0.00  0.00    +0.166 C 
BRANCH  19  20
ATOM     20  O   LIG    1       22.188 -22.681   5.565  0.00  0.00    -0.387 OA
ATOM     21  H   LIG    1       21.308 -23.101   5.491  0.00  0.00    +0.210 HD
ENDBRANCH  19  20
BRANCH  19  22
ATOM     22  C   LIG    1       23.938 -24.068   6.533  0.00  0.00    +0.115 C 
BRANCH  22  23
ATOM     23  N   LIG    1       23.550 -25.411   6.065  0.00  0.00    -0.311 NA
ATOM     24  H   LIG    1       22.937 -25.305   5.245  0.00  0.00    +0.122 HD
BRANCH  23  25
ATOM     25  C   LIG    1       24.701 -26.241   5.689  0.00  0.00    +0.048 C 
ATOM     26  C   LIG    1       24.382 -27.737   5.741  0.00  0.00    +0.024 C 
ATOM     27  C   LIG    1       25.870 -25.940   6.634  0.00  0.00    +0.024 C 
ENDBRANCH  23  25
ENDBRANCH  22  23
ENDBRANCH  19  22
ENDBRANCH  18  19
ENDBRANCH  17  18
ENDBRANCH   4  17
TORSDOF 11
ENDMDL
MODEL 5
REMARK VINA RESULT:      -7.1      2.343      3.093
REMARK  Name = *****
REMARK                            x       y       z     vdW  Elec       q    Type
REMARK                         _______ _______ _______ _____ _____    ______ ____
ROOT
ATOM      1  C   LIG    1       26.788 -20.929   7.414  0.00  0.00    +0.034 A 
ATOM      2  C   LIG    1       25.860 -20.514   6.447  0.00  0.00    +0.038 A 
ATOM      3  C   LIG    1       24.889 -21.408   5.941  0.00  0.00    +0.060 A 
ATOM      4  C   LIG    1       24.868 -22.743   6.401  0.00  0.00    +0.131 A 
ATOM      5  C   LIG    1       25.817 -23.130   7.347  0.00  0.00    +0.048 A 
ATOM      6  C   LIG    1       26.761 -22.245   7.830  0.00  0.00    +0.027 A 
ENDROOT
BRANCH   1   8
ATOM      7  C   LIG    1       28.996 -19.800   7.453  0.00  0.00    +0.217 C 
ATOM      8  N   LIG    1       27.693 -19.993   7.931  0.00  0.00    -0.285 N 
ATOM      9  H   LIG    1       27.406 -19.456   8.732  0.00  0.00    +0.155 HD
ATOM     10  O   LIG    1       29.548 -20.388   6.542  0.00  0.00    -0.276 OA
BRANCH   7  11
ATOM     11  C   LIG    1       29.763 -18.761   8.241  0.00  0.00    +0.096 C 
BRANCH  11  13
ATOM     12  C   LIG    1       32.055 -17.907   8.751  0.00  0.00    +0.004 C 
ATOM     13  C   LIG    1       31.251 -18.937   7.979  0.00  0.00    +0.006 C 
ENDBRANCH  11  13
ENDBRANCH   7  11
ENDBRANCH   1   8
BRANCH   3  14
ATOM     14  C   LIG    1       23.924 -20.879   4.919  0.00  0.00    +0.164 C 
ATOM     15  O   LIG    1       24.110 -21.067   3.717  0.00  0.00    -0.292 OA
ATOM     16  C   LIG    1       22.725 -20.082   5.401  0.00  0.00    +0.091 C 
ENDBRANCH   3  14
BRANCH   4  17
ATOM     17  O   LIG    1       23.912 -23.621   5.959  0.00  0.00    -0.489 OA
BRANCH  17  18
ATOM     18  C   LIG    1       23.937 -24.980   6.453  0.00  0.00    +0.261 C 
BRANCH  18  19
ATOM     19  C   LIG    1       24.336 -26.008   5.371  0.00  0.00    +0.166 C 
BRANCH  19  20
ATOM     20  O   LIG    1       25.435 -25.553   4.580  0.00  0.00    -0.387 OA
ATOM     21  H   LIG    1       25.795 -24.782   5.061  0.00  0.00    +0.210 HD
ENDBRANCH  19  20
BRANCH  19  22
ATOM     22  C   LIG    1       24.660 -27.380   5.988  0.00  0.00    +0.115 C 
BRANCH  22  23
ATOM     23  N   LIG    1       23.903 -28.480   5.363  0.00  0.00    -0.311 NA
ATOM     24  H   LIG    1       24.177 -28.541   4.373  0.00  0.00    +0.122 HD
BRANCH  23  25
ATOM     25  C   LIG    1       24.148 -29.780   6.002  0.00  0.00    +0.048 C 
ATOM     26  C   LIG    1       24.342 -29.657   7.515  0.00  0.00    +0.024 C 
ATOM     27  C   LIG    1       25.395 -30.420   5.382  0.00  0.00    +0.024 C 
ENDBRANCH  23  25
ENDBRANCH  22  23
ENDBRANCH  19  22
ENDBRANCH  18  19
ENDBRANCH  17  18
ENDBRANCH   4  17
TORSDOF 11
ENDMDL
MODEL 6
REMARK VINA RESULT:      -6.9      2.900      8.418
REMARK  Name = *****
REMARK                            x       y       z     vdW  Elec       q    Type
REMARK                         _______ _______ _______ _____ _____    ______ ____
ROOT
ATOM      1  C   LIG    1       28.072 -20.763   6.708  0.00  0.00    +0.034 A 
ATOM      2  C   LIG    1       28.852 -21.498   7.614  0.00  0.00    +0.038 A 
ATOM      3  C   LIG    1       30.130 -21.042   8.008  0.00  0.00    +0.060 A 
ATOM      4  C   LIG    1       30.637 -19.841   7.465  0.00  0.00    +0.131 A 
ATOM      5  C   LIG    1       29.846 -19.145   6.551  0.00  0.00    +0.048 A 
ATOM      6  C   LIG    1       28.599 -19.605   6.174  0.00  0.00    +0.027 A 
ENDROOT
BRANCH   1   8
ATOM      7  C   LIG    1       25.937 -20.621   5.455  0.00  0.00    +0.217 C 
ATOM      8  N   LIG    1       26.786 -21.222   6.393  0.00  0.00    -0.285 N 
ATOM      9  H   LIG    1       26.429 -22.007   6.910  0.00  0.00    +0.155 HD
ATOM     10  O   LIG    1       26.157 -19.635   4.776  0.00  0.00    -0.276 OA
BRANCH   7  11
ATOM     11  C   LIG    1       24.588 -21.299   5.363  0.00  0.00    +0.096 C 
BRANCH  11  13
ATOM     12  C   LIG    1       22.895 -22.314   6.895  0.00  0.00    +0.004 C 
ATOM     13  C   LIG    1       23.875 -21.172   6.701  0.00  0.00    +0.006 C 
ENDBRANCH  11  13
ENDBRANCH   7  11
ENDBRANCH   1   8
BRANCH   3  14
ATOM     14  C   LIG    1       30.893 -21.881   8.993  0.00  0.00    +0.164 C 
ATOM     15  O   LIG    1       30.749 -21.721  10.205  0.00  0.00    -0.292 OA
ATOM     16  C   LIG    1       31.867 -22.916   8.459  0.00  0.00    +0.091 C 
ENDBRANCH   3  14
BRANCH   4  17
ATOM     17  O   LIG    1       31.856 -19.354   7.860  0.00  0.00    -0.489 OA
BRANCH  17  18
ATOM     18  C   LIG    1       31.899 -18.119   8.612  0.00  0.00    +0.261 C 
BRANCH  18  19
ATOM     19  C   LIG    1       30.706 -17.963   9.582  0.00  0.00    +0.166 C 
BRANCH  19  20
ATOM     20  O   LIG    1       30.770 -18.894  10.664  0.00  0.00    -0.387 OA
ATOM     21  H   LIG    1       31.431 -18.522  11.282  0.00  0.00    +0.210 HD
ENDBRANCH  19  20
BRANCH  19  22
ATOM     22  C   LIG    1       30.605 -16.527  10.125  0.00  0.00    +0.115 C 
BRANCH  22  23
ATOM     23  N   LIG    1       30.845 -16.447  11.578  0.00  0.00    -0.311 NA
ATOM     24  H   LIG    1       30.399 -17.259  12.026  0.00  0.00    +0.122 HD
BRANCH  23  25
ATOM     25  C   LIG    1       32.273 -16.442  11.923  0.00  0.00    +0.048 C 
ATOM     26  C   LIG    1       32.523 -15.969  13.357  0.00  0.00    +0.024 C 
ATOM     27  C   LIG    1       33.024 -15.526  10.950  0.00  0.00    +0.024 C 
ENDBRANCH  23  25
ENDBRANCH  22  23
ENDBRANCH  19  22
ENDBRANCH  18  19
ENDBRANCH  17  18
ENDBRANCH   4  17
TORSDOF 11
ENDMDL
MODEL 7
REMARK VINA RESULT:      -6.6      2.342      4.442
REMARK  Name = *****
REMARK                            x       y       z     vdW  Elec       q    Type
REMARK                         _______ _______ _______ _____ _____    ______ ____
ROOT
ATOM      1  C   LIG    1       29.407 -19.305   7.372  0.00  0.00    +0.034 A 
ATOM      2  C   LIG    1       28.439 -19.969   8.139  0.00  0.00    +0.038 A 
ATOM      3  C   LIG    1       27.255 -20.462   7.547  0.00  0.00    +0.060 A 
ATOM      4  C   LIG    1       27.035 -20.264   6.166  0.00  0.00    +0.131 A 
ATOM      5  C   LIG    1       28.007 -19.581   5.434  0.00  0.00    +0.048 A 
ATOM      6  C   LIG    1       29.158 -19.103   6.029  0.00  0.00    +0.027 A 
ENDROOT
BRANCH   1   8
ATOM      7  C   LIG    1       30.699 -17.773   8.833  0.00  0.00    +0.217 C 
ATOM      8  N   LIG    1       30.593 -18.887   7.989  0.00  0.00    -0.285 N 
ATOM      9  H   LIG    1       31.437 -19.391   7.774  0.00  0.00    +0.155 HD
ATOM     10  O   LIG    1       29.816 -17.004   9.164  0.00  0.00    -0.276 OA
BRANCH   7  11
ATOM     11  C   LIG    1       32.114 -17.530   9.310  0.00  0.00    +0.096 C 
BRANCH  11  13
ATOM     12  C   LIG    1       32.068 -16.786  11.695  0.00  0.00    +0.004 C 
ATOM     13  C   LIG    1       32.124 -16.333  10.248  0.00  0.00    +0.006 C 
ENDBRANCH  11  13
ENDBRANCH   7  11
ENDBRANCH   1   8
BRANCH   3  14
ATOM     14  C   LIG    1       26.277 -21.174   8.437  0.00  0.00    +0.164 C 
ATOM     15  O   LIG    1       25.830 -20.630   9.446  0.00  0.00    -0.292 OA
ATOM     16  C   LIG    1       25.871 -22.592   8.078  0.00  0.00    +0.091 C 
ENDBRANCH   3  14
BRANCH   4  17
ATOM     17  O   LIG    1       25.914 -20.767   5.556  0.00  0.00    -0.489 OA
BRANCH  17  18
ATOM     18  C   LIG    1       25.423 -20.115   4.362  0.00  0.00    +0.261 C 
BRANCH  18  19
ATOM     19  C   LIG    1       24.004 -20.578   3.962  0.00  0.00    +0.166 C 
BRANCH  19  20
ATOM     20  O   LIG    1       24.020 -21.840   3.294  0.00  0.00    -0.387 OA
ATOM     21  H   LIG    1       23.512 -22.441   3.873  0.00  0.00    +0.210 HD
ENDBRANCH  19  20
BRANCH  19  22
ATOM     22  C   LIG    1       23.066 -20.636   5.181  0.00  0.00    +0.115 C 
BRANCH  22  23
ATOM     23  N   LIG    1       22.484 -19.324   5.517  0.00  0.00    -0.311 NA
ATOM     24  H   LIG    1       23.119 -18.844   6.169  0.00  0.00    +0.122 HD
BRANCH  23  25
ATOM     25  C   LIG    1       22.281 -18.469   4.340  0.00  0.00    +0.048 C 
ATOM     26  C   LIG    1       22.309 -16.979   4.691  0.00  0.00    +0.024 C 
ATOM     27  C   LIG    1       20.934 -18.811   3.693  0.00  0.00    +0.024 C 
ENDBRANCH  23  25
ENDBRANCH  22  23
ENDBRANCH  19  22
ENDBRANCH  18  19
ENDBRANCH  17  18
ENDBRANCH   4  17
TORSDOF 11
ENDMDL
MODEL 8
REMARK VINA RESULT:      -6.5      1.669      3.371
REMARK  Name = *****
REMARK                            x       y       z     vdW  Elec       q    Type
REMARK                         _______ _______ _______ _____ _____    ______ ____
ROOT
ATOM      1  C   LIG    1       27.602 -21.157   7.803  0.00  0.00    +0.034 A 
ATOM      2  C   LIG    1       27.223 -22.313   7.104  0.00  0.00    +0.038 A 
ATOM      3  C   LIG    1       25.861 -22.655   6.948  0.00  0.00    +0.060 A 
ATOM      4  C   LIG    1       24.869 -21.831   7.524  0.00  0.00    +0.131 A 
ATOM      5  C   LIG    1       25.278 -20.701   8.231  0.00  0.00    +0.048 A 
ATOM      6  C   LIG    1       26.614 -20.382   8.376  0.00  0.00    +0.027 A 
ENDROOT
BRANCH   1   8
ATOM      7  C   LIG    1       29.586 -19.851   7.091  0.00  0.00    +0.217 C 
ATOM      8  N   LIG    1       28.960 -20.825   7.880  0.00  0.00    -0.285 N 
ATOM      9  H   LIG    1       29.538 -21.356   8.510  0.00  0.00    +0.155 HD
ATOM     10  O   LIG    1       29.080 -19.151   6.234  0.00  0.00    -0.276 OA
BRANCH   7  11
ATOM     11  C   LIG    1       31.073 -19.748   7.353  0.00  0.00    +0.096 C 
BRANCH  11  13
ATOM     12  C   LIG    1       30.539 -17.878   8.921  0.00  0.00    +0.004 C 
ATOM     13  C   LIG    1       31.294 -19.182   8.747  0.00  0.00    +0.006 C 
ENDBRANCH  11  13
ENDBRANCH   7  11
ENDBRANCH   1   8
BRANCH   3  14
ATOM     14  C   LIG    1       25.542 -23.901   6.173  0.00  0.00    +0.164 C 
ATOM     15  O   LIG    1       25.027 -23.838   5.058  0.00  0.00    -0.292 OA
ATOM     16  C   LIG    1       25.847 -25.246   6.810  0.00  0.00    +0.091 C 
ENDBRANCH   3  14
BRANCH   4  17
ATOM     17  O   LIG    1       23.538 -22.116   7.355  0.00  0.00    -0.489 OA
BRANCH  17  18
ATOM     18  C   LIG    1       22.669 -21.083   6.836  0.00  0.00    +0.261 C 
BRANCH  18  19
ATOM     19  C   LIG    1       22.583 -21.086   5.293  0.00  0.00    +0.166 C 
BRANCH  19  20
ATOM     20  O   LIG    1       21.410 -21.751   4.823  0.00  0.00    -0.387 OA
ATOM     21  H   LIG    1       21.253 -21.389   3.928  0.00  0.00    +0.210 HD
ENDBRANCH  19  20
BRANCH  19  22
ATOM     22  C   LIG    1       22.647 -19.658   4.722  0.00  0.00    +0.115 C 
BRANCH  22  23
ATOM     23  N   LIG    1       23.671 -19.509   3.672  0.00  0.00    -0.311 NA
ATOM     24  H   LIG    1       23.314 -18.858   2.959  0.00  0.00    +0.122 HD
BRANCH  23  25
ATOM     25  C   LIG    1       24.947 -18.993   4.184  0.00  0.00    +0.048 C 
ATOM     26  C   LIG    1       25.577 -17.962   3.245  0.00  0.00    +0.024 C 
ATOM     27  C   LIG    1       25.921 -20.161   4.380  0.00  0.00    +0.024 C 
ENDBRANCH  23  25
ENDBRANCH  22  23
ENDBRANCH  19  22
ENDBRANCH  18  19
ENDBRANCH  17  18
ENDBRANCH   4  17
TORSDOF 11
ENDMDL
MODEL 9
REMARK VINA RESULT:      -6.5      2.453      7.906
REMARK  Name = *****
REMARK                            x       y       z     vdW  Elec       q    Type
REMARK                         _______ _______ _______ _____ _____    ______ ____
ROOT
ATOM      1  C   LIG    1       26.440 -20.999   6.381  0.00  0.00    +0.034 A 
ATOM      2  C   LIG    1       27.238 -19.991   5.820  0.00  0.00    +0.038 A 
ATOM      3  C   LIG    1       28.554 -19.764   6.281  0.00  0.00    +0.060 A 
ATOM      4  C   LIG    1       29.064 -20.549   7.339  0.00  0.00    +0.131 A 
ATOM      5  C   LIG    1       28.238 -21.529   7.890  0.00  0.00    +0.048 A 
ATOM      6  C   LIG    1       26.953 -21.737   7.429  0.00  0.00    +0.027 A 
ENDROOT
BRANCH   1   8
ATOM      7  C   LIG    1       23.965 -20.940   6.514  0.00  0.00    +0.217 C 
ATOM      8  N   LIG    1       25.165 -21.229   5.851  0.00  0.00    -0.285 N 
ATOM      9  H   LIG    1       25.104 -21.677   4.952  0.00  0.00    +0.155 HD
ATOM     10  O   LIG    1       23.825 -20.459   7.623  0.00  0.00    -0.276 OA
BRANCH   7  11
ATOM     11  C   LIG    1       22.742 -21.347   5.721  0.00  0.00    +0.096 C 
BRANCH  11  13
ATOM     12  C   LIG    1       23.206 -19.361   4.278  0.00  0.00    +0.004 C 
ATOM     13  C   LIG    1       22.146 -20.115   5.059  0.00  0.00    +0.006 C 
ENDBRANCH  11  13
ENDBRANCH   7  11
ENDBRANCH   1   8
BRANCH   3  14
ATOM     14  C   LIG    1       29.345 -18.675   5.616  0.00  0.00    +0.164 C 
ATOM     15  O   LIG    1       30.569 -18.622   5.730  0.00  0.00    -0.292 OA
ATOM     16  C   LIG    1       28.596 -17.621   4.818  0.00  0.00    +0.091 C 
ENDBRANCH   3  14
BRANCH   4  17
ATOM     17  O   LIG    1       30.351 -20.378   7.780  0.00  0.00    -0.489 OA
BRANCH  17  18
ATOM     18  C   LIG    1       30.563 -19.867   9.117  0.00  0.00    +0.261 C 
BRANCH  18  19
ATOM     19  C   LIG    1       31.494 -18.634   9.150  0.00  0.00    +0.166 C 
BRANCH  19  20
ATOM     20  O   LIG    1       32.162 -18.433   7.904  0.00  0.00    -0.387 OA
ATOM     21  H   LIG    1       33.115 -18.453   8.120  0.00  0.00    +0.210 HD
ENDBRANCH  19  20
BRANCH  19  22
ATOM     22  C   LIG    1       30.729 -17.360   9.552  0.00  0.00    +0.115 C 
BRANCH  22  23
ATOM     23  N   LIG    1       30.560 -17.232  11.011  0.00  0.00    -0.311 NA
ATOM     24  H   LIG    1       30.739 -18.150  11.441  0.00  0.00    +0.122 HD
BRANCH  23  25
ATOM     25  C   LIG    1       31.469 -16.246  11.609  0.00  0.00    +0.048 C 
ATOM     26  C   LIG    1       32.554 -15.789  10.632  0.00  0.00    +0.024 C 
ATOM     27  C   LIG    1       32.128 -16.855  12.851  0.00  0.00    +0.024 C 
ENDBRANCH  23  25
ENDBRANCH  22  23
ENDBRANCH  19  22
ENDBRANCH  18  19
ENDBRANCH  17  18
ENDBRANCH   4  17
TORSDOF 11
ENDMDL
