MODEL 1
REMARK VINA RESULT:      -6.5      0.000      0.000
REMARK  Name = *****
REMARK                            x       y       z     vdW  Elec       q    Type
REMARK                         _______ _______ _______ _____ _____    ______ ____
ROOT
ATOM      1  C   LIG    1       25.232 -23.963   5.852  0.00  0.00    +0.242 C 
ATOM      2  N   LIG    1       24.896 -24.933   4.929  0.00  0.00    -0.313 N 
ATOM      3  H   LIG    1       24.582 -24.596   4.024  0.00  0.00    +0.149 HD
ATOM      4  O   LIG    1       25.858 -24.205   6.881  0.00  0.00    -0.273 OA
ENDROOT
BRANCH   1   5
ATOM      5  C   LIG    1       24.732 -22.522   5.533  0.00  0.00    +0.208 C 
BRANCH   5   7
ATOM      6  C   LIG    1       23.939 -21.387   7.704  0.00  0.00    +0.016 C 
ATOM      7  C   LIG    1       23.509 -22.061   6.388  0.00  0.00    +0.023 C 
ATOM      8  C   LIG    1       22.621 -23.272   6.775  0.00  0.00    +0.016 C 
BRANCH   7   9
ATOM      9  C   LIG    1       22.668 -21.065   5.554  0.00  0.00    +0.165 C 
BRANCH   9  10
ATOM     10  O   LIG    1       21.603 -21.712   4.866  0.00  0.00    -0.394 OA
ATOM     11  H   LIG    1       21.937 -22.562   4.531  0.00  0.00    +0.209 HD
ENDBRANCH   9  10
ENDBRANCH   7   9
ENDBRANCH   5   7
BRANCH   5  12
ATOM     12  O   LIG    1       24.463 -22.393   4.135  0.00  0.00    -0.382 OA
ATOM     13  H   LIG    1       23.517 -22.606   4.020  0.00  0.00    +0.210 HD
ENDBRANCH   5  12
ENDBRANCH   1   5
BRANCH   2  14
ATOM     14  C   LIG    1       25.282 -26.341   5.045  0.00  0.00    +0.115 C 
BRANCH  14  15
ATOM     15  C   LIG    1       24.315 -27.201   5.855  0.00  0.00    +0.139 C 
BRANCH  15  16
ATOM     16  C   LIG    1       24.423 -28.646   5.472  0.00  0.00    +0.306 C 
ATOM     17  O   LIG    1       25.464 -29.270   5.271  0.00  0.00    -0.251 OA
BRANCH  16  18
ATOM     18  O   LIG    1       23.229 -29.260   5.363  0.00  0.00    -0.481 OA
ATOM     19  H   LIG    1       23.059 -29.657   6.245  0.00  0.00    +0.295 HD
ENDBRANCH  16  18
ENDBRANCH  15  16
ENDBRANCH  14  15
ENDBRANCH   2  14
TORSDOF 9
ENDMDL
MODEL 2
REMARK VINA RESULT:      -6.5      5.151      7.450
REMARK  Name = *****
REMARK                            x       y       z     vdW  Elec       q    Type
REMARK                         _______ _______ _______ _____ _____    ______ ____
ROOT
ATOM      1  C   LIG    1       27.423 -20.336   7.188  0.00  0.00    +0.242 C 
ATOM      2  N   LIG    1       28.677 -20.416   6.617  0.00  0.00    -0.313 N 
ATOM      3  H   LIG    1       28.718 -20.274   5.612  0.00  0.00    +0.149 HD
ATOM      4  O   LIG    1       27.244 -20.235   8.399  0.00  0.00    -0.273 OA
ENDROOT
BRANCH   1   5
ATOM      5  C   LIG    1       26.222 -20.422   6.200  0.00  0.00    +0.208 C 
BRANCH   5   7
ATOM      6  C   LIG    1       24.182 -21.175   7.580  0.00  0.00    +0.016 C 
ATOM      7  C   LIG    1       25.214 -21.576   6.510  0.00  0.00    +0.023 C 
ATOM      8  C   LIG    1       25.958 -22.824   7.052  0.00  0.00    +0.016 C 
BRANCH   7   9
ATOM      9  C   LIG    1       24.477 -21.955   5.204  0.00  0.00    +0.165 C 
BRANCH   9  10
ATOM     10  O   LIG    1       24.915 -23.207   4.688  0.00  0.00    -0.394 OA
ATOM     11  H   LIG    1       25.725 -23.049   4.172  0.00  0.00    +0.209 HD
ENDBRANCH   9  10
ENDBRANCH   7   9
ENDBRANCH   5   7
BRANCH   5  12
ATOM     12  O   LIG    1       26.696 -20.499   4.854  0.00  0.00    -0.382 OA
ATOM     13  H   LIG    1       27.055 -21.400   4.744  0.00  0.00    +0.210 HD
ENDBRANCH   5  12
ENDBRANCH   1   5
BRANCH   2  14
ATOM     14  C   LIG    1       29.928 -20.344   7.375  0.00  0.00    +0.115 C 
BRANCH  14  15
ATOM     15  C   LIG    1       30.794 -19.126   7.061  0.00  0.00    +0.139 C 
BRANCH  15  16
ATOM     16  C   LIG    1       31.699 -18.793   8.208  0.00  0.00    +0.306 C 
ATOM     17  O   LIG    1       31.998 -19.538   9.139  0.00  0.00    -0.251 OA
BRANCH  16  18
ATOM     18  O   LIG    1       32.204 -17.546   8.144  0.00  0.00    -0.481 OA
ATOM     19  H   LIG    1       31.902 -17.101   8.966  0.00  0.00    +0.295 HD
ENDBRANCH  16  18
ENDBRANCH  15  16
ENDBRANCH  14  15
ENDBRANCH   2  14
TORSDOF 9
ENDMDL
MODEL 3
REMARK VINA RESULT:      -6.4      2.672      3.592
REMARK  Name = *****
REMARK                            x       y       z     vdW  Elec       q    Type
REMARK                         _______ _______ _______ _____ _____    ______ ____
ROOT
ATOM      1  C   LIG    1       25.565 -20.952   6.491  0.00  0.00    +0.242 C 
ATOM      2  N   LIG    1       25.879 -22.271   6.237  0.00  0.00    -0.313 N 
ATOM      3  H   LIG    1       26.208 -22.478   5.299  0.00  0.00    +0.149 HD
ATOM      4  O   LIG    1       25.400 -20.508   7.625  0.00  0.00    -0.273 OA
ENDROOT
BRANCH   1   5
ATOM      5  C   LIG    1       25.389 -20.043   5.237  0.00  0.00    +0.208 C 
BRANCH   5   7
ATOM      6  C   LIG    1       23.541 -18.736   4.010  0.00  0.00    +0.016 C 
ATOM      7  C   LIG    1       23.963 -20.094   4.601  0.00  0.00    +0.023 C 
ATOM      8  C   LIG    1       22.899 -20.468   5.666  0.00  0.00    +0.016 C 
BRANCH   7   9
ATOM      9  C   LIG    1       23.955 -21.163   3.483  0.00  0.00    +0.165 C 
BRANCH   9  10
ATOM     10  O   LIG    1       24.221 -22.466   3.989  0.00  0.00    -0.394 OA
ATOM     11  H   LIG    1       23.722 -23.103   3.449  0.00  0.00    +0.209 HD
ENDBRANCH   9  10
ENDBRANCH   7   9
ENDBRANCH   5   7
BRANCH   5  12
ATOM     12  O   LIG    1       26.396 -20.342   4.269  0.00  0.00    -0.382 OA
ATOM     13  H   LIG    1       27.002 -20.980   4.693  0.00  0.00    +0.210 HD
ENDBRANCH   5  12
ENDBRANCH   1   5
BRANCH   2  14
ATOM     14  C   LIG    1       26.096 -23.276   7.281  0.00  0.00    +0.115 C 
BRANCH  14  15
ATOM     15  C   LIG    1       25.546 -24.663   6.953  0.00  0.00    +0.139 C 
BRANCH  15  16
ATOM     16  C   LIG    1       24.163 -24.578   6.383  0.00  0.00    +0.306 C 
ATOM     17  O   LIG    1       23.247 -23.870   6.798  0.00  0.00    -0.251 OA
BRANCH  16  18
ATOM     18  O   LIG    1       23.977 -25.373   5.312  0.00  0.00    -0.481 OA
ATOM     19  H   LIG    1       24.782 -25.260   4.761  0.00  0.00    +0.295 HD
ENDBRANCH  16  18
ENDBRANCH  15  16
ENDBRANCH  14  15
ENDBRANCH   2  14
TORSDOF 9
ENDMDL
MODEL 4
REMARK VINA RESULT:      -6.3      4.402      5.437
REMARK  Name = *****
REMARK                            x       y       z     vdW  Elec       q    Type
REMARK                         _______ _______ _______ _____ _____    ______ ____
ROOT
ATOM      1  C   LIG    1       25.472 -20.255   4.718  0.00  0.00    +0.242 C 
ATOM      2  N   LIG    1       26.200 -20.818   5.747  0.00  0.00    -0.313 N 
ATOM      3  H   LIG    1       25.952 -21.770   6.000  0.00  0.00    +0.149 HD
ATOM      4  O   LIG    1       25.814 -19.227   4.139  0.00  0.00    -0.273 OA
ENDROOT
BRANCH   1   5
ATOM      5  C   LIG    1       24.146 -20.985   4.349  0.00  0.00    +0.208 C 
BRANCH   5   7
ATOM      6  C   LIG    1       21.685 -21.436   4.959  0.00  0.00    +0.016 C 
ATOM      7  C   LIG    1       22.902 -20.517   5.170  0.00  0.00    +0.023 C 
ATOM      8  C   LIG    1       22.465 -19.092   4.741  0.00  0.00    +0.016 C 
BRANCH   7   9
ATOM      9  C   LIG    1       23.276 -20.499   6.671  0.00  0.00    +0.165 C 
BRANCH   9  10
ATOM     10  O   LIG    1       23.537 -21.806   7.172  0.00  0.00    -0.394 OA
ATOM     11  H   LIG    1       24.444 -21.815   7.522  0.00  0.00    +0.209 HD
ENDBRANCH   9  10
ENDBRANCH   7   9
ENDBRANCH   5   7
BRANCH   5  12
ATOM     12  O   LIG    1       24.321 -22.400   4.441  0.00  0.00    -0.382 OA
ATOM     13  H   LIG    1       23.779 -22.693   5.198  0.00  0.00    +0.210 HD
ENDBRANCH   5  12
ENDBRANCH   1   5
BRANCH   2  14
ATOM     14  C   LIG    1       27.476 -20.286   6.232  0.00  0.00    +0.115 C 
BRANCH  14  15
ATOM     15  C   LIG    1       27.785 -20.606   7.693  0.00  0.00    +0.139 C 
BRANCH  15  16
ATOM     16  C   LIG    1       26.596 -21.207   8.379  0.00  0.00    +0.306 C 
ATOM     17  O   LIG    1       25.864 -20.646   9.192  0.00  0.00    -0.251 OA
BRANCH  16  18
ATOM     18  O   LIG    1       26.362 -22.484   8.020  0.00  0.00    -0.481 OA
ATOM     19  H   LIG    1       25.871 -22.881   8.771  0.00  0.00    +0.295 HD
ENDBRANCH  16  18
ENDBRANCH  15  16
ENDBRANCH  14  15
ENDBRANCH   2  14
TORSDOF 9
ENDMDL
MODEL 5
REMARK VINA RESULT:      -6.3      4.430      6.776
REMARK  Name = *****
REMARK                            x       y       z     vdW  Elec       q    Type
REMARK                         _______ _______ _______ _____ _____    ______ ____
ROOT
ATOM      1  C   LIG    1       26.645 -20.428   6.629  0.00  0.00    +0.242 C 
ATOM      2  N   LIG    1       27.946 -20.790   6.343  0.00  0.00    -0.313 N 
ATOM      3  H   LIG    1       28.256 -20.621   5.391  0.00  0.00    +0.149 HD
ATOM      4  O   LIG    1       26.211 -20.335   7.774  0.00  0.00    -0.273 OA
ENDROOT
BRANCH   1   5
ATOM      5  C   LIG    1       25.726 -20.175   5.397  0.00  0.00    +0.208 C 
BRANCH   5   7
ATOM      6  C   LIG    1       23.898 -21.198   3.899  0.00  0.00    +0.016 C 
ATOM      7  C   LIG    1       24.475 -21.109   5.324  0.00  0.00    +0.023 C 
ATOM      8  C   LIG    1       23.338 -20.576   6.234  0.00  0.00    +0.016 C 
BRANCH   7   9
ATOM      9  C   LIG    1       24.882 -22.523   5.801  0.00  0.00    +0.165 C 
BRANCH   9  10
ATOM     10  O   LIG    1       24.875 -23.468   4.737  0.00  0.00    -0.394 OA
ATOM     11  H   LIG    1       24.091 -24.032   4.846  0.00  0.00    +0.209 HD
ENDBRANCH   9  10
ENDBRANCH   7   9
ENDBRANCH   5   7
BRANCH   5  12
ATOM     12  O   LIG    1       26.490 -20.243   4.191  0.00  0.00    -0.382 OA
ATOM     13  H   LIG    1       25.903 -20.639   3.518  0.00  0.00    +0.210 HD
ENDBRANCH   5  12
ENDBRANCH   1   5
BRANCH   2  14
ATOM     14  C   LIG    1       28.963 -21.058   7.363  0.00  0.00    +0.115 C 
BRANCH  14  15
ATOM     15  C   LIG    1       29.637 -19.812   7.934  0.00  0.00    +0.139 C 
BRANCH  15  16
ATOM     16  C   LIG    1       30.680 -19.282   6.998  0.00  0.00    +0.306 C 
ATOM     17  O   LIG    1       31.888 -19.507   7.052  0.00  0.00    -0.251 OA
BRANCH  16  18
ATOM     18  O   LIG    1       30.176 -18.498   6.026  0.00  0.00    -0.481 OA
ATOM     19  H   LIG    1       29.647 -19.096   5.456  0.00  0.00    +0.295 HD
ENDBRANCH  16  18
ENDBRANCH  15  16
ENDBRANCH  14  15
ENDBRANCH   2  14
TORSDOF 9
ENDMDL
MODEL 6
REMARK VINA RESULT:      -6.2      3.988      6.407
REMARK  Name = *****
REMARK                            x       y       z     vdW  Elec       q    Type
REMARK                         _______ _______ _______ _____ _____    ______ ____
ROOT
ATOM      1  C   LIG    1       25.804 -20.729   5.235  0.00  0.00    +0.242 C 
ATOM      2  N   LIG    1       26.970 -20.906   5.951  0.00  0.00    -0.313 N 
ATOM      3  H   LIG    1       27.171 -21.856   6.248  0.00  0.00    +0.149 HD
ATOM      4  O   LIG    1       25.554 -19.707   4.602  0.00  0.00    -0.273 OA
ENDROOT
BRANCH   1   5
ATOM      5  C   LIG    1       24.782 -21.904   5.305  0.00  0.00    +0.208 C 
BRANCH   5   7
ATOM      6  C   LIG    1       23.848 -20.717   7.391  0.00  0.00    +0.016 C 
ATOM      7  C   LIG    1       23.521 -21.609   6.179  0.00  0.00    +0.023 C 
ATOM      8  C   LIG    1       22.922 -22.924   6.741  0.00  0.00    +0.016 C 
BRANCH   7   9
ATOM      9  C   LIG    1       22.460 -20.907   5.299  0.00  0.00    +0.165 C 
BRANCH   9  10
ATOM     10  O   LIG    1       22.513 -19.491   5.425  0.00  0.00    -0.394 OA
ATOM     11  H   LIG    1       23.169 -19.159   4.789  0.00  0.00    +0.209 HD
ENDBRANCH   9  10
ENDBRANCH   7   9
ENDBRANCH   5   7
BRANCH   5  12
ATOM     12  O   LIG    1       25.436 -23.101   5.732  0.00  0.00    -0.382 OA
ATOM     13  H   LIG    1       24.789 -23.583   6.282  0.00  0.00    +0.210 HD
ENDBRANCH   5  12
ENDBRANCH   1   5
BRANCH   2  14
ATOM     14  C   LIG    1       28.055 -19.923   6.002  0.00  0.00    +0.115 C 
BRANCH  14  15
ATOM     15  C   LIG    1       29.224 -20.312   6.905  0.00  0.00    +0.139 C 
BRANCH  15  16
ATOM     16  C   LIG    1       30.406 -19.419   6.678  0.00  0.00    +0.306 C 
ATOM     17  O   LIG    1       31.561 -19.633   7.042  0.00  0.00    -0.251 OA
BRANCH  16  18
ATOM     18  O   LIG    1       30.103 -18.297   5.998  0.00  0.00    -0.481 OA
ATOM     19  H   LIG    1       29.406 -18.559   5.358  0.00  0.00    +0.295 HD
ENDBRANCH  16  18
ENDBRANCH  15  16
ENDBRANCH  14  15
ENDBRANCH   2  14
TORSDOF 9
ENDMDL
MODEL 7
REMARK VINA RESULT:      -6.2      4.097      6.559
REMARK  Name = *****
REMARK                            x       y       z     vdW  Elec       q    Type
REMARK                         _______ _______ _______ _____ _____    ______ ____
ROOT
ATOM      1  C   LIG    1       25.763 -20.969   8.118  0.00  0.00    +0.242 C 
ATOM      2  N   LIG    1       26.733 -20.613   7.204  0.00  0.00    -0.313 N 
ATOM      3  H   LIG    1       26.414 -20.463   6.251  0.00  0.00    +0.149 HD
ATOM      4  O   LIG    1       25.942 -20.938   9.332  0.00  0.00    -0.273 OA
ENDROOT
BRANCH   1   5
ATOM      5  C   LIG    1       24.412 -21.460   7.515  0.00  0.00    +0.208 C 
BRANCH   5   7
ATOM      6  C   LIG    1       23.237 -23.628   6.774  0.00  0.00    +0.016 C 
ATOM      7  C   LIG    1       24.519 -22.780   6.686  0.00  0.00    +0.023 C 
ATOM      8  C   LIG    1       25.678 -23.666   7.210  0.00  0.00    +0.016 C 
BRANCH   7   9
ATOM      9  C   LIG    1       24.792 -22.416   5.207  0.00  0.00    +0.165 C 
BRANCH   9  10
ATOM     10  O   LIG    1       23.613 -21.986   4.536  0.00  0.00    -0.394 OA
ATOM     11  H   LIG    1       23.258 -22.745   4.042  0.00  0.00    +0.209 HD
ENDBRANCH   9  10
ENDBRANCH   7   9
ENDBRANCH   5   7
BRANCH   5  12
ATOM     12  O   LIG    1       23.807 -20.417   6.748  0.00  0.00    -0.382 OA
ATOM     13  H   LIG    1       23.588 -19.706   7.381  0.00  0.00    +0.210 HD
ENDBRANCH   5  12
ENDBRANCH   1   5
BRANCH   2  14
ATOM     14  C   LIG    1       28.061 -20.117   7.572  0.00  0.00    +0.115 C 
BRANCH  14  15
ATOM     15  C   LIG    1       29.144 -20.358   6.522  0.00  0.00    +0.139 C 
BRANCH  15  16
ATOM     16  C   LIG    1       30.358 -19.522   6.793  0.00  0.00    +0.306 C 
ATOM     17  O   LIG    1       30.480 -18.320   6.562  0.00  0.00    -0.251 OA
BRANCH  16  18
ATOM     18  O   LIG    1       31.370 -20.215   7.349  0.00  0.00    -0.481 OA
ATOM     19  H   LIG    1       32.152 -19.623   7.295  0.00  0.00    +0.295 HD
ENDBRANCH  16  18
ENDBRANCH  15  16
ENDBRANCH  14  15
ENDBRANCH   2  14
TORSDOF 9
ENDMDL
MODEL 8
REMARK VINA RESULT:      -6.2      4.788      6.921
REMARK  Name = *****
REMARK                            x       y       z     vdW  Elec       q    Type
REMARK                         _______ _______ _______ _____ _____    ______ ____
ROOT
ATOM      1  C   LIG    1       27.070 -20.499   7.123  0.00  0.00    +0.242 C 
ATOM      2  N   LIG    1       28.341 -20.937   6.812  0.00  0.00    -0.313 N 
ATOM      3  H   LIG    1       28.609 -20.868   5.834  0.00  0.00    +0.149 HD
ATOM      4  O   LIG    1       26.697 -20.285   8.274  0.00  0.00    -0.273 OA
ENDROOT
BRANCH   1   5
ATOM      5  C   LIG    1       26.100 -20.323   5.916  0.00  0.00    +0.208 C 
BRANCH   5   7
ATOM      6  C   LIG    1       25.392 -22.763   6.336  0.00  0.00    +0.016 C 
ATOM      7  C   LIG    1       24.939 -21.368   5.865  0.00  0.00    +0.023 C 
ATOM      8  C   LIG    1       24.413 -21.535   4.416  0.00  0.00    +0.016 C 
BRANCH   7   9
ATOM      9  C   LIG    1       23.785 -20.872   6.768  0.00  0.00    +0.165 C 
BRANCH   9  10
ATOM     10  O   LIG    1       23.854 -21.427   8.076  0.00  0.00    -0.394 OA
ATOM     11  H   LIG    1       24.790 -21.466   8.334  0.00  0.00    +0.209 HD
ENDBRANCH   9  10
ENDBRANCH   7   9
ENDBRANCH   5   7
BRANCH   5  12
ATOM     12  O   LIG    1       26.835 -20.309   4.691  0.00  0.00    -0.382 OA
ATOM     13  H   LIG    1       27.221 -19.416   4.615  0.00  0.00    +0.210 HD
ENDBRANCH   5  12
ENDBRANCH   1   5
BRANCH   2  14
ATOM     14  C   LIG    1       29.398 -21.152   7.803  0.00  0.00    +0.115 C 
BRANCH  14  15
ATOM     15  C   LIG    1       30.545 -20.146   7.738  0.00  0.00    +0.139 C 
BRANCH  15  16
ATOM     16  C   LIG    1       31.224 -20.011   9.067  0.00  0.00    +0.306 C 
ATOM     17  O   LIG    1       30.973 -19.171   9.931  0.00  0.00    -0.251 OA
BRANCH  16  18
ATOM     18  O   LIG    1       32.184 -20.932   9.272  0.00  0.00    -0.481 OA
ATOM     19  H   LIG    1       31.785 -21.596   9.875  0.00  0.00    +0.295 HD
ENDBRANCH  16  18
ENDBRANCH  15  16
ENDBRANCH  14  15
ENDBRANCH   2  14
TORSDOF 9
ENDMDL
MODEL 9
REMARK VINA RESULT:      -6.1      5.114      7.618
REMARK  Name = *****
REMARK                            x       y       z     vdW  Elec       q    Type
REMARK                         _______ _______ _______ _____ _____    ______ ____
ROOT
ATOM      1  C   LIG    1       27.764 -21.085   7.751  0.00  0.00    +0.242 C 
ATOM      2  N   LIG    1       28.223 -19.804   7.981  0.00  0.00    -0.313 N 
ATOM      3  H   LIG    1       27.708 -19.263   8.669  0.00  0.00    +0.149 HD
ATOM      4  O   LIG    1       28.417 -21.933   7.149  0.00  0.00    -0.273 OA
ENDROOT
BRANCH   1   5
ATOM      5  C   LIG    1       26.328 -21.394   8.273  0.00  0.00    +0.208 C 
BRANCH   5   7
ATOM      6  C   LIG    1       25.613 -20.613   5.926  0.00  0.00    +0.016 C 
ATOM      7  C   LIG    1       25.238 -21.460   7.156  0.00  0.00    +0.023 C 
ATOM      8  C   LIG    1       23.883 -20.913   7.677  0.00  0.00    +0.016 C 
BRANCH   7   9
ATOM      9  C   LIG    1       25.055 -22.934   6.726  0.00  0.00    +0.165 C 
BRANCH   9  10
ATOM     10  O   LIG    1       25.271 -23.115   5.332  0.00  0.00    -0.394 OA
ATOM     11  H   LIG    1       24.867 -23.962   5.075  0.00  0.00    +0.209 HD
ENDBRANCH   9  10
ENDBRANCH   7   9
ENDBRANCH   5   7
BRANCH   5  12
ATOM     12  O   LIG    1       25.965 -20.462   9.294  0.00  0.00    -0.382 OA
ATOM     13  H   LIG    1       25.610 -19.678   8.833  0.00  0.00    +0.210 HD
ENDBRANCH   5  12
ENDBRANCH   1   5
BRANCH   2  14
ATOM     14  C   LIG    1       29.548 -19.325   7.578  0.00  0.00    +0.115 C 
BRANCH  14  15
ATOM     15  C   LIG    1       30.143 -18.256   8.491  0.00  0.00    +0.139 C 
BRANCH  15  16
ATOM     16  C   LIG    1       31.091 -18.857   9.484  0.00  0.00    +0.306 C 
ATOM     17  O   LIG    1       32.095 -19.517   9.224  0.00  0.00    -0.251 OA
BRANCH  16  18
ATOM     18  O   LIG    1       30.753 -18.605  10.763  0.00  0.00    -0.481 OA
ATOM     19  H   LIG    1       30.995 -19.416  11.261  0.00  0.00    +0.295 HD
ENDBRANCH  16  18
ENDBRANCH  15  16
ENDBRANCH  14  15
ENDBRANCH   2  14
TORSDOF 9
ENDMDL
