MODEL 1
REMARK VINA RESULT:      -4.1      0.000      0.000
REMARK  Name = *****
REMARK                            x       y       z     vdW  Elec       q    Type
REMARK                         _______ _______ _______ _____ _____    ______ ____
ROOT
ATOM      1  C   LIG    1       22.781 -18.534   4.014  0.00  0.00    +0.216 A 
ATOM      2  N   LIG    1       23.396 -19.704   4.250  0.00  0.00    -0.198 NA
ATOM      3  C   LIG    1       24.756 -19.773   4.229  0.00  0.00    +0.152 A 
ATOM      4  C   LIG    1       25.459 -18.587   3.947  0.00  0.00    +0.148 A 
ATOM      5  N   LIG    1       26.805 -18.299   3.857  0.00  0.00    -0.231 NA
ATOM      6  C   LIG    1       26.856 -17.023   3.535  0.00  0.00    +0.202 A 
ATOM      7  N   LIG    1       25.608 -16.472   3.396  0.00  0.00    -0.308 N 
ATOM      8  C   LIG    1       24.699 -17.461   3.679  0.00  0.00    +0.168 A 
ATOM      9  N   LIG    1       23.361 -17.370   3.684  0.00  0.00    -0.195 NA
ENDROOT
BRANCH   7  10
ATOM     10  C   LIG    1       25.267 -15.102   3.039  0.00  0.00    +0.113 C 
ATOM     11  C   LIG    1       26.432 -14.311   2.408  0.00  0.00    +0.039 C 
ATOM     12  C   LIG    1       26.902 -13.282   3.456  0.00  0.00    +0.039 C 
ATOM     13  C   LIG    1       25.770 -13.266   4.439  0.00  0.00    -0.023 C 
ATOM     14  C   LIG    1       24.885 -14.247   4.211  0.00  0.00    -0.006 C 
BRANCH  12  15
ATOM     15  C   LIG    1       28.248 -13.646   4.091  0.00  0.00    +0.163 C 
BRANCH  15  16
ATOM     16  O   LIG    1       29.330 -13.258   3.249  0.00  0.00    -0.394 OA
ATOM     17  H   LIG    1       29.862 -14.053   3.073  0.00  0.00    +0.209 HD
ENDBRANCH  15  16
ENDBRANCH  12  15
ENDBRANCH   7  10
BRANCH   1  18
ATOM     18  N   LIG    1       21.402 -18.556   4.076  0.00  0.00    -0.327 N 
ATOM     19  H   LIG    1       21.077 -17.665   4.428  0.00  0.00    +0.145 HD
ATOM     20  H   LIG    1       21.086 -19.386   4.553  0.00  0.00    +0.145 HD
ENDBRANCH   1  18
BRANCH   3  21
ATOM     21  N   LIG    1       25.424 -20.990   4.453  0.00  0.00    -0.324 N 
ATOM     22  H   LIG    1       26.087 -21.203   3.715  0.00  0.00    +0.148 HD
BRANCH  21  23
ATOM     23  C   LIG    1       25.538 -21.564   5.785  0.00  0.00    +0.072 C 
ATOM     24  C   LIG    1       26.607 -21.090   6.732  0.00  0.00    +0.024 C 
ATOM     25  C   LIG    1       25.166 -20.774   7.007  0.00  0.00    +0.024 C 
ENDBRANCH  21  23
ENDBRANCH   3  21
TORSDOF 6
ENDMDL
MODEL 2
REMARK VINA RESULT:      -3.7      2.115      3.490
REMARK  Name = *****
REMARK                            x       y       z     vdW  Elec       q    Type
REMARK                         _______ _______ _______ _____ _____    ______ ____
ROOT
ATOM      1  C   LIG    1       28.338 -19.083   5.556  0.00  0.00    +0.216 A 
ATOM      2  N   LIG    1       27.439 -20.075   5.466  0.00  0.00    -0.198 NA
ATOM      3  C   LIG    1       26.296 -19.893   4.747  0.00  0.00    +0.152 A 
ATOM      4  C   LIG    1       26.114 -18.642   4.130  0.00  0.00    +0.148 A 
ATOM      5  N   LIG    1       25.106 -18.130   3.340  0.00  0.00    -0.231 NA
ATOM      6  C   LIG    1       25.475 -16.892   3.083  0.00  0.00    +0.202 A 
ATOM      7  N   LIG    1       26.666 -16.570   3.681  0.00  0.00    -0.308 N 
ATOM      8  C   LIG    1       27.099 -17.693   4.341  0.00  0.00    +0.168 A 
ATOM      9  N   LIG    1       28.227 -17.845   5.051  0.00  0.00    -0.195 NA
ENDROOT
BRANCH   7  10
ATOM     10  C   LIG    1       27.379 -15.302   3.636  0.00  0.00    +0.113 C 
ATOM     11  C   LIG    1       27.000 -14.330   4.773  0.00  0.00    +0.039 C 
ATOM     12  C   LIG    1       26.168 -13.195   4.143  0.00  0.00    +0.039 C 
ATOM     13  C   LIG    1       26.441 -13.356   2.677  0.00  0.00    -0.023 C 
ATOM     14  C   LIG    1       27.099 -14.492   2.404  0.00  0.00    -0.006 C 
BRANCH  12  15
ATOM     15  C   LIG    1       24.679 -13.280   4.492  0.00  0.00    +0.163 C 
BRANCH  15  16
ATOM     16  O   LIG    1       23.895 -13.519   3.328  0.00  0.00    -0.394 OA
ATOM     17  H   LIG    1       23.179 -14.128   3.578  0.00  0.00    +0.209 HD
ENDBRANCH  15  16
ENDBRANCH  12  15
ENDBRANCH   7  10
BRANCH   1  18
ATOM     18  N   LIG    1       29.475 -19.366   6.288  0.00  0.00    -0.327 N 
ATOM     19  H   LIG    1       29.290 -19.174   7.264  0.00  0.00    +0.145 HD
ATOM     20  H   LIG    1       30.279 -18.920   5.872  0.00  0.00    +0.145 HD
ENDBRANCH   1  18
BRANCH   3  21
ATOM     21  N   LIG    1       25.329 -20.909   4.654  0.00  0.00    -0.324 N 
ATOM     22  H   LIG    1       25.655 -21.698   4.104  0.00  0.00    +0.148 HD
BRANCH  21  23
ATOM     23  C   LIG    1       24.259 -21.038   5.632  0.00  0.00    +0.072 C 
ATOM     24  C   LIG    1       23.071 -20.116   5.591  0.00  0.00    +0.024 C 
ATOM     25  C   LIG    1       22.909 -21.567   5.242  0.00  0.00    +0.024 C 
ENDBRANCH  21  23
ENDBRANCH   3  21
TORSDOF 6
ENDMDL
MODEL 3
REMARK VINA RESULT:      -3.1      2.539      6.194
REMARK  Name = *****
REMARK                            x       y       z     vdW  Elec       q    Type
REMARK                         _______ _______ _______ _____ _____    ______ ____
ROOT
ATOM      1  C   LIG    1       24.020 -14.710   4.111  0.00  0.00    +0.216 A 
ATOM      2  N   LIG    1       25.281 -14.275   3.965  0.00  0.00    -0.198 NA
ATOM      3  C   LIG    1       26.276 -15.161   3.677  0.00  0.00    +0.152 A 
ATOM      4  C   LIG    1       25.918 -16.516   3.553  0.00  0.00    +0.148 A 
ATOM      5  N   LIG    1       26.648 -17.650   3.265  0.00  0.00    -0.231 NA
ATOM      6  C   LIG    1       25.774 -18.636   3.316  0.00  0.00    +0.202 A 
ATOM      7  N   LIG    1       24.515 -18.197   3.638  0.00  0.00    -0.308 N 
ATOM      8  C   LIG    1       24.588 -16.832   3.773  0.00  0.00    +0.168 A 
ATOM      9  N   LIG    1       23.594 -15.982   4.066  0.00  0.00    -0.195 NA
ENDROOT
BRANCH   7  10
ATOM     10  C   LIG    1       23.303 -18.987   3.798  0.00  0.00    +0.113 C 
ATOM     11  C   LIG    1       22.792 -19.062   5.252  0.00  0.00    +0.039 C 
ATOM     12  C   LIG    1       23.070 -20.492   5.758  0.00  0.00    +0.039 C 
ATOM     13  C   LIG    1       23.348 -21.246   4.491  0.00  0.00    -0.023 C 
ATOM     14  C   LIG    1       23.470 -20.433   3.433  0.00  0.00    -0.006 C 
BRANCH  12  15
ATOM     15  C   LIG    1       24.224 -20.558   6.765  0.00  0.00    +0.163 C 
BRANCH  15  16
ATOM     16  O   LIG    1       25.463 -20.792   6.105  0.00  0.00    -0.394 OA
ATOM     17  H   LIG    1       25.751 -19.949   5.715  0.00  0.00    +0.209 HD
ENDBRANCH  15  16
ENDBRANCH  12  15
ENDBRANCH   7  10
BRANCH   1  18
ATOM     18  N   LIG    1       23.076 -13.739   4.382  0.00  0.00    -0.327 N 
ATOM     19  H   LIG    1       22.281 -13.878   3.773  0.00  0.00    +0.145 HD
ATOM     20  H   LIG    1       23.505 -12.825   4.384  0.00  0.00    +0.145 HD
ENDBRANCH   1  18
BRANCH   3  21
ATOM     21  N   LIG    1       27.608 -14.734   3.538  0.00  0.00    -0.324 N 
ATOM     22  H   LIG    1       28.193 -15.443   3.107  0.00  0.00    +0.148 HD
BRANCH  21  23
ATOM     23  C   LIG    1       27.960 -13.322   3.514  0.00  0.00    +0.072 C 
ATOM     24  C   LIG    1       28.373 -12.617   4.778  0.00  0.00    +0.024 C 
ATOM     25  C   LIG    1       29.381 -12.873   3.697  0.00  0.00    +0.024 C 
ENDBRANCH  21  23
ENDBRANCH   3  21
TORSDOF 6
ENDMDL
MODEL 4
REMARK VINA RESULT:      -2.8      2.999      6.819
REMARK  Name = *****
REMARK                            x       y       z     vdW  Elec       q    Type
REMARK                         _______ _______ _______ _____ _____    ______ ____
ROOT
ATOM      1  C   LIG    1       26.671 -15.215   3.329  0.00  0.00    +0.216 A 
ATOM      2  N   LIG    1       25.773 -14.229   3.483  0.00  0.00    -0.198 NA
ATOM      3  C   LIG    1       24.475 -14.530   3.767  0.00  0.00    +0.152 A 
ATOM      4  C   LIG    1       24.138 -15.892   3.878  0.00  0.00    +0.148 A 
ATOM      5  N   LIG    1       22.952 -16.539   4.158  0.00  0.00    -0.231 NA
ATOM      6  C   LIG    1       23.245 -17.822   4.096  0.00  0.00    +0.202 A 
ATOM      7  N   LIG    1       24.560 -18.039   3.774  0.00  0.00    -0.308 N 
ATOM      8  C   LIG    1       25.152 -16.806   3.651  0.00  0.00    +0.168 A 
ATOM      9  N   LIG    1       26.433 -16.536   3.362  0.00  0.00    -0.195 NA
ENDROOT
BRANCH   7  10
ATOM     10  C   LIG    1       25.243 -19.313   3.604  0.00  0.00    +0.113 C 
ATOM     11  C   LIG    1       24.291 -20.519   3.459  0.00  0.00    +0.039 C 
ATOM     12  C   LIG    1       24.384 -21.331   4.767  0.00  0.00    +0.039 C 
ATOM     13  C   LIG    1       25.629 -20.793   5.406  0.00  0.00    -0.023 C 
ATOM     14  C   LIG    1       26.095 -19.706   4.775  0.00  0.00    -0.006 C 
BRANCH  12  15
ATOM     15  C   LIG    1       23.140 -21.185   5.651  0.00  0.00    +0.163 C 
BRANCH  15  16
ATOM     16  O   LIG    1       21.952 -21.209   4.866  0.00  0.00    -0.394 OA
ATOM     17  H   LIG    1       21.846 -22.113   4.525  0.00  0.00    +0.209 HD
ENDBRANCH  15  16
ENDBRANCH  12  15
ENDBRANCH   7  10
BRANCH   1  18
ATOM     18  N   LIG    1       27.966 -14.815   3.064  0.00  0.00    -0.327 N 
ATOM     19  H   LIG    1       28.526 -15.633   2.864  0.00  0.00    +0.145 HD
ATOM     20  H   LIG    1       28.294 -14.192   3.786  0.00  0.00    +0.145 HD
ENDBRANCH   1  18
BRANCH   3  21
ATOM     21  N   LIG    1       23.512 -13.518   3.913  0.00  0.00    -0.324 N 
ATOM     22  H   LIG    1       22.600 -13.890   4.161  0.00  0.00    +0.148 HD
BRANCH  21  23
ATOM     23  C   LIG    1       23.887 -12.141   4.199  0.00  0.00    +0.072 C 
ATOM     24  C   LIG    1       23.369 -11.448   5.430  0.00  0.00    +0.024 C 
ATOM     25  C   LIG    1       24.822 -11.809   5.326  0.00  0.00    +0.024 C 
ENDBRANCH  21  23
ENDBRANCH   3  21
TORSDOF 6
ENDMDL
MODEL 5
REMARK VINA RESULT:      -1.4      2.141      3.264
REMARK  Name = *****
REMARK                            x       y       z     vdW  Elec       q    Type
REMARK                         _______ _______ _______ _____ _____    ______ ____
ROOT
ATOM      1  C   LIG    1       25.413 -18.909   3.268  0.00  0.00    +0.216 A 
ATOM      2  N   LIG    1       24.288 -19.505   3.691  0.00  0.00    -0.198 NA
ATOM      3  C   LIG    1       23.256 -18.752   4.163  0.00  0.00    +0.152 A 
ATOM      4  C   LIG    1       23.433 -17.356   4.187  0.00  0.00    +0.148 A 
ATOM      5  N   LIG    1       22.615 -16.318   4.582  0.00  0.00    -0.231 NA
ATOM      6  C   LIG    1       23.337 -15.231   4.403  0.00  0.00    +0.202 A 
ATOM      7  N   LIG    1       24.592 -15.515   3.926  0.00  0.00    -0.308 N 
ATOM      8  C   LIG    1       24.660 -16.876   3.763  0.00  0.00    +0.168 A 
ATOM      9  N   LIG    1       25.694 -17.597   3.303  0.00  0.00    -0.195 NA
ENDROOT
BRANCH   7  10
ATOM     10  C   LIG    1       25.667 -14.582   3.620  0.00  0.00    +0.113 C 
ATOM     11  C   LIG    1       25.620 -13.280   4.447  0.00  0.00    +0.039 C 
ATOM     12  C   LIG    1       25.183 -12.151   3.492  0.00  0.00    +0.039 C 
ATOM     13  C   LIG    1       25.381 -12.764   2.138  0.00  0.00    -0.023 C 
ATOM     14  C   LIG    1       25.647 -14.076   2.207  0.00  0.00    -0.006 C 
BRANCH  12  15
ATOM     15  C   LIG    1       23.744 -11.683   3.738  0.00  0.00    +0.163 C 
BRANCH  15  16
ATOM     16  O   LIG    1       23.439 -11.684   5.129  0.00  0.00    -0.394 OA
ATOM     17  H   LIG    1       24.033 -11.045   5.559  0.00  0.00    +0.209 HD
ENDBRANCH  15  16
ENDBRANCH  12  15
ENDBRANCH   7  10
BRANCH   1  18
ATOM     18  N   LIG    1       26.396 -19.751   2.787  0.00  0.00    -0.327 N 
ATOM     19  H   LIG    1       27.204 -19.198   2.532  0.00  0.00    +0.145 HD
ATOM     20  H   LIG    1       26.016 -20.368   2.086  0.00  0.00    +0.145 HD
ENDBRANCH   1  18
BRANCH   3  21
ATOM     21  N   LIG    1       22.074 -19.352   4.631  0.00  0.00    -0.324 N 
ATOM     22  H   LIG    1       21.265 -19.086   4.080  0.00  0.00    +0.148 HD
BRANCH  21  23
ATOM     23  C   LIG    1       22.100 -20.571   5.427  0.00  0.00    +0.072 C 
ATOM     24  C   LIG    1       23.217 -21.566   5.262  0.00  0.00    +0.024 C 
ATOM     25  C   LIG    1       23.107 -20.761   6.524  0.00  0.00    +0.024 C 
ENDBRANCH  21  23
ENDBRANCH   3  21
TORSDOF 6
ENDMDL
MODEL 6
REMARK VINA RESULT:      -1.2      1.580      2.984
REMARK  Name = *****
REMARK                            x       y       z     vdW  Elec       q    Type
REMARK                         _______ _______ _______ _____ _____    ______ ____
ROOT
ATOM      1  C   LIG    1       26.245 -17.335   3.593  0.00  0.00    +0.216 A 
ATOM      2  N   LIG    1       25.726 -18.573   3.610  0.00  0.00    -0.198 NA
ATOM      3  C   LIG    1       24.393 -18.747   3.831  0.00  0.00    +0.152 A 
ATOM      4  C   LIG    1       23.617 -17.592   4.042  0.00  0.00    +0.148 A 
ATOM      5  N   LIG    1       22.271 -17.403   4.279  0.00  0.00    -0.231 NA
ATOM      6  C   LIG    1       22.134 -16.101   4.426  0.00  0.00    +0.202 A 
ATOM      7  N   LIG    1       23.329 -15.437   4.310  0.00  0.00    -0.308 N 
ATOM      8  C   LIG    1       24.288 -16.381   4.043  0.00  0.00    +0.168 A 
ATOM      9  N   LIG    1       25.599 -16.185   3.837  0.00  0.00    -0.195 NA
ENDROOT
BRANCH   7  10
ATOM     10  C   LIG    1       23.574 -14.006   4.424  0.00  0.00    +0.113 C 
ATOM     11  C   LIG    1       23.861 -13.312   3.075  0.00  0.00    +0.039 C 
ATOM     12  C   LIG    1       25.361 -12.957   3.057  0.00  0.00    +0.039 C 
ATOM     13  C   LIG    1       25.755 -13.099   4.497  0.00  0.00    -0.023 C 
ATOM     14  C   LIG    1       24.789 -13.662   5.235  0.00  0.00    -0.006 C 
BRANCH  12  15
ATOM     15  C   LIG    1       26.177 -13.851   2.117  0.00  0.00    +0.163 C 
BRANCH  15  16
ATOM     16  O   LIG    1       27.490 -14.061   2.626  0.00  0.00    -0.394 OA
ATOM     17  H   LIG    1       27.984 -13.230   2.509  0.00  0.00    +0.209 HD
ENDBRANCH  15  16
ENDBRANCH  12  15
ENDBRANCH   7  10
BRANCH   1  18
ATOM     18  N   LIG    1       27.601 -17.255   3.341  0.00  0.00    -0.327 N 
ATOM     19  H   LIG    1       27.793 -17.695   2.451  0.00  0.00    +0.145 HD
ATOM     20  H   LIG    1       28.125 -17.577   4.140  0.00  0.00    +0.145 HD
ENDBRANCH   1  18
BRANCH   3  21
ATOM     21  N   LIG    1       23.827 -20.033   3.873  0.00  0.00    -0.324 N 
ATOM     22  H   LIG    1       23.739 -20.443   2.949  0.00  0.00    +0.148 HD
BRANCH  21  23
ATOM     23  C   LIG    1       23.870 -20.847   5.079  0.00  0.00    +0.072 C 
ATOM     24  C   LIG    1       23.225 -20.364   6.350  0.00  0.00    +0.024 C 
ATOM     25  C   LIG    1       22.637 -21.525   5.603  0.00  0.00    +0.024 C 
ENDBRANCH  21  23
ENDBRANCH   3  21
TORSDOF 6
ENDMDL
MODEL 7
REMARK VINA RESULT:      -1.2      2.847      6.221
REMARK  Name = *****
REMARK                            x       y       z     vdW  Elec       q    Type
REMARK                         _______ _______ _______ _____ _____    ______ ____
ROOT
ATOM      1  C   LIG    1       22.580 -16.974   4.247  0.00  0.00    +0.216 A 
ATOM      2  N   LIG    1       22.782 -15.647   4.212  0.00  0.00    -0.198 NA
ATOM      3  C   LIG    1       24.026 -15.157   3.948  0.00  0.00    +0.152 A 
ATOM      4  C   LIG    1       25.055 -16.091   3.730  0.00  0.00    +0.148 A 
ATOM      5  N   LIG    1       26.395 -15.949   3.435  0.00  0.00    -0.231 NA
ATOM      6  C   LIG    1       26.859 -17.181   3.374  0.00  0.00    +0.202 A 
ATOM      7  N   LIG    1       25.888 -18.114   3.629  0.00  0.00    -0.308 N 
ATOM      8  C   LIG    1       24.718 -17.428   3.839  0.00  0.00    +0.168 A 
ATOM      9  N   LIG    1       23.505 -17.936   4.107  0.00  0.00    -0.195 NA
ENDROOT
BRANCH   7  10
ATOM     10  C   LIG    1       26.023 -19.563   3.663  0.00  0.00    +0.113 C 
ATOM     11  C   LIG    1       24.681 -20.320   3.571  0.00  0.00    +0.039 C 
ATOM     12  C   LIG    1       24.400 -20.917   4.964  0.00  0.00    +0.039 C 
ATOM     13  C   LIG    1       25.733 -20.816   5.645  0.00  0.00    -0.023 C 
ATOM     14  C   LIG    1       26.610 -20.089   4.940  0.00  0.00    -0.006 C 
BRANCH  12  15
ATOM     15  C   LIG    1       23.281 -20.187   5.715  0.00  0.00    +0.163 C 
BRANCH  15  16
ATOM     16  O   LIG    1       22.040 -20.313   5.028  0.00  0.00    -0.394 OA
ATOM     17  H   LIG    1       22.223 -20.737   4.171  0.00  0.00    +0.209 HD
ENDBRANCH  15  16
ENDBRANCH  12  15
ENDBRANCH   7  10
BRANCH   1  18
ATOM     18  N   LIG    1       21.284 -17.378   4.502  0.00  0.00    -0.327 N 
ATOM     19  H   LIG    1       20.649 -16.766   4.007  0.00  0.00    +0.145 HD
ATOM     20  H   LIG    1       21.141 -17.491   5.494  0.00  0.00    +0.145 HD
ENDBRANCH   1  18
BRANCH   3  21
ATOM     21  N   LIG    1       24.269 -13.772   3.925  0.00  0.00    -0.324 N 
ATOM     22  H   LIG    1       25.004 -13.503   4.571  0.00  0.00    +0.148 HD
BRANCH  21  23
ATOM     23  C   LIG    1       23.909 -12.952   2.778  0.00  0.00    +0.072 C 
ATOM     24  C   LIG    1       23.904 -11.451   2.884  0.00  0.00    +0.024 C 
ATOM     25  C   LIG    1       24.941 -12.142   2.048  0.00  0.00    +0.024 C 
ENDBRANCH  21  23
ENDBRANCH   3  21
TORSDOF 6
ENDMDL
