MODEL 1
REMARK VINA RESULT:      -4.2      0.000      0.000
REMARK  Name = *****
REMARK                            x       y       z     vdW  Elec       q    Type
REMARK                         _______ _______ _______ _____ _____    ______ ____
ROOT
ATOM      1  P   LIG    1       26.852 -13.920   3.330  0.00  0.00    +0.359 P 
ATOM      2  O   LIG    1       26.883 -14.457   1.904  0.00  0.00    -0.256 OA
ENDROOT
BRANCH   1   5
ATOM      3  C   LIG    1       23.602 -13.974   3.834  0.00  0.00    +0.041 C 
ATOM      4  C   LIG    1       24.180 -12.803   3.120  0.00  0.00    +0.157 C 
ATOM      5  C   LIG    1       25.647 -12.667   2.761  0.00  0.00    +0.260 C 
ATOM      6  O   LIG    1       24.650 -13.123   1.812  0.00  0.00    -0.356 OA
ENDBRANCH   1   5
BRANCH   1   7
ATOM      7  O   LIG    1       27.992 -15.106   3.868  0.00  0.00    -0.322 OA
ATOM      8  H   LIG    1       28.597 -15.241   3.112  0.00  0.00    +0.220 HD
ENDBRANCH   1   7
BRANCH   1   9
ATOM      9  O   LIG    1       28.056 -12.812   3.338  0.00  0.00    -0.322 OA
ATOM     10  H   LIG    1       27.675 -11.915   3.358  0.00  0.00    +0.220 HD
ENDBRANCH   1   9
TORSDOF 3
ENDMDL
MODEL 2
REMARK VINA RESULT:      -4.1      2.288      3.655
REMARK  Name = *****
REMARK                            x       y       z     vdW  Elec       q    Type
REMARK                         _______ _______ _______ _____ _____    ______ ____
ROOT
ATOM      1  P   LIG    1       24.778 -13.288   3.830  0.00  0.00    +0.359 P 
ATOM      2  O   LIG    1       24.272 -13.057   2.411  0.00  0.00    -0.256 OA
ENDROOT
BRANCH   1   5
ATOM      3  C   LIG    1       28.066 -13.364   3.767  0.00  0.00    +0.041 C 
ATOM      4  C   LIG    1       27.329 -14.552   3.259  0.00  0.00    +0.157 C 
ATOM      5  C   LIG    1       25.818 -14.639   3.167  0.00  0.00    +0.260 C 
ATOM      6  O   LIG    1       26.652 -14.305   2.028  0.00  0.00    -0.356 OA
ENDBRANCH   1   5
BRANCH   1   7
ATOM      7  O   LIG    1       23.794 -12.010   4.456  0.00  0.00    -0.322 OA
ATOM      8  H   LIG    1       23.233 -12.429   5.138  0.00  0.00    +0.220 HD
ENDBRANCH   1   7
BRANCH   1   9
ATOM      9  O   LIG    1       23.705 -14.363   4.437  0.00  0.00    -0.322 OA
ATOM     10  H   LIG    1       22.822 -13.954   4.485  0.00  0.00    +0.220 HD
ENDBRANCH   1   9
TORSDOF 3
ENDMDL
MODEL 3
REMARK VINA RESULT:      -3.8      1.407      1.905
REMARK  Name = *****
REMARK                            x       y       z     vdW  Elec       q    Type
REMARK                         _______ _______ _______ _____ _____    ______ ____
ROOT
ATOM      1  P   LIG    1       27.057 -13.457   4.578  0.00  0.00    +0.359 P 
ATOM      2  O   LIG    1       27.503 -14.894   4.336  0.00  0.00    -0.256 OA
ENDROOT
BRANCH   1   5
ATOM      3  C   LIG    1       24.221 -13.241   2.925  0.00  0.00    +0.041 C 
ATOM      4  C   LIG    1       25.489 -13.139   2.154  0.00  0.00    +0.157 C 
ATOM      5  C   LIG    1       26.869 -13.282   2.766  0.00  0.00    +0.260 C 
ATOM      6  O   LIG    1       26.200 -14.373   2.084  0.00  0.00    -0.356 OA
ENDBRANCH   1   5
BRANCH   1   7
ATOM      7  O   LIG    1       27.234 -13.623   6.290  0.00  0.00    -0.322 OA
ATOM      8  H   LIG    1       26.330 -13.532   6.652  0.00  0.00    +0.220 HD
ENDBRANCH   1   7
BRANCH   1   9
ATOM      9  O   LIG    1       28.462 -12.620   4.549  0.00  0.00    -0.322 OA
ATOM     10  H   LIG    1       29.198 -13.206   4.804  0.00  0.00    +0.220 HD
ENDBRANCH   1   9
TORSDOF 3
ENDMDL
MODEL 4
REMARK VINA RESULT:      -3.7      6.585      7.601
REMARK  Name = *****
REMARK                            x       y       z     vdW  Elec       q    Type
REMARK                         _______ _______ _______ _____ _____    ______ ____
ROOT
ATOM      1  P   LIG    1       25.231 -20.449   5.183  0.00  0.00    +0.359 P 
ATOM      2  O   LIG    1       25.704 -21.572   6.097  0.00  0.00    -0.256 OA
ENDROOT
BRANCH   1   5
ATOM      3  C   LIG    1       22.501 -18.770   4.442  0.00  0.00    +0.041 C 
ATOM      4  C   LIG    1       22.350 -20.087   5.117  0.00  0.00    +0.157 C 
ATOM      5  C   LIG    1       23.514 -20.945   5.575  0.00  0.00    +0.260 C 
ATOM      6  O   LIG    1       22.785 -20.072   6.475  0.00  0.00    -0.356 OA
ENDBRANCH   1   5
BRANCH   1   7
ATOM      7  O   LIG    1       26.854 -19.980   4.813  0.00  0.00    -0.322 OA
ATOM      8  H   LIG    1       27.338 -20.040   5.660  0.00  0.00    +0.220 HD
ENDBRANCH   1   7
BRANCH   1   9
ATOM      9  O   LIG    1       25.144 -21.172   3.718  0.00  0.00    -0.322 OA
ATOM     10  H   LIG    1       24.234 -21.107   3.374  0.00  0.00    +0.220 HD
ENDBRANCH   1   9
TORSDOF 3
ENDMDL
MODEL 5
REMARK VINA RESULT:      -3.6      2.292      3.678
REMARK  Name = *****
REMARK                            x       y       z     vdW  Elec       q    Type
REMARK                         _______ _______ _______ _____ _____    ______ ____
ROOT
ATOM      1  P   LIG    1       24.694 -13.165   3.270  0.00  0.00    +0.359 P 
ATOM      2  O   LIG    1       23.453 -14.049   3.306  0.00  0.00    -0.256 OA
ENDROOT
BRANCH   1   5
ATOM      3  C   LIG    1       27.972 -13.359   3.456  0.00  0.00    +0.041 C 
ATOM      4  C   LIG    1       27.176 -14.540   3.887  0.00  0.00    +0.157 C 
ATOM      5  C   LIG    1       25.664 -14.622   3.802  0.00  0.00    +0.260 C 
ATOM      6  O   LIG    1       26.536 -15.209   2.802  0.00  0.00    -0.356 OA
ENDBRANCH   1   5
BRANCH   1   7
ATOM      7  O   LIG    1       23.775 -11.788   2.768  0.00  0.00    -0.322 OA
ATOM      8  H   LIG    1       22.840 -12.061   2.846  0.00  0.00    +0.220 HD
ENDBRANCH   1   7
BRANCH   1   9
ATOM      9  O   LIG    1       24.747 -12.535   4.779  0.00  0.00    -0.322 OA
ATOM     10  H   LIG    1       23.841 -12.364   5.095  0.00  0.00    +0.220 HD
ENDBRANCH   1   9
TORSDOF 3
ENDMDL
MODEL 6
REMARK VINA RESULT:      -3.5      6.580      6.974
REMARK  Name = *****
REMARK                            x       y       z     vdW  Elec       q    Type
REMARK                         _______ _______ _______ _____ _____    ______ ____
ROOT
ATOM      1  P   LIG    1       25.690 -20.119   5.432  0.00  0.00    +0.359 P 
ATOM      2  O   LIG    1       25.282 -21.572   5.222  0.00  0.00    -0.256 OA
ENDROOT
BRANCH   1   5
ATOM      3  C   LIG    1       22.571 -19.261   4.835  0.00  0.00    +0.041 C 
ATOM      4  C   LIG    1       23.515 -19.311   3.686  0.00  0.00    +0.157 C 
ATOM      5  C   LIG    1       24.963 -19.748   3.795  0.00  0.00    +0.260 C 
ATOM      6  O   LIG    1       23.910 -20.639   3.346  0.00  0.00    -0.356 OA
ENDBRANCH   1   5
BRANCH   1   7
ATOM      7  O   LIG    1       26.377 -20.470   6.981  0.00  0.00    -0.322 OA
ATOM      8  H   LIG    1       27.320 -20.661   6.806  0.00  0.00    +0.220 HD
ENDBRANCH   1   7
BRANCH   1   9
ATOM      9  O   LIG    1       27.203 -20.063   4.813  0.00  0.00    -0.322 OA
ATOM     10  H   LIG    1       27.817 -19.705   5.480  0.00  0.00    +0.220 HD
ENDBRANCH   1   9
TORSDOF 3
ENDMDL
MODEL 7
REMARK VINA RESULT:      -3.3      7.203      7.922
REMARK  Name = *****
REMARK                            x       y       z     vdW  Elec       q    Type
REMARK                         _______ _______ _______ _____ _____    ______ ____
ROOT
ATOM      1  P   LIG    1       23.171 -20.813   5.428  0.00  0.00    +0.359 P 
ATOM      2  O   LIG    1       22.626 -19.450   5.835  0.00  0.00    -0.256 OA
ENDROOT
BRANCH   1   5
ATOM      3  C   LIG    1       26.107 -19.697   4.451  0.00  0.00    +0.041 C 
ATOM      4  C   LIG    1       24.987 -19.669   3.471  0.00  0.00    +0.157 C 
ATOM      5  C   LIG    1       23.566 -20.091   3.794  0.00  0.00    +0.260 C 
ATOM      6  O   LIG    1       23.988 -18.704   3.793  0.00  0.00    -0.356 OA
ENDBRANCH   1   5
BRANCH   1   7
ATOM      7  O   LIG    1       22.797 -21.495   6.973  0.00  0.00    -0.322 OA
ATOM      8  H   LIG    1       21.827 -21.410   7.063  0.00  0.00    +0.220 HD
ENDBRANCH   1   7
BRANCH   1   9
ATOM      9  O   LIG    1       21.858 -21.572   4.815  0.00  0.00    -0.322 OA
ATOM     10  H   LIG    1       21.874 -21.522   3.842  0.00  0.00    +0.220 HD
ENDBRANCH   1   9
TORSDOF 3
ENDMDL
MODEL 8
REMARK VINA RESULT:      -3.2      7.023      7.889
REMARK  Name = *****
REMARK                            x       y       z     vdW  Elec       q    Type
REMARK                         _______ _______ _______ _____ _____    ______ ____
ROOT
ATOM      1  P   LIG    1       23.628 -20.057   4.641  0.00  0.00    +0.359 P 
ATOM      2  O   LIG    1       23.782 -19.360   3.295  0.00  0.00    -0.256 OA
ENDROOT
BRANCH   1   5
ATOM      3  C   LIG    1       25.820 -20.454   7.062  0.00  0.00    +0.041 C 
ATOM      4  C   LIG    1       26.228 -20.829   5.681  0.00  0.00    +0.157 C 
ATOM      5  C   LIG    1       25.351 -20.645   4.457  0.00  0.00    +0.260 C 
ATOM      6  O   LIG    1       26.391 -19.702   4.822  0.00  0.00    -0.356 OA
ENDBRANCH   1   5
BRANCH   1   7
ATOM      7  O   LIG    1       22.000 -19.501   4.815  0.00  0.00    -0.322 OA
ATOM      8  H   LIG    1       22.045 -18.532   4.692  0.00  0.00    +0.220 HD
ENDBRANCH   1   7
BRANCH   1   9
ATOM      9  O   LIG    1       23.045 -21.530   4.234  0.00  0.00    -0.322 OA
ATOM     10  H   LIG    1       22.129 -21.620   4.556  0.00  0.00    +0.220 HD
ENDBRANCH   1   9
TORSDOF 3
ENDMDL
MODEL 9
REMARK VINA RESULT:      -3.2      7.520      8.418
REMARK  Name = *****
REMARK                            x       y       z     vdW  Elec       q    Type
REMARK                         _______ _______ _______ _____ _____    ______ ____
ROOT
ATOM      1  P   LIG    1       22.952 -21.039   5.295  0.00  0.00    +0.359 P 
ATOM      2  O   LIG    1       22.765 -21.572   6.710  0.00  0.00    -0.256 OA
ENDROOT
BRANCH   1   5
ATOM      3  C   LIG    1       25.231 -19.701   3.337  0.00  0.00    +0.041 C 
ATOM      4  C   LIG    1       25.543 -19.829   4.786  0.00  0.00    +0.157 C 
ATOM      5  C   LIG    1       24.619 -20.479   5.799  0.00  0.00    +0.260 C 
ATOM      6  O   LIG    1       25.738 -21.180   5.198  0.00  0.00    -0.356 OA
ENDBRANCH   1   5
BRANCH   1   7
ATOM      7  O   LIG    1       21.376 -21.569   4.820  0.00  0.00    -0.322 OA
ATOM      8  H   LIG    1       21.451 -22.538   4.714  0.00  0.00    +0.220 HD
ENDBRANCH   1   7
BRANCH   1   9
ATOM      9  O   LIG    1       22.371 -19.513   5.391  0.00  0.00    -0.322 OA
ATOM     10  H   LIG    1       22.310 -19.244   6.325  0.00  0.00    +0.220 HD
ENDBRANCH   1   9
TORSDOF 3
ENDMDL
