MODEL 1
REMARK VINA RESULT:      -9.0      0.000      0.000
REMARK  Name = *****
REMARK                            x       y       z     vdW  Elec       q    Type
REMARK                         _______ _______ _______ _____ _____    ______ ____
ROOT
ATOM      1  O   LIG    1       22.287 -23.864   6.951  0.00  0.00    -0.273 OA
ATOM      2  C   LIG    1       23.141 -22.990   6.866  0.00  0.00    +0.238 C 
ATOM      3  C   LIG    1       24.617 -23.103   6.373  0.00  0.00    +0.115 C 
ATOM      4  C   LIG    1       24.485 -23.377   4.857  0.00  0.00    +0.051 C 
ATOM      5  C   LIG    1       25.275 -24.566   4.318  0.00  0.00    +0.087 C 
ATOM      6  N   LIG    1       25.357 -25.709   5.220  0.00  0.00    -0.302 NA
ATOM      7  C   LIG    1       26.035 -25.276   6.449  0.00  0.00    +0.087 C 
ATOM      8  C   LIG    1       25.292 -24.200   7.239  0.00  0.00    +0.051 C 
ATOM      9  N   LIG    1       25.120 -21.743   6.711  0.00  0.00    -0.300 N 
ATOM     10  C   LIG    1       24.055 -20.864   7.139  0.00  0.00    +0.214 C 
ATOM     11  N   LIG    1       22.890 -21.684   7.142  0.00  0.00    -0.298 N 
ATOM     12  H   LIG    1       21.998 -21.389   7.522  0.00  0.00    +0.150 HD
ENDROOT
BRANCH   9  13
ATOM     13  C   LIG    1       26.411 -21.259   6.625  0.00  0.00    +0.032 A 
ATOM     14  C   LIG    1       26.826 -20.352   5.648  0.00  0.00    +0.023 A 
ATOM     15  C   LIG    1       28.131 -19.838   5.612  0.00  0.00    +0.002 A 
ATOM     16  C   LIG    1       29.073 -20.245   6.548  0.00  0.00    +0.000 A 
ATOM     17  C   LIG    1       28.706 -21.167   7.516  0.00  0.00    +0.002 A 
ATOM     18  C   LIG    1       27.394 -21.657   7.551  0.00  0.00    +0.023 A 
ENDBRANCH   9  13
BRANCH   6  19
ATOM     19  C   LIG    1       24.091 -26.408   5.493  0.00  0.00    +0.084 C 
BRANCH  19  20
ATOM     20  C   LIG    1       24.182 -27.938   5.637  0.00  0.00    +0.016 C 
BRANCH  20  21
ATOM     21  C   LIG    1       25.046 -28.317   6.860  0.00  0.00    +0.014 C 
BRANCH  21  22
ATOM     22  C   LIG    1       24.722 -29.720   7.431  0.00  0.00    +0.049 C 
BRANCH  22  23
ATOM     23  C   LIG    1       24.785 -29.718   8.971  0.00  0.00    -0.040 A 
ATOM     24  C   LIG    1       25.801 -29.076   9.705  0.00  0.00    +0.007 A 
ATOM     25  C   LIG    1       25.810 -29.084  11.104  0.00  0.00    +0.038 A 
ATOM     26  C   LIG    1       24.794 -29.724  11.794  0.00  0.00    +0.123 A 
ATOM     27  F   LIG    1       24.804 -29.728  13.134  0.00  0.00    -0.205 F 
ATOM     28  C   LIG    1       23.767 -30.355  11.108  0.00  0.00    +0.038 A 
ATOM     29  C   LIG    1       23.759 -30.350   9.706  0.00  0.00    +0.007 A 
ENDBRANCH  22  23
BRANCH  22  30
ATOM     30  C   LIG    1       25.527 -30.829   6.750  0.00  0.00    -0.040 A 
ATOM     31  C   LIG    1       25.441 -31.059   5.365  0.00  0.00    +0.007 A 
ATOM     32  C   LIG    1       26.213 -32.044   4.750  0.00  0.00    +0.038 A 
ATOM     33  C   LIG    1       27.020 -32.861   5.529  0.00  0.00    +0.123 A 
ATOM     34  F   LIG    1       27.743 -33.825   4.942  0.00  0.00    -0.205 F 
ATOM     35  C   LIG    1       27.075 -32.704   6.909  0.00  0.00    +0.038 A 
ATOM     36  C   LIG    1       26.344 -31.680   7.517  0.00  0.00    +0.007 A 
ENDBRANCH  22  30
ENDBRANCH  21  22
ENDBRANCH  20  21
ENDBRANCH  19  20
ENDBRANCH   6  19
TORSDOF 7
ENDMDL
MODEL 2
REMARK VINA RESULT:      -8.6      1.075      3.876
REMARK  Name = *****
REMARK                            x       y       z     vdW  Elec       q    Type
REMARK                         _______ _______ _______ _____ _____    ______ ____
ROOT
ATOM      1  O   LIG    1       22.397 -23.977   7.153  0.00  0.00    -0.273 OA
ATOM      2  C   LIG    1       23.225 -23.078   7.075  0.00  0.00    +0.238 C 
ATOM      3  C   LIG    1       24.670 -23.121   6.488  0.00  0.00    +0.115 C 
ATOM      4  C   LIG    1       24.451 -23.299   4.967  0.00  0.00    +0.051 C 
ATOM      5  C   LIG    1       25.231 -24.430   4.304  0.00  0.00    +0.087 C 
ATOM      6  N   LIG    1       25.393 -25.627   5.121  0.00  0.00    -0.302 NA
ATOM      7  C   LIG    1       26.135 -25.258   6.334  0.00  0.00    +0.087 C 
ATOM      8  C   LIG    1       25.420 -24.255   7.236  0.00  0.00    +0.051 C 
ATOM      9  N   LIG    1       25.165 -21.774   6.885  0.00  0.00    -0.300 N 
ATOM     10  C   LIG    1       24.110 -20.952   7.434  0.00  0.00    +0.214 C 
ATOM     11  N   LIG    1       22.965 -21.799   7.452  0.00  0.00    -0.298 N 
ATOM     12  H   LIG    1       22.092 -21.552   7.904  0.00  0.00    +0.150 HD
ENDROOT
BRANCH   9  13
ATOM     13  C   LIG    1       26.437 -21.253   6.754  0.00  0.00    +0.032 A 
ATOM     14  C   LIG    1       26.816 -20.407   5.710  0.00  0.00    +0.023 A 
ATOM     15  C   LIG    1       28.101 -19.852   5.628  0.00  0.00    +0.002 A 
ATOM     16  C   LIG    1       29.062 -20.157   6.583  0.00  0.00    +0.000 A 
ATOM     17  C   LIG    1       28.732 -21.016   7.619  0.00  0.00    +0.002 A 
ATOM     18  C   LIG    1       27.438 -21.548   7.700  0.00  0.00    +0.023 A 
ENDBRANCH   9  13
BRANCH   6  19
ATOM     19  C   LIG    1       24.161 -26.373   5.422  0.00  0.00    +0.084 C 
BRANCH  19  20
ATOM     20  C   LIG    1       24.297 -27.906   5.480  0.00  0.00    +0.016 C 
BRANCH  20  21
ATOM     21  C   LIG    1       24.182 -28.406   6.937  0.00  0.00    +0.014 C 
BRANCH  21  22
ATOM     22  C   LIG    1       25.138 -29.581   7.262  0.00  0.00    +0.049 C 
BRANCH  22  23
ATOM     23  C   LIG    1       25.006 -30.706   6.216  0.00  0.00    -0.040 A 
ATOM     24  C   LIG    1       25.958 -30.942   5.206  0.00  0.00    +0.007 A 
ATOM     25  C   LIG    1       25.808 -31.987   4.287  0.00  0.00    +0.038 A 
ATOM     26  C   LIG    1       24.707 -32.823   4.373  0.00  0.00    +0.123 A 
ATOM     27  F   LIG    1       24.567 -33.824   3.494  0.00  0.00    -0.205 F 
ATOM     28  C   LIG    1       23.755 -32.633   5.363  0.00  0.00    +0.038 A 
ATOM     29  C   LIG    1       23.904 -31.585   6.282  0.00  0.00    +0.007 A 
ENDBRANCH  22  23
BRANCH  22  30
ATOM     30  C   LIG    1       25.034 -30.034   8.720  0.00  0.00    -0.040 A 
ATOM     31  C   LIG    1       23.802 -30.057   9.399  0.00  0.00    +0.007 A 
ATOM     32  C   LIG    1       23.714 -30.513  10.713  0.00  0.00    +0.038 A 
ATOM     33  C   LIG    1       24.871 -30.879  11.386  0.00  0.00    +0.123 A 
ATOM     34  F   LIG    1       24.790 -31.293  12.657  0.00  0.00    -0.205 F 
ATOM     35  C   LIG    1       26.112 -30.803  10.765  0.00  0.00    +0.038 A 
ATOM     36  C   LIG    1       26.193 -30.399   9.430  0.00  0.00    +0.007 A 
ENDBRANCH  22  30
ENDBRANCH  21  22
ENDBRANCH  20  21
ENDBRANCH  19  20
ENDBRANCH   6  19
TORSDOF 7
ENDMDL
MODEL 3
REMARK VINA RESULT:      -8.5      3.977      9.862
REMARK  Name = *****
REMARK                            x       y       z     vdW  Elec       q    Type
REMARK                         _______ _______ _______ _____ _____    ______ ____
ROOT
ATOM      1  O   LIG    1       26.269 -27.383   9.049  0.00  0.00    -0.273 OA
ATOM      2  C   LIG    1       26.185 -28.471   8.493  0.00  0.00    +0.238 C 
ATOM      3  C   LIG    1       25.672 -28.803   7.058  0.00  0.00    +0.115 C 
ATOM      4  C   LIG    1       26.752 -28.206   6.126  0.00  0.00    +0.051 C 
ATOM      5  C   LIG    1       26.248 -27.301   5.006  0.00  0.00    +0.087 C 
ATOM      6  N   LIG    1       25.103 -26.468   5.357  0.00  0.00    -0.302 NA
ATOM      7  C   LIG    1       23.987 -27.351   5.721  0.00  0.00    +0.087 C 
ATOM      8  C   LIG    1       24.238 -28.219   6.952  0.00  0.00    +0.051 C 
ATOM      9  N   LIG    1       25.661 -30.291   7.112  0.00  0.00    -0.300 N 
ATOM     10  C   LIG    1       26.283 -30.792   8.317  0.00  0.00    +0.214 C 
ATOM     11  N   LIG    1       26.624 -29.625   9.059  0.00  0.00    -0.298 N 
ATOM     12  H   LIG    1       26.960 -29.647  10.015  0.00  0.00    +0.150 HD
ENDROOT
BRANCH   9  13
ATOM     13  C   LIG    1       25.182 -31.182   6.171  0.00  0.00    +0.032 A 
ATOM     14  C   LIG    1       25.842 -31.459   4.972  0.00  0.00    +0.023 A 
ATOM     15  C   LIG    1       25.359 -32.405   4.055  0.00  0.00    +0.002 A 
ATOM     16  C   LIG    1       24.174 -33.084   4.304  0.00  0.00    +0.000 A 
ATOM     17  C   LIG    1       23.475 -32.815   5.470  0.00  0.00    +0.002 A 
ATOM     18  C   LIG    1       23.979 -31.882   6.386  0.00  0.00    +0.023 A 
ENDBRANCH   9  13
BRANCH   6  19
ATOM     19  C   LIG    1       25.349 -25.428   6.369  0.00  0.00    +0.084 C 
BRANCH  19  20
ATOM     20  C   LIG    1       24.362 -24.247   6.377  0.00  0.00    +0.016 C 
BRANCH  20  21
ATOM     21  C   LIG    1       25.002 -23.010   7.047  0.00  0.00    +0.014 C 
BRANCH  21  22
ATOM     22  C   LIG    1       25.613 -22.009   6.036  0.00  0.00    +0.049 C 
BRANCH  22  23
ATOM     23  C   LIG    1       26.895 -21.365   6.601  0.00  0.00    -0.040 A 
ATOM     24  C   LIG    1       27.575 -21.855   7.732  0.00  0.00    +0.007 A 
ATOM     25  C   LIG    1       28.746 -21.251   8.201  0.00  0.00    +0.038 A 
ATOM     26  C   LIG    1       29.266 -20.153   7.536  0.00  0.00    +0.123 A 
ATOM     27  F   LIG    1       30.390 -19.578   7.986  0.00  0.00    -0.205 F 
ATOM     28  C   LIG    1       28.634 -19.650   6.409  0.00  0.00    +0.038 A 
ATOM     29  C   LIG    1       27.459 -20.253   5.940  0.00  0.00    +0.007 A 
ENDBRANCH  22  23
BRANCH  22  30
ATOM     30  C   LIG    1       24.577 -21.022   5.492  0.00  0.00    -0.040 A 
ATOM     31  C   LIG    1       23.458 -20.634   6.251  0.00  0.00    +0.007 A 
ATOM     32  C   LIG    1       22.545 -19.702   5.760  0.00  0.00    +0.038 A 
ATOM     33  C   LIG    1       22.702 -19.205   4.474  0.00  0.00    +0.123 A 
ATOM     34  F   LIG    1       21.812 -18.328   3.993  0.00  0.00    -0.205 F 
ATOM     35  C   LIG    1       23.760 -19.621   3.673  0.00  0.00    +0.038 A 
ATOM     36  C   LIG    1       24.706 -20.513   4.186  0.00  0.00    +0.007 A 
ENDBRANCH  22  30
ENDBRANCH  21  22
ENDBRANCH  20  21
ENDBRANCH  19  20
ENDBRANCH   6  19
TORSDOF 7
ENDMDL
MODEL 4
REMARK VINA RESULT:      -8.3      4.034      9.966
REMARK  Name = *****
REMARK                            x       y       z     vdW  Elec       q    Type
REMARK                         _______ _______ _______ _____ _____    ______ ____
ROOT
ATOM      1  O   LIG    1       26.273 -27.843   9.039  0.00  0.00    -0.273 OA
ATOM      2  C   LIG    1       26.185 -28.906   8.438  0.00  0.00    +0.238 C 
ATOM      3  C   LIG    1       25.597 -29.187   7.020  0.00  0.00    +0.115 C 
ATOM      4  C   LIG    1       26.606 -28.518   6.058  0.00  0.00    +0.051 C 
ATOM      5  C   LIG    1       26.015 -27.578   5.012  0.00  0.00    +0.087 C 
ATOM      6  N   LIG    1       24.873 -26.794   5.466  0.00  0.00    -0.302 NA
ATOM      7  C   LIG    1       23.802 -27.722   5.851  0.00  0.00    +0.087 C 
ATOM      8  C   LIG    1       24.145 -28.638   7.023  0.00  0.00    +0.051 C 
ATOM      9  N   LIG    1       25.627 -30.675   7.005  0.00  0.00    -0.300 N 
ATOM     10  C   LIG    1       26.330 -31.214   8.147  0.00  0.00    +0.214 C 
ATOM     11  N   LIG    1       26.684 -30.072   8.923  0.00  0.00    -0.298 N 
ATOM     12  H   LIG    1       27.076 -30.129   9.856  0.00  0.00    +0.150 HD
ENDROOT
BRANCH   9  13
ATOM     13  C   LIG    1       25.117 -31.535   6.051  0.00  0.00    +0.032 A 
ATOM     14  C   LIG    1       25.759 -31.808   4.842  0.00  0.00    +0.023 A 
ATOM     15  C   LIG    1       25.244 -32.723   3.912  0.00  0.00    +0.002 A 
ATOM     16  C   LIG    1       24.042 -33.375   4.159  0.00  0.00    +0.000 A 
ATOM     17  C   LIG    1       23.361 -33.108   5.335  0.00  0.00    +0.002 A 
ATOM     18  C   LIG    1       23.897 -32.207   6.264  0.00  0.00    +0.023 A 
ENDBRANCH   9  13
BRANCH   6  19
ATOM     19  C   LIG    1       25.151 -25.794   6.510  0.00  0.00    +0.084 C 
BRANCH  19  20
ATOM     20  C   LIG    1       24.460 -24.429   6.340  0.00  0.00    +0.016 C 
BRANCH  20  21
ATOM     21  C   LIG    1       25.448 -23.389   5.767  0.00  0.00    +0.014 C 
BRANCH  21  22
ATOM     22  C   LIG    1       25.382 -22.017   6.483  0.00  0.00    +0.049 C 
BRANCH  22  23
ATOM     23  C   LIG    1       24.400 -21.067   5.769  0.00  0.00    -0.040 A 
ATOM     24  C   LIG    1       23.325 -20.431   6.419  0.00  0.00    +0.007 A 
ATOM     25  C   LIG    1       22.468 -19.561   5.735  0.00  0.00    +0.038 A 
ATOM     26  C   LIG    1       22.681 -19.301   4.392  0.00  0.00    +0.123 A 
ATOM     27  F   LIG    1       21.860 -18.466   3.741  0.00  0.00    -0.205 F 
ATOM     28  C   LIG    1       23.739 -19.896   3.720  0.00  0.00    +0.038 A 
ATOM     29  C   LIG    1       24.595 -20.770   4.403  0.00  0.00    +0.007 A 
ENDBRANCH  22  23
BRANCH  22  30
ATOM     30  C   LIG    1       26.769 -21.432   6.756  0.00  0.00    -0.040 A 
ATOM     31  C   LIG    1       27.577 -21.907   7.805  0.00  0.00    +0.007 A 
ATOM     32  C   LIG    1       28.856 -21.394   8.016  0.00  0.00    +0.038 A 
ATOM     33  C   LIG    1       29.310 -20.348   7.225  0.00  0.00    +0.123 A 
ATOM     34  F   LIG    1       30.529 -19.838   7.443  0.00  0.00    -0.205 F 
ATOM     35  C   LIG    1       28.509 -19.811   6.224  0.00  0.00    +0.038 A 
ATOM     36  C   LIG    1       27.248 -20.362   5.977  0.00  0.00    +0.007 A 
ENDBRANCH  22  30
ENDBRANCH  21  22
ENDBRANCH  20  21
ENDBRANCH  19  20
ENDBRANCH   6  19
TORSDOF 7
ENDMDL
MODEL 5
REMARK VINA RESULT:      -8.3      5.463      8.884
REMARK  Name = *****
REMARK                            x       y       z     vdW  Elec       q    Type
REMARK                         _______ _______ _______ _____ _____    ______ ____
ROOT
ATOM      1  O   LIG    1       26.310 -28.204   9.059  0.00  0.00    -0.273 OA
ATOM      2  C   LIG    1       25.835 -28.808   8.105  0.00  0.00    +0.238 C 
ATOM      3  C   LIG    1       25.289 -30.267   8.039  0.00  0.00    +0.115 C 
ATOM      4  C   LIG    1       23.995 -30.220   8.885  0.00  0.00    +0.051 C 
ATOM      5  C   LIG    1       23.858 -31.291   9.963  0.00  0.00    +0.087 C 
ATOM      6  N   LIG    1       25.104 -31.655  10.629  0.00  0.00    -0.302 NA
ATOM      7  C   LIG    1       26.025 -32.191   9.618  0.00  0.00    +0.087 C 
ATOM      8  C   LIG    1       26.431 -31.193   8.535  0.00  0.00    +0.051 C 
ATOM      9  N   LIG    1       25.061 -30.405   6.574  0.00  0.00    -0.300 N 
ATOM     10  C   LIG    1       25.232 -29.149   5.880  0.00  0.00    +0.214 C 
ATOM     11  N   LIG    1       25.637 -28.231   6.891  0.00  0.00    -0.298 N 
ATOM     12  H   LIG    1       25.962 -27.291   6.697  0.00  0.00    +0.150 HD
ENDROOT
BRANCH   9  13
ATOM     13  C   LIG    1       24.689 -31.531   5.864  0.00  0.00    +0.032 A 
ATOM     14  C   LIG    1       23.508 -32.234   6.105  0.00  0.00    +0.023 A 
ATOM     15  C   LIG    1       23.130 -33.345   5.337  0.00  0.00    +0.002 A 
ATOM     16  C   LIG    1       23.951 -33.805   4.315  0.00  0.00    +0.000 A 
ATOM     17  C   LIG    1       25.146 -33.151   4.065  0.00  0.00    +0.002 A 
ATOM     18  C   LIG    1       25.501 -32.030   4.827  0.00  0.00    +0.023 A 
ENDBRANCH   9  13
BRANCH   6  19
ATOM     19  C   LIG    1       25.724 -30.606  11.454  0.00  0.00    +0.084 C 
BRANCH  19  20
ATOM     20  C   LIG    1       25.901 -30.939  12.947  0.00  0.00    +0.016 C 
BRANCH  20  21
ATOM     21  C   LIG    1       25.268 -29.837  13.826  0.00  0.00    +0.014 C 
BRANCH  21  22
ATOM     22  C   LIG    1       25.092 -28.486  13.089  0.00  0.00    +0.049 C 
BRANCH  22  23
ATOM     23  C   LIG    1       26.089 -27.435  13.615  0.00  0.00    -0.040 A 
ATOM     24  C   LIG    1       26.519 -26.327  12.860  0.00  0.00    +0.007 A 
ATOM     25  C   LIG    1       27.413 -25.386  13.383  0.00  0.00    +0.038 A 
ATOM     26  C   LIG    1       27.882 -25.531  14.678  0.00  0.00    +0.123 A 
ATOM     27  F   LIG    1       28.736 -24.627  15.177  0.00  0.00    -0.205 F 
ATOM     28  C   LIG    1       27.470 -26.601  15.459  0.00  0.00    +0.038 A 
ATOM     29  C   LIG    1       26.578 -27.545  14.935  0.00  0.00    +0.007 A 
ENDBRANCH  22  23
BRANCH  22  30
ATOM     30  C   LIG    1       23.632 -28.030  13.045  0.00  0.00    -0.040 A 
ATOM     31  C   LIG    1       22.610 -28.870  12.565  0.00  0.00    +0.007 A 
ATOM     32  C   LIG    1       21.279 -28.458  12.570  0.00  0.00    +0.038 A 
ATOM     33  C   LIG    1       20.965 -27.172  12.985  0.00  0.00    +0.123 A 
ATOM     34  F   LIG    1       19.689 -26.766  12.966  0.00  0.00    -0.205 F 
ATOM     35  C   LIG    1       21.960 -26.293  13.400  0.00  0.00    +0.038 A 
ATOM     36  C   LIG    1       23.288 -26.726  13.447  0.00  0.00    +0.007 A 
ENDBRANCH  22  30
ENDBRANCH  21  22
ENDBRANCH  20  21
ENDBRANCH  19  20
ENDBRANCH   6  19
TORSDOF 7
ENDMDL
MODEL 6
REMARK VINA RESULT:      -8.2      1.688      2.730
REMARK  Name = *****
REMARK                            x       y       z     vdW  Elec       q    Type
REMARK                         _______ _______ _______ _____ _____    ______ ____
ROOT
ATOM      1  O   LIG    1       26.279 -23.619   8.606  0.00  0.00    -0.273 OA
ATOM      2  C   LIG    1       25.813 -22.608   8.095  0.00  0.00    +0.238 C 
ATOM      3  C   LIG    1       24.873 -22.477   6.857  0.00  0.00    +0.115 C 
ATOM      4  C   LIG    1       23.530 -23.071   7.343  0.00  0.00    +0.051 C 
ATOM      5  C   LIG    1       22.899 -24.130   6.445  0.00  0.00    +0.087 C 
ATOM      6  N   LIG    1       23.848 -25.021   5.787  0.00  0.00    -0.302 NA
ATOM      7  C   LIG    1       24.722 -24.209   4.930  0.00  0.00    +0.087 C 
ATOM      8  C   LIG    1       25.584 -23.196   5.680  0.00  0.00    +0.051 C 
ATOM      9  N   LIG    1       24.863 -20.999   6.679  0.00  0.00    -0.300 N 
ATOM     10  C   LIG    1       25.518 -20.319   7.774  0.00  0.00    +0.214 C 
ATOM     11  N   LIG    1       26.004 -21.365   8.609  0.00  0.00    -0.298 N 
ATOM     12  H   LIG    1       26.623 -21.212   9.397  0.00  0.00    +0.150 HD
ENDROOT
BRANCH   9  13
ATOM     13  C   LIG    1       24.296 -20.260   5.659  0.00  0.00    +0.032 A 
ATOM     14  C   LIG    1       25.011 -19.815   4.546  0.00  0.00    +0.023 A 
ATOM     15  C   LIG    1       24.400 -19.108   3.500  0.00  0.00    +0.002 A 
ATOM     16  C   LIG    1       23.047 -18.799   3.556  0.00  0.00    +0.000 A 
ATOM     17  C   LIG    1       22.310 -19.199   4.659  0.00  0.00    +0.002 A 
ATOM     18  C   LIG    1       22.929 -19.922   5.687  0.00  0.00    +0.023 A 
ENDBRANCH   9  13
BRANCH   6  19
ATOM     19  C   LIG    1       24.607 -25.922   6.670  0.00  0.00    +0.084 C 
BRANCH  19  20
ATOM     20  C   LIG    1       24.734 -27.381   6.197  0.00  0.00    +0.016 C 
BRANCH  20  21
ATOM     21  C   LIG    1       25.401 -28.249   7.289  0.00  0.00    +0.014 C 
BRANCH  21  22
ATOM     22  C   LIG    1       24.703 -29.615   7.500  0.00  0.00    +0.049 C 
BRANCH  22  23
ATOM     23  C   LIG    1       24.446 -29.879   8.997  0.00  0.00    -0.040 A 
ATOM     24  C   LIG    1       23.285 -30.508   9.486  0.00  0.00    +0.007 A 
ATOM     25  C   LIG    1       23.100 -30.744  10.853  0.00  0.00    +0.038 A 
ATOM     26  C   LIG    1       24.081 -30.367  11.754  0.00  0.00    +0.123 A 
ATOM     27  F   LIG    1       23.903 -30.596  13.062  0.00  0.00    -0.205 F 
ATOM     28  C   LIG    1       25.246 -29.758  11.310  0.00  0.00    +0.038 A 
ATOM     29  C   LIG    1       25.431 -29.519   9.942  0.00  0.00    +0.007 A 
ENDBRANCH  22  23
BRANCH  22  30
ATOM     30  C   LIG    1       25.403 -30.752   6.752  0.00  0.00    -0.040 A 
ATOM     31  C   LIG    1       25.211 -30.956   5.374  0.00  0.00    +0.007 A 
ATOM     32  C   LIG    1       25.888 -31.969   4.696  0.00  0.00    +0.038 A 
ATOM     33  C   LIG    1       26.707 -32.835   5.407  0.00  0.00    +0.123 A 
ATOM     34  F   LIG    1       27.338 -33.824   4.760  0.00  0.00    -0.205 F 
ATOM     35  C   LIG    1       26.864 -32.702   6.781  0.00  0.00    +0.038 A 
ATOM     36  C   LIG    1       26.229 -31.653   7.451  0.00  0.00    +0.007 A 
ENDBRANCH  22  30
ENDBRANCH  21  22
ENDBRANCH  20  21
ENDBRANCH  19  20
ENDBRANCH   6  19
TORSDOF 7
ENDMDL
MODEL 7
REMARK VINA RESULT:      -8.2      1.890      3.017
REMARK  Name = *****
REMARK                            x       y       z     vdW  Elec       q    Type
REMARK                         _______ _______ _______ _____ _____    ______ ____
ROOT
ATOM      1  O   LIG    1       26.385 -23.793   8.286  0.00  0.00    -0.273 OA
ATOM      2  C   LIG    1       25.942 -22.746   7.832  0.00  0.00    +0.238 C 
ATOM      3  C   LIG    1       24.869 -22.533   6.720  0.00  0.00    +0.115 C 
ATOM      4  C   LIG    1       23.553 -23.020   7.372  0.00  0.00    +0.051 C 
ATOM      5  C   LIG    1       22.733 -24.021   6.563  0.00  0.00    +0.087 C 
ATOM      6  N   LIG    1       23.519 -24.980   5.796  0.00  0.00    -0.302 NA
ATOM      7  C   LIG    1       24.342 -24.236   4.834  0.00  0.00    +0.087 C 
ATOM      8  C   LIG    1       25.369 -23.299   5.467  0.00  0.00    +0.051 C 
ATOM      9  N   LIG    1       24.955 -21.058   6.539  0.00  0.00    -0.300 N 
ATOM     10  C   LIG    1       25.793 -20.438   7.541  0.00  0.00    +0.214 C 
ATOM     11  N   LIG    1       26.294 -21.525   8.314  0.00  0.00    -0.298 N 
ATOM     12  H   LIG    1       27.016 -21.427   9.017  0.00  0.00    +0.150 HD
ENDROOT
BRANCH   9  13
ATOM     13  C   LIG    1       24.327 -20.270   5.594  0.00  0.00    +0.032 A 
ATOM     14  C   LIG    1       22.972 -19.938   5.651  0.00  0.00    +0.023 A 
ATOM     15  C   LIG    1       22.369 -19.095   4.705  0.00  0.00    +0.002 A 
ATOM     16  C   LIG    1       23.110 -18.581   3.649  0.00  0.00    +0.000 A 
ATOM     17  C   LIG    1       24.451 -18.911   3.542  0.00  0.00    +0.002 A 
ATOM     18  C   LIG    1       25.045 -19.738   4.505  0.00  0.00    +0.023 A 
ENDBRANCH   9  13
BRANCH   6  19
ATOM     19  C   LIG    1       24.307 -25.944   6.581  0.00  0.00    +0.084 C 
BRANCH  19  20
ATOM     20  C   LIG    1       25.077 -27.004   5.774  0.00  0.00    +0.016 C 
BRANCH  20  21
ATOM     21  C   LIG    1       25.863 -27.940   6.718  0.00  0.00    +0.014 C 
BRANCH  21  22
ATOM     22  C   LIG    1       24.980 -29.020   7.391  0.00  0.00    +0.049 C 
BRANCH  22  23
ATOM     23  C   LIG    1       25.379 -29.222   8.866  0.00  0.00    -0.040 A 
ATOM     24  C   LIG    1       24.672 -30.055   9.754  0.00  0.00    +0.007 A 
ATOM     25  C   LIG    1       25.080 -30.224  11.082  0.00  0.00    +0.038 A 
ATOM     26  C   LIG    1       26.212 -29.572  11.540  0.00  0.00    +0.123 A 
ATOM     27  F   LIG    1       26.603 -29.738  12.812  0.00  0.00    -0.205 F 
ATOM     28  C   LIG    1       26.945 -28.755  10.692  0.00  0.00    +0.038 A 
ATOM     29  C   LIG    1       26.535 -28.583   9.363  0.00  0.00    +0.007 A 
ENDBRANCH  22  23
BRANCH  22  30
ATOM     30  C   LIG    1       24.891 -30.303   6.561  0.00  0.00    -0.040 A 
ATOM     31  C   LIG    1       23.949 -31.306   6.852  0.00  0.00    +0.007 A 
ATOM     32  C   LIG    1       23.850 -32.451   6.062  0.00  0.00    +0.038 A 
ATOM     33  C   LIG    1       24.746 -32.638   5.019  0.00  0.00    +0.123 A 
ATOM     34  F   LIG    1       24.668 -33.749   4.276  0.00  0.00    -0.205 F 
ATOM     35  C   LIG    1       25.733 -31.697   4.749  0.00  0.00    +0.038 A 
ATOM     36  C   LIG    1       25.796 -30.524   5.506  0.00  0.00    +0.007 A 
ENDBRANCH  22  30
ENDBRANCH  21  22
ENDBRANCH  20  21
ENDBRANCH  19  20
ENDBRANCH   6  19
TORSDOF 7
ENDMDL
MODEL 8
REMARK VINA RESULT:      -8.1      4.014      9.589
REMARK  Name = *****
REMARK                            x       y       z     vdW  Elec       q    Type
REMARK                         _______ _______ _______ _____ _____    ______ ____
ROOT
ATOM      1  O   LIG    1       24.039 -28.182   4.045  0.00  0.00    -0.273 OA
ATOM      2  C   LIG    1       24.327 -28.726   5.104  0.00  0.00    +0.238 C 
ATOM      3  C   LIG    1       25.119 -28.152   6.319  0.00  0.00    +0.115 C 
ATOM      4  C   LIG    1       24.169 -27.086   6.915  0.00  0.00    +0.051 C 
ATOM      5  C   LIG    1       24.774 -25.707   7.157  0.00  0.00    +0.087 C 
ATOM      6  N   LIG    1       25.750 -25.280   6.161  0.00  0.00    -0.302 NA
ATOM      7  C   LIG    1       26.864 -26.237   6.171  0.00  0.00    +0.087 C 
ATOM      8  C   LIG    1       26.484 -27.660   5.769  0.00  0.00    +0.051 C 
ATOM      9  N   LIG    1       25.265 -29.378   7.151  0.00  0.00    -0.300 N 
ATOM     10  C   LIG    1       24.490 -30.481   6.628  0.00  0.00    +0.214 C 
ATOM     11  N   LIG    1       23.910 -29.977   5.429  0.00  0.00    -0.298 N 
ATOM     12  H   LIG    1       23.412 -30.555   4.762  0.00  0.00    +0.150 HD
ENDROOT
BRANCH   9  13
ATOM     13  C   LIG    1       25.989 -29.545   8.315  0.00  0.00    +0.032 A 
ATOM     14  C   LIG    1       26.345 -28.488   9.155  0.00  0.00    +0.023 A 
ATOM     15  C   LIG    1       27.038 -28.691  10.358  0.00  0.00    +0.002 A 
ATOM     16  C   LIG    1       27.424 -29.969  10.740  0.00  0.00    +0.000 A 
ATOM     17  C   LIG    1       27.115 -31.041   9.918  0.00  0.00    +0.002 A 
ATOM     18  C   LIG    1       26.404 -30.826   8.729  0.00  0.00    +0.023 A 
ENDBRANCH   9  13
BRANCH   6  19
ATOM     19  C   LIG    1       25.226 -25.042   4.806  0.00  0.00    +0.084 C 
BRANCH  19  20
ATOM     20  C   LIG    1       24.709 -23.620   4.522  0.00  0.00    +0.016 C 
BRANCH  20  21
ATOM     21  C   LIG    1       25.095 -22.664   5.673  0.00  0.00    +0.014 C 
BRANCH  21  22
ATOM     22  C   LIG    1       25.594 -21.281   5.183  0.00  0.00    +0.049 C 
BRANCH  22  23
ATOM     23  C   LIG    1       26.673 -20.716   6.127  0.00  0.00    -0.040 A 
ATOM     24  C   LIG    1       26.607 -20.818   7.530  0.00  0.00    +0.007 A 
ATOM     25  C   LIG    1       27.618 -20.307   8.351  0.00  0.00    +0.038 A 
ATOM     26  C   LIG    1       28.722 -19.696   7.779  0.00  0.00    +0.123 A 
ATOM     27  F   LIG    1       29.691 -19.209   8.567  0.00  0.00    -0.205 F 
ATOM     28  C   LIG    1       28.832 -19.589   6.401  0.00  0.00    +0.038 A 
ATOM     29  C   LIG    1       27.818 -20.099   5.579  0.00  0.00    +0.007 A 
ENDBRANCH  22  23
BRANCH  22  30
ATOM     30  C   LIG    1       24.443 -20.323   4.866  0.00  0.00    -0.040 A 
ATOM     31  C   LIG    1       24.542 -19.367   3.839  0.00  0.00    +0.007 A 
ATOM     32  C   LIG    1       23.471 -18.529   3.532  0.00  0.00    +0.038 A 
ATOM     33  C   LIG    1       22.317 -18.588   4.301  0.00  0.00    +0.123 A 
ATOM     34  F   LIG    1       21.297 -17.765   4.023  0.00  0.00    -0.205 F 
ATOM     35  C   LIG    1       22.214 -19.475   5.367  0.00  0.00    +0.038 A 
ATOM     36  C   LIG    1       23.267 -20.353   5.639  0.00  0.00    +0.007 A 
ENDBRANCH  22  30
ENDBRANCH  21  22
ENDBRANCH  20  21
ENDBRANCH  19  20
ENDBRANCH   6  19
TORSDOF 7
ENDMDL
MODEL 9
REMARK VINA RESULT:      -8.1      1.729      3.513
REMARK  Name = *****
REMARK                            x       y       z     vdW  Elec       q    Type
REMARK                         _______ _______ _______ _____ _____    ______ ____
ROOT
ATOM      1  O   LIG    1       22.381 -24.144   7.020  0.00  0.00    -0.273 OA
ATOM      2  C   LIG    1       23.200 -23.243   6.889  0.00  0.00    +0.238 C 
ATOM      3  C   LIG    1       24.680 -23.324   6.402  0.00  0.00    +0.115 C 
ATOM      4  C   LIG    1       24.562 -23.682   4.903  0.00  0.00    +0.051 C 
ATOM      5  C   LIG    1       25.399 -24.865   4.426  0.00  0.00    +0.087 C 
ATOM      6  N   LIG    1       25.524 -25.955   5.387  0.00  0.00    -0.302 NA
ATOM      7  C   LIG    1       26.181 -25.432   6.592  0.00  0.00    +0.087 C 
ATOM      8  C   LIG    1       25.396 -24.347   7.324  0.00  0.00    +0.051 C 
ATOM      9  N   LIG    1       25.129 -21.929   6.668  0.00  0.00    -0.300 N 
ATOM     10  C   LIG    1       24.030 -21.071   7.050  0.00  0.00    +0.214 C 
ATOM     11  N   LIG    1       22.898 -21.935   7.096  0.00  0.00    -0.298 N 
ATOM     12  H   LIG    1       21.994 -21.656   7.461  0.00  0.00    +0.150 HD
ENDROOT
BRANCH   9  13
ATOM     13  C   LIG    1       26.400 -21.400   6.557  0.00  0.00    +0.032 A 
ATOM     14  C   LIG    1       26.718 -20.344   5.702  0.00  0.00    +0.023 A 
ATOM     15  C   LIG    1       28.007 -19.792   5.644  0.00  0.00    +0.002 A 
ATOM     16  C   LIG    1       29.029 -20.309   6.429  0.00  0.00    +0.000 A 
ATOM     17  C   LIG    1       28.758 -21.377   7.269  0.00  0.00    +0.002 A 
ATOM     18  C   LIG    1       27.462 -21.905   7.331  0.00  0.00    +0.023 A 
ENDBRANCH   9  13
BRANCH   6  19
ATOM     19  C   LIG    1       24.285 -26.688   5.696  0.00  0.00    +0.084 C 
BRANCH  19  20
ATOM     20  C   LIG    1       24.465 -28.111   6.254  0.00  0.00    +0.016 C 
BRANCH  20  21
ATOM     21  C   LIG    1       25.066 -28.064   7.677  0.00  0.00    +0.014 C 
BRANCH  21  22
ATOM     22  C   LIG    1       25.777 -29.377   8.088  0.00  0.00    +0.049 C 
BRANCH  22  23
ATOM     23  C   LIG    1       24.815 -30.579   7.997  0.00  0.00    -0.040 A 
ATOM     24  C   LIG    1       24.891 -31.558   6.988  0.00  0.00    +0.007 A 
ATOM     25  C   LIG    1       24.008 -32.643   6.953  0.00  0.00    +0.038 A 
ATOM     26  C   LIG    1       23.042 -32.775   7.936  0.00  0.00    +0.123 A 
ATOM     27  F   LIG    1       22.199 -33.816   7.902  0.00  0.00    -0.205 F 
ATOM     28  C   LIG    1       22.945 -31.839   8.956  0.00  0.00    +0.038 A 
ATOM     29  C   LIG    1       23.826 -30.750   8.990  0.00  0.00    +0.007 A 
ENDBRANCH  22  23
BRANCH  22  30
ATOM     30  C   LIG    1       26.526 -29.246   9.416  0.00  0.00    -0.040 A 
ATOM     31  C   LIG    1       27.231 -30.327   9.975  0.00  0.00    +0.007 A 
ATOM     32  C   LIG    1       27.945 -30.182  11.164  0.00  0.00    +0.038 A 
ATOM     33  C   LIG    1       27.898 -28.974  11.843  0.00  0.00    +0.123 A 
ATOM     34  F   LIG    1       28.564 -28.841  12.999  0.00  0.00    -0.205 F 
ATOM     35  C   LIG    1       27.155 -27.907  11.352  0.00  0.00    +0.038 A 
ATOM     36  C   LIG    1       26.485 -28.035  10.132  0.00  0.00    +0.007 A 
ENDBRANCH  22  30
ENDBRANCH  21  22
ENDBRANCH  20  21
ENDBRANCH  19  20
ENDBRANCH   6  19
TORSDOF 7
ENDMDL
