MODEL 1
REMARK VINA RESULT:      -8.8      0.000      0.000
REMARK  Name = *****
REMARK                            x       y       z     vdW  Elec       q    Type
REMARK                         _______ _______ _______ _____ _____    ______ ____
ROOT
ATOM      1  C   LIG    1       29.116 -20.073   8.216  0.00  0.00    +0.317 C 
ATOM      2  O   LIG    1       29.795 -21.077   8.375  0.00  0.00    -0.250 OA
ENDROOT
BRANCH   1   3
ATOM      3  O   LIG    1       27.771 -19.992   8.427  0.00  0.00    -0.461 OA
BRANCH   3  11
ATOM      4  C   LIG    1       22.996 -20.600   6.112  0.00  0.00    +0.105 C 
ATOM      5  N   LIG    1       24.333 -20.630   6.698  0.00  0.00    -0.294 NA
ATOM      6  C   LIG    1       24.464 -21.642   7.775  0.00  0.00    +0.091 C 
ATOM      7  C   LIG    1       24.656 -22.933   7.018  0.00  0.00    +0.166 C 
ATOM      8  C   LIG    1       25.243 -22.550   5.698  0.00  0.00    +0.166 C 
ATOM      9  O   LIG    1       25.969 -23.341   6.637  0.00  0.00    -0.365 OA
ATOM     10  C   LIG    1       25.682 -21.205   8.602  0.00  0.00    +0.066 C 
ATOM     11  C   LIG    1       26.962 -20.994   7.765  0.00  0.00    +0.180 C 
ATOM     12  C   LIG    1       26.705 -20.552   6.305  0.00  0.00    +0.066 C 
ATOM     13  C   LIG    1       25.374 -21.049   5.727  0.00  0.00    +0.091 C 
ENDBRANCH   3  11
ENDBRANCH   1   3
BRANCH   1  14
ATOM     14  C   LIG    1       29.654 -18.741   7.723  0.00  0.00    +0.153 C 
BRANCH  14  15
ATOM     15  C   LIG    1       30.469 -18.020   8.788  0.00  0.00    -0.032 A 
ATOM     16  C   LIG    1       29.888 -17.690  10.024  0.00  0.00    +0.004 A 
ATOM     17  C   LIG    1       30.628 -17.023  11.004  0.00  0.00    +0.000 A 
ATOM     18  C   LIG    1       31.956 -16.678  10.763  0.00  0.00    +0.000 A 
ATOM     19  C   LIG    1       32.545 -17.001   9.543  0.00  0.00    +0.000 A 
ATOM     20  C   LIG    1       31.809 -17.669   8.563  0.00  0.00    +0.004 A 
ENDBRANCH  14  15
BRANCH  14  21
ATOM     21  C   LIG    1       30.445 -19.013   6.432  0.00  0.00    +0.175 C 
BRANCH  21  22
ATOM     22  O   LIG    1       29.984 -18.198   5.353  0.00  0.00    -0.394 OA
ATOM     23  H   LIG    1       29.472 -17.468   5.746  0.00  0.00    +0.209 HD
ENDBRANCH  21  22
ENDBRANCH  14  21
ENDBRANCH   1  14
TORSDOF 6
ENDMDL
MODEL 2
REMARK VINA RESULT:      -8.4      2.282      7.212
REMARK  Name = *****
REMARK                            x       y       z     vdW  Elec       q    Type
REMARK                         _______ _______ _______ _____ _____    ______ ____
ROOT
ATOM      1  C   LIG    1       26.615 -21.608   8.373  0.00  0.00    +0.317 C 
ATOM      2  O   LIG    1       25.790 -21.188   9.172  0.00  0.00    -0.250 OA
ENDROOT
BRANCH   1   3
ATOM      3  O   LIG    1       27.930 -21.842   8.652  0.00  0.00    -0.461 OA
BRANCH   3  11
ATOM      4  C   LIG    1       31.511 -18.094   9.937  0.00  0.00    +0.105 C 
ATOM      5  N   LIG    1       30.587 -19.084   9.392  0.00  0.00    -0.294 NA
ATOM      6  C   LIG    1       29.617 -18.496   8.436  0.00  0.00    +0.091 C 
ATOM      7  C   LIG    1       30.412 -18.386   7.158  0.00  0.00    +0.166 C 
ATOM      8  C   LIG    1       31.478 -19.429   7.247  0.00  0.00    +0.166 C 
ATOM      9  O   LIG    1       30.456 -19.489   6.255  0.00  0.00    -0.365 OA
ATOM     10  C   LIG    1       28.451 -19.493   8.372  0.00  0.00    +0.066 C 
ATOM     11  C   LIG    1       28.881 -20.938   8.038  0.00  0.00    +0.180 C 
ATOM     12  C   LIG    1       30.306 -21.305   8.514  0.00  0.00    +0.066 C 
ATOM     13  C   LIG    1       31.271 -20.115   8.574  0.00  0.00    +0.091 C 
ENDBRANCH   3  11
ENDBRANCH   1   3
BRANCH   1  14
ATOM     14  C   LIG    1       26.322 -21.913   6.915  0.00  0.00    +0.153 C 
BRANCH  14  15
ATOM     15  C   LIG    1       25.478 -23.168   6.749  0.00  0.00    -0.032 A 
ATOM     16  C   LIG    1       26.092 -24.419   6.571  0.00  0.00    +0.004 A 
ATOM     17  C   LIG    1       25.323 -25.575   6.411  0.00  0.00    +0.000 A 
ATOM     18  C   LIG    1       23.933 -25.497   6.428  0.00  0.00    +0.000 A 
ATOM     19  C   LIG    1       23.311 -24.265   6.607  0.00  0.00    +0.000 A 
ATOM     20  C   LIG    1       24.075 -23.109   6.768  0.00  0.00    +0.004 A 
ENDBRANCH  14  15
BRANCH  14  21
ATOM     21  C   LIG    1       25.674 -20.659   6.302  0.00  0.00    +0.175 C 
BRANCH  21  22
ATOM     22  O   LIG    1       25.886 -20.595   4.892  0.00  0.00    -0.394 OA
ATOM     23  H   LIG    1       25.883 -21.512   4.562  0.00  0.00    +0.209 HD
ENDBRANCH  21  22
ENDBRANCH  14  21
ENDBRANCH   1  14
TORSDOF 6
ENDMDL
MODEL 3
REMARK VINA RESULT:      -8.3      1.458      2.654
REMARK  Name = *****
REMARK                            x       y       z     vdW  Elec       q    Type
REMARK                         _______ _______ _______ _____ _____    ______ ____
ROOT
ATOM      1  C   LIG    1       29.995 -19.245   6.879  0.00  0.00    +0.317 C 
ATOM      2  O   LIG    1       29.641 -18.174   6.407  0.00  0.00    -0.250 OA
ENDROOT
BRANCH   1   3
ATOM      3  O   LIG    1       29.378 -20.442   6.661  0.00  0.00    -0.461 OA
BRANCH   3  11
ATOM      4  C   LIG    1       24.822 -23.105   5.840  0.00  0.00    +0.105 C 
ATOM      5  N   LIG    1       25.972 -22.290   6.223  0.00  0.00    -0.294 NA
ATOM      6  C   LIG    1       25.673 -20.837   6.212  0.00  0.00    +0.091 C 
ATOM      7  C   LIG    1       24.955 -20.619   7.521  0.00  0.00    +0.166 C 
ATOM      8  C   LIG    1       25.423 -21.709   8.431  0.00  0.00    +0.166 C 
ATOM      9  O   LIG    1       25.705 -20.337   8.701  0.00  0.00    -0.365 OA
ATOM     10  C   LIG    1       27.038 -20.140   6.114  0.00  0.00    +0.066 C 
ATOM     11  C   LIG    1       28.042 -20.578   7.203  0.00  0.00    +0.180 C 
ATOM     12  C   LIG    1       27.846 -22.027   7.707  0.00  0.00    +0.066 C 
ATOM     13  C   LIG    1       26.398 -22.527   7.624  0.00  0.00    +0.091 C 
ENDBRANCH   3  11
ENDBRANCH   1   3
BRANCH   1  14
ATOM     14  C   LIG    1       31.173 -19.422   7.821  0.00  0.00    +0.153 C 
BRANCH  14  15
ATOM     15  C   LIG    1       31.226 -18.336   8.886  0.00  0.00    -0.032 A 
ATOM     16  C   LIG    1       32.263 -17.388   8.883  0.00  0.00    +0.004 A 
ATOM     17  C   LIG    1       32.321 -16.392   9.862  0.00  0.00    +0.000 A 
ATOM     18  C   LIG    1       31.345 -16.330  10.854  0.00  0.00    +0.000 A 
ATOM     19  C   LIG    1       30.311 -17.262  10.868  0.00  0.00    +0.000 A 
ATOM     20  C   LIG    1       30.249 -18.256   9.891  0.00  0.00    +0.004 A 
ENDBRANCH  14  15
BRANCH  14  21
ATOM     21  C   LIG    1       31.088 -20.843   8.404  0.00  0.00    +0.175 C 
BRANCH  21  22
ATOM     22  O   LIG    1       32.200 -21.131   9.251  0.00  0.00    -0.394 OA
ATOM     23  H   LIG    1       32.369 -22.088   9.185  0.00  0.00    +0.209 HD
ENDBRANCH  21  22
ENDBRANCH  14  21
ENDBRANCH   1  14
TORSDOF 6
ENDMDL
MODEL 4
REMARK VINA RESULT:      -8.1      4.062      6.367
REMARK  Name = *****
REMARK                            x       y       z     vdW  Elec       q    Type
REMARK                         _______ _______ _______ _____ _____    ______ ____
ROOT
ATOM      1  C   LIG    1       23.364 -22.655   6.647  0.00  0.00    +0.317 C 
ATOM      2  O   LIG    1       22.350 -23.253   6.975  0.00  0.00    -0.250 OA
ENDROOT
BRANCH   1   3
ATOM      3  O   LIG    1       24.462 -23.225   6.071  0.00  0.00    -0.461 OA
BRANCH   3  11
ATOM      4  C   LIG    1       27.778 -27.275   5.008  0.00  0.00    +0.105 C 
ATOM      5  N   LIG    1       26.736 -26.311   5.353  0.00  0.00    -0.294 NA
ATOM      6  C   LIG    1       25.494 -26.504   4.566  0.00  0.00    +0.091 C 
ATOM      7  C   LIG    1       24.809 -27.649   5.271  0.00  0.00    +0.166 C 
ATOM      8  C   LIG    1       25.306 -27.619   6.680  0.00  0.00    +0.166 C 
ATOM      9  O   LIG    1       23.935 -27.384   6.366  0.00  0.00    -0.365 OA
ATOM     10  C   LIG    1       24.743 -25.168   4.652  0.00  0.00    +0.066 C 
ATOM     11  C   LIG    1       24.513 -24.673   6.097  0.00  0.00    +0.180 C 
ATOM     12  C   LIG    1       25.596 -25.122   7.105  0.00  0.00    +0.066 C 
ATOM     13  C   LIG    1       26.264 -26.457   6.752  0.00  0.00    +0.091 C 
ENDBRANCH   3  11
ENDBRANCH   1   3
BRANCH   1  14
ATOM     14  C   LIG    1       23.589 -21.167   6.852  0.00  0.00    +0.153 C 
BRANCH  14  15
ATOM     15  C   LIG    1       25.067 -20.817   6.948  0.00  0.00    -0.032 A 
ATOM     16  C   LIG    1       25.802 -20.515   5.790  0.00  0.00    +0.004 A 
ATOM     17  C   LIG    1       27.162 -20.200   5.870  0.00  0.00    +0.000 A 
ATOM     18  C   LIG    1       27.803 -20.180   7.107  0.00  0.00    +0.000 A 
ATOM     19  C   LIG    1       27.085 -20.475   8.263  0.00  0.00    +0.000 A 
ATOM     20  C   LIG    1       25.728 -20.789   8.186  0.00  0.00    +0.004 A 
ENDBRANCH  14  15
BRANCH  14  21
ATOM     21  C   LIG    1       22.862 -20.429   5.715  0.00  0.00    +0.175 C 
BRANCH  21  22
ATOM     22  O   LIG    1       22.376 -21.338   4.726  0.00  0.00    -0.394 OA
ATOM     23  H   LIG    1       21.638 -20.894   4.269  0.00  0.00    +0.209 HD
ENDBRANCH  21  22
ENDBRANCH  14  21
ENDBRANCH   1  14
TORSDOF 6
ENDMDL
MODEL 5
REMARK VINA RESULT:      -8.1      1.992      6.729
REMARK  Name = *****
REMARK                            x       y       z     vdW  Elec       q    Type
REMARK                         _______ _______ _______ _____ _____    ______ ____
ROOT
ATOM      1  C   LIG    1       26.266 -21.416   8.570  0.00  0.00    +0.317 C 
ATOM      2  O   LIG    1       25.988 -20.484   9.312  0.00  0.00    -0.250 OA
ENDROOT
BRANCH   1   3
ATOM      3  O   LIG    1       27.519 -21.921   8.379  0.00  0.00    -0.461 OA
BRANCH   3  11
ATOM      4  C   LIG    1       31.267 -18.372   9.751  0.00  0.00    +0.105 C 
ATOM      5  N   LIG    1       30.293 -19.300   9.183  0.00  0.00    -0.294 NA
ATOM      6  C   LIG    1       29.319 -18.630   8.287  0.00  0.00    +0.091 C 
ATOM      7  C   LIG    1       30.082 -18.480   6.993  0.00  0.00    +0.166 C 
ATOM      8  C   LIG    1       31.113 -19.563   6.998  0.00  0.00    +0.166 C 
ATOM      9  O   LIG    1       30.062 -19.535   6.034  0.00  0.00    -0.365 OA
ATOM     10  C   LIG    1       28.116 -19.581   8.205  0.00  0.00    +0.066 C 
ATOM     11  C   LIG    1       28.485 -21.020   7.785  0.00  0.00    +0.180 C 
ATOM     12  C   LIG    1       29.908 -21.461   8.200  0.00  0.00    +0.066 C 
ATOM     13  C   LIG    1       30.917 -20.309   8.293  0.00  0.00    +0.091 C 
ENDBRANCH   3  11
ENDBRANCH   1   3
BRANCH   1  14
ATOM     14  C   LIG    1       25.261 -22.155   7.704  0.00  0.00    +0.153 C 
BRANCH  14  15
ATOM     15  C   LIG    1       24.685 -21.270   6.609  0.00  0.00    -0.032 A 
ATOM     16  C   LIG    1       23.352 -20.833   6.677  0.00  0.00    +0.004 A 
ATOM     17  C   LIG    1       22.814 -20.025   5.671  0.00  0.00    +0.000 A 
ATOM     18  C   LIG    1       23.600 -19.643   4.587  0.00  0.00    +0.000 A 
ATOM     19  C   LIG    1       24.924 -20.067   4.508  0.00  0.00    +0.000 A 
ATOM     20  C   LIG    1       25.464 -20.872   5.511  0.00  0.00    +0.004 A 
ENDBRANCH  14  15
BRANCH  14  21
ATOM     21  C   LIG    1       25.958 -23.417   7.165  0.00  0.00    +0.175 C 
BRANCH  21  22
ATOM     22  O   LIG    1       25.039 -24.274   6.486  0.00  0.00    -0.394 OA
ATOM     23  H   LIG    1       25.261 -24.236   5.538  0.00  0.00    +0.209 HD
ENDBRANCH  21  22
ENDBRANCH  14  21
ENDBRANCH   1  14
TORSDOF 6
ENDMDL
MODEL 6
REMARK VINA RESULT:      -8.1      1.174      1.718
REMARK  Name = *****
REMARK                            x       y       z     vdW  Elec       q    Type
REMARK                         _______ _______ _______ _____ _____    ______ ____
ROOT
ATOM      1  C   LIG    1       29.697 -20.389   8.000  0.00  0.00    +0.317 C 
ATOM      2  O   LIG    1       30.264 -20.913   8.948  0.00  0.00    -0.250 OA
ENDROOT
BRANCH   1   3
ATOM      3  O   LIG    1       28.930 -21.047   7.082  0.00  0.00    -0.461 OA
BRANCH   3  11
ATOM      4  C   LIG    1       24.359 -22.821   4.966  0.00  0.00    +0.105 C 
ATOM      5  N   LIG    1       25.493 -22.257   5.693  0.00  0.00    -0.294 NA
ATOM      6  C   LIG    1       25.392 -20.786   5.859  0.00  0.00    +0.091 C 
ATOM      7  C   LIG    1       24.441 -20.631   7.020  0.00  0.00    +0.166 C 
ATOM      8  C   LIG    1       24.556 -21.891   7.815  0.00  0.00    +0.166 C 
ATOM      9  O   LIG    1       24.947 -20.630   8.354  0.00  0.00    -0.365 OA
ATOM     10  C   LIG    1       26.823 -20.308   6.145  0.00  0.00    +0.066 C 
ATOM     11  C   LIG    1       27.502 -21.039   7.323  0.00  0.00    +0.180 C 
ATOM     12  C   LIG    1       27.018 -22.492   7.538  0.00  0.00    +0.066 C 
ATOM     13  C   LIG    1       25.571 -22.741   7.093  0.00  0.00    +0.091 C 
ENDBRANCH   3  11
ENDBRANCH   1   3
BRANCH   1  14
ATOM     14  C   LIG    1       29.774 -18.911   7.661  0.00  0.00    +0.153 C 
BRANCH  14  15
ATOM     15  C   LIG    1       30.512 -18.115   8.727  0.00  0.00    -0.032 A 
ATOM     16  C   LIG    1       29.858 -17.740   9.913  0.00  0.00    +0.004 A 
ATOM     17  C   LIG    1       30.527 -17.002  10.894  0.00  0.00    +0.000 A 
ATOM     18  C   LIG    1       31.857 -16.632  10.704  0.00  0.00    +0.000 A 
ATOM     19  C   LIG    1       32.517 -17.000   9.535  0.00  0.00    +0.000 A 
ATOM     20  C   LIG    1       31.852 -17.737   8.555  0.00  0.00    +0.004 A 
ENDBRANCH  14  15
BRANCH  14  21
ATOM     21  C   LIG    1       30.408 -18.791   6.264  0.00  0.00    +0.175 C 
BRANCH  21  22
ATOM     22  O   LIG    1       29.592 -18.019   5.383  0.00  0.00    -0.394 OA
ATOM     23  H   LIG    1       29.275 -18.622   4.686  0.00  0.00    +0.209 HD
ENDBRANCH  21  22
ENDBRANCH  14  21
ENDBRANCH   1  14
TORSDOF 6
ENDMDL
MODEL 7
REMARK VINA RESULT:      -7.9      1.379      1.830
REMARK  Name = *****
REMARK                            x       y       z     vdW  Elec       q    Type
REMARK                         _______ _______ _______ _____ _____    ______ ____
ROOT
ATOM      1  C   LIG    1       28.744 -21.040   8.365  0.00  0.00    +0.317 C 
ATOM      2  O   LIG    1       29.663 -21.802   8.631  0.00  0.00    -0.250 OA
ENDROOT
BRANCH   1   3
ATOM      3  O   LIG    1       27.428 -21.269   8.642  0.00  0.00    -0.461 OA
BRANCH   3  11
ATOM      4  C   LIG    1       22.816 -23.293   6.866  0.00  0.00    +0.105 C 
ATOM      5  N   LIG    1       24.077 -22.627   7.181  0.00  0.00    -0.294 NA
ATOM      6  C   LIG    1       25.114 -22.845   6.143  0.00  0.00    +0.091 C 
ATOM      7  C   LIG    1       24.743 -21.854   5.067  0.00  0.00    +0.166 C 
ATOM      8  C   LIG    1       23.992 -20.762   5.757  0.00  0.00    +0.166 C 
ATOM      9  O   LIG    1       25.249 -20.522   5.127  0.00  0.00    -0.365 OA
ATOM     10  C   LIG    1       26.453 -22.555   6.836  0.00  0.00    +0.066 C 
ATOM     11  C   LIG    1       26.515 -21.173   7.521  0.00  0.00    +0.180 C 
ATOM     12  C   LIG    1       25.151 -20.648   8.025  0.00  0.00    +0.066 C 
ATOM     13  C   LIG    1       23.950 -21.150   7.214  0.00  0.00    +0.091 C 
ENDBRANCH   3  11
ENDBRANCH   1   3
BRANCH   1  14
ATOM     14  C   LIG    1       28.909 -19.712   7.646  0.00  0.00    +0.153 C 
BRANCH  14  15
ATOM     15  C   LIG    1       29.949 -18.824   8.312  0.00  0.00    -0.032 A 
ATOM     16  C   LIG    1       29.609 -18.047   9.432  0.00  0.00    +0.004 A 
ATOM     17  C   LIG    1       30.558 -17.224  10.044  0.00  0.00    +0.000 A 
ATOM     18  C   LIG    1       31.858 -17.166   9.547  0.00  0.00    +0.000 A 
ATOM     19  C   LIG    1       32.210 -17.933   8.439  0.00  0.00    +0.000 A 
ATOM     20  C   LIG    1       31.265 -18.757   7.826  0.00  0.00    +0.004 A 
ENDBRANCH  14  15
BRANCH  14  21
ATOM     21  C   LIG    1       29.225 -20.022   6.172  0.00  0.00    +0.175 C 
BRANCH  21  22
ATOM     22  O   LIG    1       28.214 -19.514   5.301  0.00  0.00    -0.394 OA
ATOM     23  H   LIG    1       28.567 -18.700   4.899  0.00  0.00    +0.209 HD
ENDBRANCH  21  22
ENDBRANCH  14  21
ENDBRANCH   1  14
TORSDOF 6
ENDMDL
MODEL 8
REMARK VINA RESULT:      -7.9      4.195      6.694
REMARK  Name = *****
REMARK                            x       y       z     vdW  Elec       q    Type
REMARK                         _______ _______ _______ _____ _____    ______ ____
ROOT
ATOM      1  C   LIG    1       24.994 -22.284   7.481  0.00  0.00    +0.317 C 
ATOM      2  O   LIG    1       25.234 -21.912   8.621  0.00  0.00    -0.250 OA
ENDROOT
BRANCH   1   3
ATOM      3  O   LIG    1       24.166 -23.317   7.150  0.00  0.00    -0.461 OA
BRANCH   3  11
ATOM      4  C   LIG    1       25.142 -28.567   7.246  0.00  0.00    +0.105 C 
ATOM      5  N   LIG    1       24.961 -27.134   7.034  0.00  0.00    -0.294 NA
ATOM      6  C   LIG    1       26.241 -26.424   6.796  0.00  0.00    +0.091 C 
ATOM      7  C   LIG    1       26.530 -26.705   5.342  0.00  0.00    +0.166 C 
ATOM      8  C   LIG    1       25.204 -26.968   4.704  0.00  0.00    +0.166 C 
ATOM      9  O   LIG    1       26.000 -25.843   4.336  0.00  0.00    -0.365 OA
ATOM     10  C   LIG    1       25.956 -24.948   7.112  0.00  0.00    +0.066 C 
ATOM     11  C   LIG    1       24.750 -24.367   6.341  0.00  0.00    +0.180 C 
ATOM     12  C   LIG    1       23.657 -25.403   5.991  0.00  0.00    +0.066 C 
ATOM     13  C   LIG    1       24.185 -26.831   5.807  0.00  0.00    +0.091 C 
ENDBRANCH   3  11
ENDBRANCH   1   3
BRANCH   1  14
ATOM     14  C   LIG    1       25.604 -21.676   6.231  0.00  0.00    +0.153 C 
BRANCH  14  15
ATOM     15  C   LIG    1       24.643 -20.733   5.522  0.00  0.00    -0.032 A 
ATOM     16  C   LIG    1       25.029 -20.083   4.338  0.00  0.00    +0.004 A 
ATOM     17  C   LIG    1       24.153 -19.211   3.685  0.00  0.00    +0.000 A 
ATOM     18  C   LIG    1       22.882 -18.979   4.205  0.00  0.00    +0.000 A 
ATOM     19  C   LIG    1       22.485 -19.619   5.375  0.00  0.00    +0.000 A 
ATOM     20  C   LIG    1       23.356 -20.491   6.029  0.00  0.00    +0.004 A 
ENDBRANCH  14  15
BRANCH  14  21
ATOM     21  C   LIG    1       26.924 -21.001   6.644  0.00  0.00    +0.175 C 
BRANCH  21  22
ATOM     22  O   LIG    1       27.778 -21.905   7.345  0.00  0.00    -0.394 OA
ATOM     23  H   LIG    1       27.431 -22.803   7.191  0.00  0.00    +0.209 HD
ENDBRANCH  21  22
ENDBRANCH  14  21
ENDBRANCH   1  14
TORSDOF 6
ENDMDL
MODEL 9
REMARK VINA RESULT:      -7.8      2.170      7.240
REMARK  Name = *****
REMARK                            x       y       z     vdW  Elec       q    Type
REMARK                         _______ _______ _______ _____ _____    ______ ____
ROOT
ATOM      1  C   LIG    1       26.961 -20.751   6.462  0.00  0.00    +0.317 C 
ATOM      2  O   LIG    1       27.168 -20.287   5.350  0.00  0.00    -0.250 OA
ENDROOT
BRANCH   1   3
ATOM      3  O   LIG    1       27.907 -21.323   7.263  0.00  0.00    -0.461 OA
BRANCH   3  11
ATOM      4  C   LIG    1       30.677 -18.067  10.464  0.00  0.00    +0.105 C 
ATOM      5  N   LIG    1       30.082 -18.949   9.464  0.00  0.00    -0.294 NA
ATOM      6  C   LIG    1       29.966 -18.308   8.131  0.00  0.00    +0.091 C 
ATOM      7  C   LIG    1       31.357 -18.435   7.562  0.00  0.00    +0.166 C 
ATOM      8  C   LIG    1       31.971 -19.616   8.240  0.00  0.00    +0.166 C 
ATOM      9  O   LIG    1       31.720 -19.608   6.836  0.00  0.00    -0.365 OA
ATOM     10  C   LIG    1       28.898 -19.116   7.380  0.00  0.00    +0.066 C 
ATOM     11  C   LIG    1       29.179 -20.633   7.337  0.00  0.00    +0.180 C 
ATOM     12  C   LIG    1       29.974 -21.170   8.549  0.00  0.00    +0.066 C 
ATOM     13  C   LIG    1       30.918 -20.141   9.183  0.00  0.00    +0.091 C 
ENDBRANCH   3  11
ENDBRANCH   1   3
BRANCH   1  14
ATOM     14  C   LIG    1       25.601 -20.800   7.135  0.00  0.00    +0.153 C 
BRANCH  14  15
ATOM     15  C   LIG    1       24.900 -22.133   6.919  0.00  0.00    -0.032 A 
ATOM     16  C   LIG    1       25.646 -23.289   6.633  0.00  0.00    +0.004 A 
ATOM     17  C   LIG    1       25.008 -24.516   6.427  0.00  0.00    +0.000 A 
ATOM     18  C   LIG    1       23.620 -24.604   6.506  0.00  0.00    +0.000 A 
ATOM     19  C   LIG    1       22.870 -23.467   6.791  0.00  0.00    +0.000 A 
ATOM     20  C   LIG    1       23.503 -22.241   6.999  0.00  0.00    +0.004 A 
ENDBRANCH  14  15
BRANCH  14  21
ATOM     21  C   LIG    1       25.808 -20.454   8.620  0.00  0.00    +0.175 C 
BRANCH  21  22
ATOM     22  O   LIG    1       25.825 -21.626   9.434  0.00  0.00    -0.394 OA
ATOM     23  H   LIG    1       26.676 -22.073   9.272  0.00  0.00    +0.209 HD
ENDBRANCH  21  22
ENDBRANCH  14  21
ENDBRANCH   1  14
TORSDOF 6
ENDMDL
