MODEL 1
REMARK VINA RESULT:      -6.1      0.000      0.000
REMARK  Name = *****
REMARK                            x       y       z     vdW  Elec       q    Type
REMARK                         _______ _______ _______ _____ _____    ______ ____
ROOT
ATOM      1  O   LIG    1       27.883 -21.512   6.761  0.00  0.00    -0.340 OA
ENDROOT
BRANCH   1   2
ATOM      2  C   LIG    1       26.992 -21.963   7.802  0.00  0.00    +0.282 C 
ATOM      3  C   LIG    1       25.819 -20.982   8.061  0.00  0.00    +0.201 C 
ATOM      4  C   LIG    1       24.620 -21.146   7.108  0.00  0.00    +0.179 C 
ATOM      5  C   LIG    1       24.679 -22.431   6.281  0.00  0.00    +0.177 C 
ATOM      6  C   LIG    1       25.238 -23.558   7.155  0.00  0.00    +0.178 C 
ATOM      7  O   LIG    1       26.567 -23.320   7.642  0.00  0.00    -0.341 OA
BRANCH   3   8
ATOM      8  O   LIG    1       25.319 -21.188   9.406  0.00  0.00    -0.384 OA
ATOM      9  H   LIG    1       24.619 -21.868   9.369  0.00  0.00    +0.210 HD
ENDBRANCH   3   8
BRANCH   4  10
ATOM     10  O   LIG    1       24.480 -20.027   6.217  0.00  0.00    -0.386 OA
ATOM     11  H   LIG    1       23.519 -19.876   6.112  0.00  0.00    +0.210 HD
ENDBRANCH   4  10
BRANCH   5  12
ATOM     12  O   LIG    1       25.476 -22.228   5.106  0.00  0.00    -0.387 OA
ATOM     13  H   LIG    1       26.393 -22.363   5.414  0.00  0.00    +0.210 HD
ENDBRANCH   5  12
BRANCH   6  14
ATOM     14  C   LIG    1       25.209 -24.917   6.426  0.00  0.00    +0.190 C 
BRANCH  14  15
ATOM     15  O   LIG    1       24.336 -24.877   5.299  0.00  0.00    -0.392 OA
ATOM     16  H   LIG    1       24.611 -25.595   4.712  0.00  0.00    +0.209 HD
ENDBRANCH  14  15
ENDBRANCH   6  14
ENDBRANCH   1   2
BRANCH   1  18
ATOM     17  C   LIG    1       29.473 -19.759   6.026  0.00  0.00    +0.178 C 
ATOM     18  C   LIG    1       28.354 -20.159   7.010  0.00  0.00    +0.186 C 
ATOM     19  C   LIG    1       29.051 -20.116   8.361  0.00  0.00    +0.207 C 
ATOM     20  C   LIG    1       30.543 -20.290   8.020  0.00  0.00    +0.221 C 
ATOM     21  O   LIG    1       30.712 -20.223   6.594  0.00  0.00    -0.336 OA
BRANCH  19  22
ATOM     22  O   LIG    1       28.770 -18.884   9.037  0.00  0.00    -0.384 OA
ATOM     23  H   LIG    1       27.846 -18.670   8.832  0.00  0.00    +0.210 HD
ENDBRANCH  19  22
BRANCH  20  24
ATOM     24  O   LIG    1       31.297 -19.209   8.579  0.00  0.00    -0.361 OA
ATOM     25  H   LIG    1       30.677 -18.808   9.229  0.00  0.00    +0.213 HD
ENDBRANCH  20  24
BRANCH  17  26
ATOM     26  C   LIG    1       29.587 -18.243   5.764  0.00  0.00    +0.190 C 
BRANCH  26  27
ATOM     27  O   LIG    1       28.811 -17.781   4.653  0.00  0.00    -0.392 OA
ATOM     28  H   LIG    1       29.411 -17.305   4.062  0.00  0.00    +0.209 HD
ENDBRANCH  26  27
ENDBRANCH  17  26
BRANCH  20  29
ATOM     29  C   LIG    1       31.102 -21.635   8.508  0.00  0.00    +0.223 C 
BRANCH  29  30
ATOM     30  O   LIG    1       32.113 -21.380   9.499  0.00  0.00    -0.390 OA
ATOM     31  H   LIG    1       32.410 -22.263   9.792  0.00  0.00    +0.210 HD
ENDBRANCH  29  30
ENDBRANCH  20  29
ENDBRANCH   1  18
TORSDOF 13
ENDMDL
MODEL 2
REMARK VINA RESULT:      -6.0      1.274      2.667
REMARK  Name = *****
REMARK                            x       y       z     vdW  Elec       q    Type
REMARK                         _______ _______ _______ _____ _____    ______ ____
ROOT
ATOM      1  O   LIG    1       28.155 -20.625   7.001  0.00  0.00    -0.340 OA
ENDROOT
BRANCH   1   2
ATOM      2  C   LIG    1       27.402 -21.339   8.004  0.00  0.00    +0.282 C 
ATOM      3  C   LIG    1       26.066 -20.639   8.368  0.00  0.00    +0.201 C 
ATOM      4  C   LIG    1       24.896 -20.951   7.417  0.00  0.00    +0.179 C 
ATOM      5  C   LIG    1       25.183 -22.116   6.470  0.00  0.00    +0.177 C 
ATOM      6  C   LIG    1       25.979 -23.185   7.224  0.00  0.00    +0.178 C 
ATOM      7  O   LIG    1       27.249 -22.732   7.717  0.00  0.00    -0.341 OA
BRANCH   3   8
ATOM      8  O   LIG    1       25.658 -21.066   9.693  0.00  0.00    -0.384 OA
ATOM      9  H   LIG    1       26.363 -21.632  10.060  0.00  0.00    +0.210 HD
ENDBRANCH   3   8
BRANCH   4  10
ATOM     10  O   LIG    1       24.510 -19.805   6.641  0.00  0.00    -0.386 OA
ATOM     11  H   LIG    1       23.536 -19.748   6.695  0.00  0.00    +0.210 HD
ENDBRANCH   4  10
BRANCH   5  12
ATOM     12  O   LIG    1       25.888 -21.650   5.311  0.00  0.00    -0.387 OA
ATOM     13  H   LIG    1       26.642 -21.149   5.677  0.00  0.00    +0.210 HD
ENDBRANCH   5  12
BRANCH   6  14
ATOM     14  C   LIG    1       26.197 -24.449   6.367  0.00  0.00    +0.190 C 
BRANCH  14  15
ATOM     15  O   LIG    1       25.349 -24.446   5.221  0.00  0.00    -0.392 OA
ATOM     16  H   LIG    1       24.613 -25.039   5.421  0.00  0.00    +0.209 HD
ENDBRANCH  14  15
ENDBRANCH   6  14
ENDBRANCH   1   2
BRANCH   1  18
ATOM     17  C   LIG    1       29.950 -21.242   8.594  0.00  0.00    +0.178 C 
ATOM     18  C   LIG    1       29.585 -20.848   7.148  0.00  0.00    +0.186 C 
ATOM     19  C   LIG    1       30.317 -19.529   6.954  0.00  0.00    +0.207 C 
ATOM     20  C   LIG    1       30.519 -18.998   8.387  0.00  0.00    +0.221 C 
ATOM     21  O   LIG    1       30.134 -20.016   9.326  0.00  0.00    -0.336 OA
BRANCH  19  22
ATOM     22  O   LIG    1       31.549 -19.731   6.252  0.00  0.00    -0.384 OA
ATOM     23  H   LIG    1       31.450 -19.277   5.400  0.00  0.00    +0.210 HD
ENDBRANCH  19  22
BRANCH  20  24
ATOM     24  O   LIG    1       31.907 -18.728   8.612  0.00  0.00    -0.361 OA
ATOM     25  H   LIG    1       32.101 -17.990   7.991  0.00  0.00    +0.213 HD
ENDBRANCH  20  24
BRANCH  17  26
ATOM     26  C   LIG    1       31.231 -22.092   8.724  0.00  0.00    +0.190 C 
BRANCH  26  27
ATOM     27  O   LIG    1       32.246 -21.499   9.542  0.00  0.00    -0.392 OA
ATOM     28  H   LIG    1       32.717 -22.220   9.984  0.00  0.00    +0.209 HD
ENDBRANCH  26  27
ENDBRANCH  17  26
BRANCH  20  29
ATOM     29  C   LIG    1       29.682 -17.742   8.670  0.00  0.00    +0.223 C 
BRANCH  29  30
ATOM     30  O   LIG    1       30.114 -17.172   9.918  0.00  0.00    -0.390 OA
ATOM     31  H   LIG    1       29.929 -17.857  10.588  0.00  0.00    +0.210 HD
ENDBRANCH  29  30
ENDBRANCH  20  29
ENDBRANCH   1  18
TORSDOF 13
ENDMDL
MODEL 3
REMARK VINA RESULT:      -5.6      1.449      6.082
REMARK  Name = *****
REMARK                            x       y       z     vdW  Elec       q    Type
REMARK                         _______ _______ _______ _____ _____    ______ ____
ROOT
ATOM      1  O   LIG    1       27.022 -20.418   7.873  0.00  0.00    -0.340 OA
ENDROOT
BRANCH   1   2
ATOM      2  C   LIG    1       28.077 -20.933   7.033  0.00  0.00    +0.282 C 
ATOM      3  C   LIG    1       28.721 -19.845   6.135  0.00  0.00    +0.201 C 
ATOM      4  C   LIG    1       29.818 -19.010   6.822  0.00  0.00    +0.179 C 
ATOM      5  C   LIG    1       30.276 -19.598   8.156  0.00  0.00    +0.177 C 
ATOM      6  C   LIG    1       30.310 -21.125   8.041  0.00  0.00    +0.178 C 
ATOM      7  O   LIG    1       29.038 -21.720   7.743  0.00  0.00    -0.341 OA
BRANCH   3   8
ATOM      8  O   LIG    1       29.334 -20.484   4.986  0.00  0.00    -0.384 OA
ATOM      9  H   LIG    1       29.987 -19.865   4.608  0.00  0.00    +0.210 HD
ENDBRANCH   3   8
BRANCH   4  10
ATOM     10  O   LIG    1       29.411 -17.648   7.030  0.00  0.00    -0.386 OA
ATOM     11  H   LIG    1       29.276 -17.260   6.142  0.00  0.00    +0.210 HD
ENDBRANCH   4  10
BRANCH   5  12
ATOM     12  O   LIG    1       29.406 -19.166   9.212  0.00  0.00    -0.387 OA
ATOM     13  H   LIG    1       29.211 -19.985   9.708  0.00  0.00    +0.210 HD
ENDBRANCH   5  12
BRANCH   6  14
ATOM     14  C   LIG    1       30.885 -21.783   9.312  0.00  0.00    +0.190 C 
BRANCH  14  15
ATOM     15  O   LIG    1       32.268 -21.475   9.470  0.00  0.00    -0.392 OA
ATOM     16  H   LIG    1       32.519 -20.935   8.709  0.00  0.00    +0.209 HD
ENDBRANCH  14  15
ENDBRANCH   6  14
ENDBRANCH   1   2
BRANCH   1  18
ATOM     17  C   LIG    1       26.086 -22.530   6.976  0.00  0.00    +0.178 C 
ATOM     18  C   LIG    1       25.877 -21.314   7.901  0.00  0.00    +0.186 C 
ATOM     19  C   LIG    1       24.680 -20.610   7.281  0.00  0.00    +0.207 C 
ATOM     20  C   LIG    1       24.682 -21.087   5.815  0.00  0.00    +0.221 C 
ATOM     21  O   LIG    1       25.657 -22.131   5.660  0.00  0.00    -0.336 OA
BRANCH  19  22
ATOM     22  O   LIG    1       23.475 -20.949   7.978  0.00  0.00    -0.384 OA
ATOM     23  H   LIG    1       22.759 -20.475   7.523  0.00  0.00    +0.210 HD
ENDBRANCH  19  22
BRANCH  20  24
ATOM     24  O   LIG    1       23.409 -21.653   5.488  0.00  0.00    -0.361 OA
ATOM     25  H   LIG    1       22.865 -20.872   5.242  0.00  0.00    +0.213 HD
ENDBRANCH  20  24
BRANCH  17  26
ATOM     26  C   LIG    1       25.304 -23.794   7.388  0.00  0.00    +0.190 C 
BRANCH  26  27
ATOM     27  O   LIG    1       24.432 -24.300   6.372  0.00  0.00    -0.392 OA
ATOM     28  H   LIG    1       23.553 -24.391   6.766  0.00  0.00    +0.209 HD
ENDBRANCH  26  27
ENDBRANCH  17  26
BRANCH  20  29
ATOM     29  C   LIG    1       25.028 -19.957   4.833  0.00  0.00    +0.223 C 
BRANCH  29  30
ATOM     30  O   LIG    1       26.200 -20.335   4.090  0.00  0.00    -0.390 OA
ATOM     31  H   LIG    1       26.567 -19.498   3.749  0.00  0.00    +0.210 HD
ENDBRANCH  29  30
ENDBRANCH  20  29
ENDBRANCH   1  18
TORSDOF 13
ENDMDL
MODEL 4
REMARK VINA RESULT:      -5.6      1.677      3.490
REMARK  Name = *****
REMARK                            x       y       z     vdW  Elec       q    Type
REMARK                         _______ _______ _______ _____ _____    ______ ____
ROOT
ATOM      1  O   LIG    1       27.595 -19.755   7.753  0.00  0.00    -0.340 OA
ENDROOT
BRANCH   1   2
ATOM      2  C   LIG    1       27.313 -20.855   6.861  0.00  0.00    +0.282 C 
ATOM      3  C   LIG    1       26.997 -22.175   7.610  0.00  0.00    +0.201 C 
ATOM      4  C   LIG    1       25.536 -22.317   8.077  0.00  0.00    +0.179 C 
ATOM      5  C   LIG    1       24.604 -21.274   7.462  0.00  0.00    +0.177 C 
ATOM      6  C   LIG    1       25.016 -21.035   6.007  0.00  0.00    +0.178 C 
ATOM      7  O   LIG    1       26.353 -20.536   5.849  0.00  0.00    -0.341 OA
BRANCH   3   8
ATOM      8  O   LIG    1       27.268 -23.294   6.727  0.00  0.00    -0.384 OA
ATOM      9  H   LIG    1       26.538 -23.936   6.820  0.00  0.00    +0.210 HD
ENDBRANCH   3   8
BRANCH   4  10
ATOM     10  O   LIG    1       25.418 -22.259   9.508  0.00  0.00    -0.386 OA
ATOM     11  H   LIG    1       24.609 -22.756   9.740  0.00  0.00    +0.210 HD
ENDBRANCH   4  10
BRANCH   5  12
ATOM     12  O   LIG    1       24.641 -20.062   8.228  0.00  0.00    -0.387 OA
ATOM     13  H   LIG    1       24.457 -20.353   9.142  0.00  0.00    +0.210 HD
ENDBRANCH   5  12
BRANCH   6  14
ATOM     14  C   LIG    1       24.040 -20.087   5.281  0.00  0.00    +0.190 C 
BRANCH  14  15
ATOM     15  O   LIG    1       22.772 -20.056   5.934  0.00  0.00    -0.392 OA
ATOM     16  H   LIG    1       22.798 -20.737   6.618  0.00  0.00    +0.209 HD
ENDBRANCH  14  15
ENDBRANCH   6  14
ENDBRANCH   1   2
BRANCH   1  18
ATOM     17  C   LIG    1       29.518 -18.488   8.667  0.00  0.00    +0.178 C 
ATOM     18  C   LIG    1       28.920 -19.872   8.342  0.00  0.00    +0.186 C 
ATOM     19  C   LIG    1       29.880 -20.427   7.301  0.00  0.00    +0.207 C 
ATOM     20  C   LIG    1       30.546 -19.174   6.699  0.00  0.00    +0.221 C 
ATOM     21  O   LIG    1       30.165 -18.022   7.468  0.00  0.00    -0.336 OA
BRANCH  19  22
ATOM     22  O   LIG    1       30.818 -21.326   7.904  0.00  0.00    -0.384 OA
ATOM     23  H   LIG    1       31.178 -21.863   7.180  0.00  0.00    +0.210 HD
ENDBRANCH  19  22
BRANCH  20  24
ATOM     24  O   LIG    1       31.969 -19.289   6.796  0.00  0.00    -0.361 OA
ATOM     25  H   LIG    1       32.299 -18.554   6.232  0.00  0.00    +0.213 HD
ENDBRANCH  20  24
BRANCH  17  26
ATOM     26  C   LIG    1       30.548 -18.487   9.816  0.00  0.00    +0.190 C 
BRANCH  26  27
ATOM     27  O   LIG    1       31.786 -19.129   9.493  0.00  0.00    -0.392 OA
ATOM     28  H   LIG    1       31.863 -19.908  10.063  0.00  0.00    +0.209 HD
ENDBRANCH  26  27
ENDBRANCH  17  26
BRANCH  20  29
ATOM     29  C   LIG    1       30.132 -18.936   5.239  0.00  0.00    +0.223 C 
BRANCH  29  30
ATOM     30  O   LIG    1       29.357 -17.726   5.172  0.00  0.00    -0.390 OA
ATOM     31  H   LIG    1       29.976 -17.013   5.419  0.00  0.00    +0.210 HD
ENDBRANCH  29  30
ENDBRANCH  20  29
ENDBRANCH   1  18
TORSDOF 13
ENDMDL
MODEL 5
REMARK VINA RESULT:      -5.6      2.995      6.240
REMARK  Name = *****
REMARK                            x       y       z     vdW  Elec       q    Type
REMARK                         _______ _______ _______ _____ _____    ______ ____
ROOT
ATOM      1  O   LIG    1       25.239 -24.938   7.143  0.00  0.00    -0.340 OA
ENDROOT
BRANCH   1   2
ATOM      2  C   LIG    1       24.723 -25.632   5.988  0.00  0.00    +0.282 C 
ATOM      3  C   LIG    1       25.804 -25.896   4.907  0.00  0.00    +0.201 C 
ATOM      4  C   LIG    1       26.662 -27.152   5.149  0.00  0.00    +0.179 C 
ATOM      5  C   LIG    1       26.101 -28.065   6.238  0.00  0.00    +0.177 C 
ATOM      6  C   LIG    1       24.573 -28.081   6.134  0.00  0.00    +0.178 C 
ATOM      7  O   LIG    1       23.959 -26.796   6.317  0.00  0.00    -0.341 OA
BRANCH   3   8
ATOM      8  O   LIG    1       25.154 -26.070   3.623  0.00  0.00    -0.384 OA
ATOM      9  H   LIG    1       25.743 -26.604   3.055  0.00  0.00    +0.210 HD
ENDBRANCH   3   8
BRANCH   4  10
ATOM     10  O   LIG    1       28.023 -26.823   5.474  0.00  0.00    -0.386 OA
ATOM     11  H   LIG    1       28.163 -27.105   6.400  0.00  0.00    +0.210 HD
ENDBRANCH   4  10
BRANCH   5  12
ATOM     12  O   LIG    1       26.539 -27.622   7.530  0.00  0.00    -0.387 OA
ATOM     13  H   LIG    1       25.988 -28.131   8.155  0.00  0.00    +0.210 HD
ENDBRANCH   5  12
BRANCH   6  14
ATOM     14  C   LIG    1       23.941 -29.082   7.123  0.00  0.00    +0.190 C 
BRANCH  14  15
ATOM     15  O   LIG    1       23.539 -30.278   6.459  0.00  0.00    -0.392 OA
ATOM     16  H   LIG    1       23.126 -30.005   5.629  0.00  0.00    +0.209 HD
ENDBRANCH  14  15
ENDBRANCH   6  14
ENDBRANCH   1   2
BRANCH   1  18
ATOM     17  C   LIG    1       25.965 -22.744   8.038  0.00  0.00    +0.178 C 
ATOM     18  C   LIG    1       25.756 -23.625   6.790  0.00  0.00    +0.186 C 
ATOM     19  C   LIG    1       24.696 -22.868   6.006  0.00  0.00    +0.207 C 
ATOM     20  C   LIG    1       23.984 -22.009   7.070  0.00  0.00    +0.221 C 
ATOM     21  O   LIG    1       24.706 -22.101   8.309  0.00  0.00    -0.336 OA
BRANCH  19  22
ATOM     22  O   LIG    1       25.295 -22.086   4.965  0.00  0.00    -0.384 OA
ATOM     23  H   LIG    1       24.602 -21.948   4.300  0.00  0.00    +0.210 HD
ENDBRANCH  19  22
BRANCH  20  24
ATOM     24  O   LIG    1       24.006 -20.634   6.676  0.00  0.00    -0.361 OA
ATOM     25  H   LIG    1       23.432 -20.194   7.343  0.00  0.00    +0.213 HD
ENDBRANCH  20  24
BRANCH  17  26
ATOM     26  C   LIG    1       27.051 -21.659   7.885  0.00  0.00    +0.190 C 
BRANCH  26  27
ATOM     27  O   LIG    1       26.722 -20.411   8.505  0.00  0.00    -0.392 OA
ATOM     28  H   LIG    1       27.458 -20.177   9.088  0.00  0.00    +0.209 HD
ENDBRANCH  26  27
ENDBRANCH  17  26
BRANCH  20  29
ATOM     29  C   LIG    1       22.539 -22.467   7.320  0.00  0.00    +0.223 C 
BRANCH  29  30
ATOM     30  O   LIG    1       22.321 -23.705   6.622  0.00  0.00    -0.390 OA
ATOM     31  H   LIG    1       22.572 -23.524   5.696  0.00  0.00    +0.210 HD
ENDBRANCH  29  30
ENDBRANCH  20  29
ENDBRANCH   1  18
TORSDOF 13
ENDMDL
MODEL 6
REMARK VINA RESULT:      -5.5      2.564      6.386
REMARK  Name = *****
REMARK                            x       y       z     vdW  Elec       q    Type
REMARK                         _______ _______ _______ _____ _____    ______ ____
ROOT
ATOM      1  O   LIG    1       26.357 -23.573   6.712  0.00  0.00    -0.340 OA
ENDROOT
BRANCH   1   2
ATOM      2  C   LIG    1       26.082 -22.491   7.627  0.00  0.00    +0.282 C 
ATOM      3  C   LIG    1       27.140 -21.359   7.560  0.00  0.00    +0.201 C 
ATOM      4  C   LIG    1       26.910 -20.329   6.438  0.00  0.00    +0.179 C 
ATOM      5  C   LIG    1       25.530 -20.442   5.790  0.00  0.00    +0.177 C 
ATOM      6  C   LIG    1       24.498 -20.770   6.873  0.00  0.00    +0.178 C 
ATOM      7  O   LIG    1       24.736 -22.011   7.554  0.00  0.00    -0.341 OA
BRANCH   3   8
ATOM      8  O   LIG    1       27.127 -20.627   8.812  0.00  0.00    -0.384 OA
ATOM      9  H   LIG    1       26.413 -19.963   8.768  0.00  0.00    +0.210 HD
ENDBRANCH   3   8
BRANCH   4  10
ATOM     10  O   LIG    1       27.913 -20.415   5.412  0.00  0.00    -0.386 OA
ATOM     11  H   LIG    1       27.655 -21.159   4.833  0.00  0.00    +0.210 HD
ENDBRANCH   4  10
BRANCH   5  12
ATOM     12  O   LIG    1       25.548 -21.436   4.756  0.00  0.00    -0.387 OA
ATOM     13  H   LIG    1       26.443 -21.365   4.373  0.00  0.00    +0.210 HD
ENDBRANCH   5  12
BRANCH   6  14
ATOM     14  C   LIG    1       23.061 -20.774   6.313  0.00  0.00    +0.190 C 
BRANCH  14  15
ATOM     15  O   LIG    1       22.835 -21.911   5.482  0.00  0.00    -0.392 OA
ATOM     16  H   LIG    1       23.174 -21.683   4.606  0.00  0.00    +0.209 HD
ENDBRANCH  14  15
ENDBRANCH   6  14
ENDBRANCH   1   2
BRANCH   1  18
ATOM     17  C   LIG    1       26.454 -26.048   6.789  0.00  0.00    +0.178 C 
ATOM     18  C   LIG    1       25.628 -24.778   7.076  0.00  0.00    +0.186 C 
ATOM     19  C   LIG    1       24.428 -24.931   6.155  0.00  0.00    +0.207 C 
ATOM     20  C   LIG    1       24.923 -25.882   5.048  0.00  0.00    +0.221 C 
ATOM     21  O   LIG    1       26.214 -26.399   5.413  0.00  0.00    -0.336 OA
BRANCH  19  22
ATOM     22  O   LIG    1       23.299 -25.445   6.872  0.00  0.00    -0.384 OA
ATOM     23  H   LIG    1       23.318 -25.018   7.744  0.00  0.00    +0.210 HD
ENDBRANCH  19  22
BRANCH  20  24
ATOM     24  O   LIG    1       24.040 -27.004   4.943  0.00  0.00    -0.361 OA
ATOM     25  H   LIG    1       23.174 -26.644   5.241  0.00  0.00    +0.213 HD
ENDBRANCH  20  24
BRANCH  17  26
ATOM     26  C   LIG    1       26.101 -27.259   7.676  0.00  0.00    +0.190 C 
BRANCH  26  27
ATOM     27  O   LIG    1       25.830 -28.461   6.946  0.00  0.00    -0.392 OA
ATOM     28  H   LIG    1       25.315 -28.213   6.165  0.00  0.00    +0.209 HD
ENDBRANCH  26  27
ENDBRANCH  17  26
BRANCH  20  29
ATOM     29  C   LIG    1       25.053 -25.181   3.688  0.00  0.00    +0.223 C 
BRANCH  29  30
ATOM     30  O   LIG    1       24.731 -23.789   3.855  0.00  0.00    -0.390 OA
ATOM     31  H   LIG    1       25.030 -23.565   4.757  0.00  0.00    +0.210 HD
ENDBRANCH  29  30
ENDBRANCH  20  29
ENDBRANCH   1  18
TORSDOF 13
ENDMDL
MODEL 7
REMARK VINA RESULT:      -5.4      3.270      6.790
REMARK  Name = *****
REMARK                            x       y       z     vdW  Elec       q    Type
REMARK                         _______ _______ _______ _____ _____    ______ ____
ROOT
ATOM      1  O   LIG    1       25.782 -24.339   6.306  0.00  0.00    -0.340 OA
ENDROOT
BRANCH   1   2
ATOM      2  C   LIG    1       24.611 -23.508   6.163  0.00  0.00    +0.282 C 
ATOM      3  C   LIG    1       24.154 -22.871   7.502  0.00  0.00    +0.201 C 
ATOM      4  C   LIG    1       24.898 -21.577   7.885  0.00  0.00    +0.179 C 
ATOM      5  C   LIG    1       25.732 -21.000   6.742  0.00  0.00    +0.177 C 
ATOM      6  C   LIG    1       24.972 -21.191   5.426  0.00  0.00    +0.178 C 
ATOM      7  O   LIG    1       24.710 -22.563   5.093  0.00  0.00    -0.341 OA
BRANCH   3   8
ATOM      8  O   LIG    1       22.746 -22.536   7.408  0.00  0.00    -0.384 OA
ATOM      9  H   LIG    1       22.318 -22.792   8.247  0.00  0.00    +0.210 HD
ENDBRANCH   3   8
BRANCH   4  10
ATOM     10  O   LIG    1       25.744 -21.759   9.032  0.00  0.00    -0.386 OA
ATOM     11  H   LIG    1       26.649 -21.520   8.750  0.00  0.00    +0.210 HD
ENDBRANCH   4  10
BRANCH   5  12
ATOM     12  O   LIG    1       27.022 -21.628   6.704  0.00  0.00    -0.387 OA
ATOM     13  H   LIG    1       26.875 -22.440   6.181  0.00  0.00    +0.210 HD
ENDBRANCH   5  12
BRANCH   6  14
ATOM     14  C   LIG    1       25.697 -20.519   4.242  0.00  0.00    +0.190 C 
BRANCH  14  15
ATOM     15  O   LIG    1       26.872 -19.839   4.677  0.00  0.00    -0.392 OA
ATOM     16  H   LIG    1       27.286 -19.471   3.886  0.00  0.00    +0.209 HD
ENDBRANCH  14  15
ENDBRANCH   6  14
ENDBRANCH   1   2
BRANCH   1  18
ATOM     17  C   LIG    1       24.340 -26.265   5.712  0.00  0.00    +0.178 C 
ATOM     18  C   LIG    1       25.685 -25.542   5.494  0.00  0.00    +0.186 C 
ATOM     19  C   LIG    1       26.706 -26.557   5.984  0.00  0.00    +0.207 C 
ATOM     20  C   LIG    1       25.907 -27.459   6.945  0.00  0.00    +0.221 C 
ATOM     21  O   LIG    1       24.511 -27.128   6.851  0.00  0.00    -0.336 OA
BRANCH  19  22
ATOM     22  O   LIG    1       27.275 -27.276   4.884  0.00  0.00    -0.384 OA
ATOM     23  H   LIG    1       26.766 -27.014   4.100  0.00  0.00    +0.210 HD
ENDBRANCH  19  22
BRANCH  20  24
ATOM     24  O   LIG    1       26.038 -28.827   6.547  0.00  0.00    -0.361 OA
ATOM     25  H   LIG    1       26.950 -28.874   6.180  0.00  0.00    +0.213 HD
ENDBRANCH  20  24
BRANCH  17  26
ATOM     26  C   LIG    1       23.866 -27.115   4.515  0.00  0.00    +0.190 C 
BRANCH  26  27
ATOM     27  O   LIG    1       23.648 -28.495   4.827  0.00  0.00    -0.392 OA
ATOM     28  H   LIG    1       24.439 -28.980   4.554  0.00  0.00    +0.209 HD
ENDBRANCH  26  27
ENDBRANCH  17  26
BRANCH  20  29
ATOM     29  C   LIG    1       26.344 -27.288   8.408  0.00  0.00    +0.223 C 
BRANCH  29  30
ATOM     30  O   LIG    1       27.017 -28.487   8.830  0.00  0.00    -0.390 OA
ATOM     31  H   LIG    1       27.968 -28.289   8.742  0.00  0.00    +0.210 HD
ENDBRANCH  29  30
ENDBRANCH  20  29
ENDBRANCH   1  18
TORSDOF 13
ENDMDL
MODEL 8
REMARK VINA RESULT:      -5.4      1.520      5.880
REMARK  Name = *****
REMARK                            x       y       z     vdW  Elec       q    Type
REMARK                         _______ _______ _______ _____ _____    ______ ____
ROOT
ATOM      1  O   LIG    1       27.555 -19.993   6.747  0.00  0.00    -0.340 OA
ENDROOT
BRANCH   1   2
ATOM      2  C   LIG    1       28.918 -20.042   6.274  0.00  0.00    +0.282 C 
ATOM      3  C   LIG    1       29.605 -18.651   6.263  0.00  0.00    +0.201 C 
ATOM      4  C   LIG    1       30.200 -18.217   7.616  0.00  0.00    +0.179 C 
ATOM      5  C   LIG    1       30.267 -19.352   8.637  0.00  0.00    +0.177 C 
ATOM      6  C   LIG    1       30.644 -20.648   7.914  0.00  0.00    +0.178 C 
ATOM      7  O   LIG    1       29.705 -21.055   6.908  0.00  0.00    -0.341 OA
BRANCH   3   8
ATOM      8  O   LIG    1       30.697 -18.673   5.309  0.00  0.00    -0.384 OA
ATOM      9  H   LIG    1       30.383 -19.119   4.500  0.00  0.00    +0.210 HD
ENDBRANCH   3   8
BRANCH   4  10
ATOM     10  O   LIG    1       29.482 -17.115   8.193  0.00  0.00    -0.386 OA
ATOM     11  H   LIG    1       28.539 -17.250   7.971  0.00  0.00    +0.210 HD
ENDBRANCH   4  10
BRANCH   5  12
ATOM     12  O   LIG    1       29.015 -19.475   9.325  0.00  0.00    -0.387 OA
ATOM     13  H   LIG    1       29.163 -20.202   9.960  0.00  0.00    +0.210 HD
ENDBRANCH   5  12
BRANCH   6  14
ATOM     14  C   LIG    1       30.856 -21.815   8.902  0.00  0.00    +0.190 C 
BRANCH  14  15
ATOM     15  O   LIG    1       32.132 -21.732   9.530  0.00  0.00    -0.392 OA
ATOM     16  H   LIG    1       32.605 -22.543   9.302  0.00  0.00    +0.209 HD
ENDBRANCH  14  15
ENDBRANCH   6  14
ENDBRANCH   1   2
BRANCH   1  18
ATOM     17  C   LIG    1       25.328 -20.363   5.724  0.00  0.00    +0.178 C 
ATOM     18  C   LIG    1       26.714 -20.955   6.052  0.00  0.00    +0.186 C 
ATOM     19  C   LIG    1       26.385 -22.101   6.997  0.00  0.00    +0.207 C 
ATOM     20  C   LIG    1       25.011 -21.722   7.583  0.00  0.00    +0.221 C 
ATOM     21  O   LIG    1       24.500 -20.576   6.882  0.00  0.00    -0.336 OA
BRANCH  19  22
ATOM     22  O   LIG    1       26.369 -23.349   6.293  0.00  0.00    -0.384 OA
ATOM     23  H   LIG    1       27.200 -23.797   6.522  0.00  0.00    +0.210 HD
ENDBRANCH  19  22
BRANCH  20  24
ATOM     24  O   LIG    1       24.083 -22.789   7.370  0.00  0.00    -0.361 OA
ATOM     25  H   LIG    1       24.485 -23.301   6.633  0.00  0.00    +0.213 HD
ENDBRANCH  20  24
BRANCH  17  26
ATOM     26  C   LIG    1       24.635 -20.992   4.498  0.00  0.00    +0.190 C 
BRANCH  26  27
ATOM     27  O   LIG    1       23.309 -21.468   4.756  0.00  0.00    -0.392 OA
ATOM     28  H   LIG    1       23.069 -22.059   4.029  0.00  0.00    +0.209 HD
ENDBRANCH  26  27
ENDBRANCH  17  26
BRANCH  20  29
ATOM     29  C   LIG    1       25.088 -21.376   9.078  0.00  0.00    +0.223 C 
BRANCH  29  30
ATOM     30  O   LIG    1       26.155 -20.431   9.277  0.00  0.00    -0.390 OA
ATOM     31  H   LIG    1       26.384 -20.502  10.224  0.00  0.00    +0.210 HD
ENDBRANCH  29  30
ENDBRANCH  20  29
ENDBRANCH   1  18
TORSDOF 13
ENDMDL
MODEL 9
REMARK VINA RESULT:      -5.3      1.596      3.557
REMARK  Name = *****
REMARK                            x       y       z     vdW  Elec       q    Type
REMARK                         _______ _______ _______ _____ _____    ______ ____
ROOT
ATOM      1  O   LIG    1       27.969 -20.511   7.309  0.00  0.00    -0.340 OA
ENDROOT
BRANCH   1   2
ATOM      2  C   LIG    1       27.270 -21.502   6.527  0.00  0.00    +0.282 C 
ATOM      3  C   LIG    1       26.740 -22.683   7.381  0.00  0.00    +0.201 C 
ATOM      4  C   LIG    1       25.387 -22.423   8.069  0.00  0.00    +0.179 C 
ATOM      5  C   LIG    1       24.677 -21.173   7.550  0.00  0.00    +0.177 C 
ATOM      6  C   LIG    1       24.901 -21.066   6.039  0.00  0.00    +0.178 C 
ATOM      7  O   LIG    1       26.279 -20.946   5.657  0.00  0.00    -0.341 OA
BRANCH   3   8
ATOM      8  O   LIG    1       26.562 -23.840   6.525  0.00  0.00    -0.384 OA
ATOM      9  H   LIG    1       26.700 -23.558   5.601  0.00  0.00    +0.210 HD
ENDBRANCH   3   8
BRANCH   4  10
ATOM     10  O   LIG    1       25.517 -22.324   9.497  0.00  0.00    -0.386 OA
ATOM     11  H   LIG    1       25.217 -23.179   9.863  0.00  0.00    +0.210 HD
ENDBRANCH   4  10
BRANCH   5  12
ATOM     12  O   LIG    1       25.154 -20.010   8.240  0.00  0.00    -0.387 OA
ATOM     13  H   LIG    1       24.885 -19.266   7.666  0.00  0.00    +0.210 HD
ENDBRANCH   5  12
BRANCH   6  14
ATOM     14  C   LIG    1       24.106 -19.896   5.423  0.00  0.00    +0.190 C 
BRANCH  14  15
ATOM     15  O   LIG    1       22.802 -19.805   5.990  0.00  0.00    -0.392 OA
ATOM     16  H   LIG    1       22.298 -19.202   5.427  0.00  0.00    +0.209 HD
ENDBRANCH  14  15
ENDBRANCH   6  14
ENDBRANCH   1   2
BRANCH   1  18
ATOM     17  C   LIG    1       29.913 -21.129   8.715  0.00  0.00    +0.178 C 
ATOM     18  C   LIG    1       29.404 -20.748   7.311  0.00  0.00    +0.186 C 
ATOM     19  C   LIG    1       30.125 -19.440   7.025  0.00  0.00    +0.207 C 
ATOM     20  C   LIG    1       30.480 -18.894   8.422  0.00  0.00    +0.221 C 
ATOM     21  O   LIG    1       30.184 -19.896   9.408  0.00  0.00    -0.336 OA
BRANCH  19  22
ATOM     22  O   LIG    1       31.276 -19.664   6.201  0.00  0.00    -0.384 OA
ATOM     23  H   LIG    1       31.456 -20.617   6.245  0.00  0.00    +0.210 HD
ENDBRANCH  19  22
BRANCH  20  24
ATOM     24  O   LIG    1       31.886 -18.637   8.498  0.00  0.00    -0.361 OA
ATOM     25  H   LIG    1       32.229 -19.387   9.035  0.00  0.00    +0.213 HD
ENDBRANCH  20  24
BRANCH  17  26
ATOM     26  C   LIG    1       31.193 -21.991   8.724  0.00  0.00    +0.190 C 
BRANCH  26  27
ATOM     27  O   LIG    1       32.253 -21.458   9.523  0.00  0.00    -0.392 OA
ATOM     28  H   LIG    1       33.079 -21.598   9.037  0.00  0.00    +0.209 HD
ENDBRANCH  26  27
ENDBRANCH  17  26
BRANCH  20  29
ATOM     29  C   LIG    1       29.690 -17.625   8.773  0.00  0.00    +0.223 C 
BRANCH  29  30
ATOM     30  O   LIG    1       30.180 -17.109  10.023  0.00  0.00    -0.390 OA
ATOM     31  H   LIG    1       29.741 -17.647  10.710  0.00  0.00    +0.210 HD
ENDBRANCH  29  30
ENDBRANCH  20  29
ENDBRANCH   1  18
TORSDOF 13
ENDMDL
