MODEL 1
REMARK VINA RESULT:      -8.2      0.000      0.000
REMARK  Name = *****
REMARK                            x       y       z     vdW  Elec       q    Type
REMARK                         _______ _______ _______ _____ _____    ______ ____
ROOT
ATOM      1  N   LIG    1       28.340 -20.601   6.250  0.00  0.00    -0.341 N 
ATOM      2  H   LIG    1       28.901 -21.360   5.880  0.00  0.00    +0.146 HD
ENDROOT
BRANCH   1   3
ATOM      3  C   LIG    1       27.106 -20.977   6.802  0.00  0.00    +0.038 A 
ATOM      4  C   LIG    1       25.863 -20.625   6.177  0.00  0.00    +0.021 A 
ATOM      5  C   LIG    1       24.656 -20.921   6.869  0.00  0.00    +0.074 A 
ATOM      6  C   LIG    1       23.419 -20.629   6.313  0.00  0.00    +0.048 A 
ATOM      7  C   LIG    1       23.329 -20.054   5.054  0.00  0.00    +0.043 A 
ATOM      8  C   LIG    1       24.478 -19.738   4.345  0.00  0.00    +0.021 A 
ATOM      9 CL   LIG    1       21.782 -19.746   4.359  0.00  0.00    -0.084 Cl
ATOM     10  N   LIG    1       24.621 -21.502   8.077  0.00  0.00    -0.255 NA
ATOM     11  C   LIG    1       25.794 -21.833   8.632  0.00  0.00    +0.113 A 
ATOM     12  C   LIG    1       25.739 -20.007   4.905  0.00  0.00    +0.013 A 
ATOM     13  C   LIG    1       27.029 -21.606   8.050  0.00  0.00    +0.043 A 
ENDBRANCH   1   3
BRANCH   1  14
ATOM     14  C   LIG    1       29.102 -19.402   6.635  0.00  0.00    +0.067 C 
ATOM     15  C   LIG    1       29.247 -18.477   5.415  0.00  0.00    +0.027 C 
BRANCH  14  16
ATOM     16  C   LIG    1       30.494 -19.791   7.188  0.00  0.00    +0.023 C 
BRANCH  16  17
ATOM     17  C   LIG    1       31.129 -18.629   7.971  0.00  0.00    +0.017 C 
BRANCH  17  18
ATOM     18  C   LIG    1       31.301 -18.893   9.473  0.00  0.00    +0.084 C 
BRANCH  18  19
ATOM     19  N   LIG    1       31.989 -17.798  10.211  0.00  0.00    -0.303 NA
BRANCH  19  21
ATOM     20  C   LIG    1       33.025 -15.489   9.951  0.00  0.00    +0.020 C 
ATOM     21  C   LIG    1       32.387 -16.712   9.284  0.00  0.00    +0.081 C 
ENDBRANCH  19  21
BRANCH  19  22
ATOM     22  C   LIG    1       31.146 -17.262  11.308  0.00  0.00    +0.081 C 
ATOM     23  C   LIG    1       31.866 -16.989  12.628  0.00  0.00    +0.020 C 
ENDBRANCH  19  22
ENDBRANCH  18  19
ENDBRANCH  17  18
ENDBRANCH  16  17
ENDBRANCH  14  16
ENDBRANCH   1  14
TORSDOF 8
ENDMDL
MODEL 2
REMARK VINA RESULT:      -8.2      3.617      4.578
REMARK  Name = *****
REMARK                            x       y       z     vdW  Elec       q    Type
REMARK                         _______ _______ _______ _____ _____    ______ ____
ROOT
ATOM      1  N   LIG    1       26.392 -22.194   7.054  0.00  0.00    -0.341 N 
ATOM      2  H   LIG    1       27.165 -22.619   7.555  0.00  0.00    +0.146 HD
ENDROOT
BRANCH   1   3
ATOM      3  C   LIG    1       25.227 -22.972   6.971  0.00  0.00    +0.038 A 
ATOM      4  C   LIG    1       25.267 -24.344   6.554  0.00  0.00    +0.021 A 
ATOM      5  C   LIG    1       24.033 -25.024   6.361  0.00  0.00    +0.074 A 
ATOM      6  C   LIG    1       23.998 -26.358   5.980  0.00  0.00    +0.048 A 
ATOM      7  C   LIG    1       25.174 -27.069   5.794  0.00  0.00    +0.043 A 
ATOM      8  C   LIG    1       26.402 -26.447   5.961  0.00  0.00    +0.021 A 
ATOM      9 CL   LIG    1       25.110 -28.739   5.371  0.00  0.00    -0.084 Cl
ATOM     10  N   LIG    1       22.837 -24.445   6.538  0.00  0.00    -0.255 NA
ATOM     11  C   LIG    1       22.827 -23.167   6.942  0.00  0.00    +0.113 A 
ATOM     12  C   LIG    1       26.454 -25.091   6.325  0.00  0.00    +0.013 A 
ATOM     13  C   LIG    1       23.962 -22.410   7.173  0.00  0.00    +0.043 A 
ENDBRANCH   1   3
BRANCH   1  14
ATOM     14  C   LIG    1       26.426 -20.723   7.004  0.00  0.00    +0.067 C 
ATOM     15  C   LIG    1       26.301 -20.261   5.542  0.00  0.00    +0.027 C 
BRANCH  14  16
ATOM     16  C   LIG    1       27.732 -20.183   7.634  0.00  0.00    +0.023 C 
BRANCH  16  17
ATOM     17  C   LIG    1       28.725 -19.721   6.553  0.00  0.00    +0.017 C 
BRANCH  17  18
ATOM     18  C   LIG    1       30.021 -19.108   7.100  0.00  0.00    +0.084 C 
BRANCH  18  19
ATOM     19  N   LIG    1       30.116 -19.107   8.586  0.00  0.00    -0.303 NA
BRANCH  19  21
ATOM     20  C   LIG    1       31.086 -21.430   8.949  0.00  0.00    +0.020 C 
ATOM     21  C   LIG    1       31.275 -19.912   9.037  0.00  0.00    +0.081 C 
ENDBRANCH  19  21
BRANCH  19  22
ATOM     22  C   LIG    1       30.197 -17.729   9.129  0.00  0.00    +0.081 C 
ATOM     23  C   LIG    1       30.345 -17.618  10.645  0.00  0.00    +0.020 C 
ENDBRANCH  19  22
ENDBRANCH  18  19
ENDBRANCH  17  18
ENDBRANCH  16  17
ENDBRANCH  14  16
ENDBRANCH   1  14
TORSDOF 8
ENDMDL
MODEL 3
REMARK VINA RESULT:      -8.1      3.107      4.065
REMARK  Name = *****
REMARK                            x       y       z     vdW  Elec       q    Type
REMARK                         _______ _______ _______ _____ _____    ______ ____
ROOT
ATOM      1  N   LIG    1       26.604 -21.566   7.368  0.00  0.00    -0.341 N 
ATOM      2  H   LIG    1       27.080 -21.701   8.253  0.00  0.00    +0.146 HD
ENDROOT
BRANCH   1   3
ATOM      3  C   LIG    1       25.335 -22.156   7.271  0.00  0.00    +0.038 A 
ATOM      4  C   LIG    1       25.169 -23.523   6.866  0.00  0.00    +0.021 A 
ATOM      5  C   LIG    1       23.848 -24.007   6.657  0.00  0.00    +0.074 A 
ATOM      6  C   LIG    1       23.615 -25.323   6.287  0.00  0.00    +0.048 A 
ATOM      7  C   LIG    1       24.670 -26.209   6.127  0.00  0.00    +0.043 A 
ATOM      8  C   LIG    1       25.976 -25.781   6.310  0.00  0.00    +0.021 A 
ATOM      9 CL   LIG    1       24.356 -27.853   5.717  0.00  0.00    -0.084 Cl
ATOM     10  N   LIG    1       22.752 -23.249   6.809  0.00  0.00    -0.255 NA
ATOM     11  C   LIG    1       22.933 -21.981   7.202  0.00  0.00    +0.113 A 
ATOM     12  C   LIG    1       26.230 -24.446   6.664  0.00  0.00    +0.013 A 
ATOM     13  C   LIG    1       24.167 -21.405   7.446  0.00  0.00    +0.043 A 
ENDBRANCH   1   3
BRANCH   1  14
ATOM     14  C   LIG    1       27.042 -20.385   6.606  0.00  0.00    +0.067 C 
ATOM     15  C   LIG    1       26.250 -20.304   5.290  0.00  0.00    +0.027 C 
BRANCH  14  16
ATOM     16  C   LIG    1       28.561 -20.449   6.321  0.00  0.00    +0.023 C 
BRANCH  16  17
ATOM     17  C   LIG    1       29.316 -19.330   7.059  0.00  0.00    +0.017 C 
BRANCH  17  18
ATOM     18  C   LIG    1       30.829 -19.307   6.804  0.00  0.00    +0.084 C 
BRANCH  18  19
ATOM     19  N   LIG    1       31.658 -19.434   8.034  0.00  0.00    -0.303 NA
BRANCH  19  21
ATOM     20  C   LIG    1       30.943 -17.603   9.648  0.00  0.00    +0.020 C 
ATOM     21  C   LIG    1       31.952 -18.100   8.607  0.00  0.00    +0.081 C 
ENDBRANCH  19  21
BRANCH  19  22
ATOM     22  C   LIG    1       31.009 -20.304   9.045  0.00  0.00    +0.081 C 
ATOM     23  C   LIG    1       31.398 -21.781   9.002  0.00  0.00    +0.020 C 
ENDBRANCH  19  22
ENDBRANCH  18  19
ENDBRANCH  17  18
ENDBRANCH  16  17
ENDBRANCH  14  16
ENDBRANCH   1  14
TORSDOF 8
ENDMDL
MODEL 4
REMARK VINA RESULT:      -8.0      1.768      2.847
REMARK  Name = *****
REMARK                            x       y       z     vdW  Elec       q    Type
REMARK                         _______ _______ _______ _____ _____    ______ ____
ROOT
ATOM      1  N   LIG    1       26.748 -22.400   6.352  0.00  0.00    -0.341 N 
ATOM      2  H   LIG    1       27.295 -23.198   6.048  0.00  0.00    +0.146 HD
ENDROOT
BRANCH   1   3
ATOM      3  C   LIG    1       25.356 -22.561   6.277  0.00  0.00    +0.038 A 
ATOM      4  C   LIG    1       24.509 -21.545   5.720  0.00  0.00    +0.021 A 
ATOM      5  C   LIG    1       23.101 -21.722   5.805  0.00  0.00    +0.074 A 
ATOM      6  C   LIG    1       22.225 -20.791   5.268  0.00  0.00    +0.048 A 
ATOM      7  C   LIG    1       22.705 -19.666   4.615  0.00  0.00    +0.043 A 
ATOM      8  C   LIG    1       24.070 -19.444   4.514  0.00  0.00    +0.021 A 
ATOM      9 CL   LIG    1       21.601 -18.546   3.908  0.00  0.00    -0.084 Cl
ATOM     10  N   LIG    1       22.525 -22.783   6.389  0.00  0.00    -0.255 NA
ATOM     11  C   LIG    1       23.337 -23.725   6.888  0.00  0.00    +0.113 A 
ATOM     12  C   LIG    1       24.969 -20.367   5.072  0.00  0.00    +0.013 A 
ATOM     13  C   LIG    1       24.719 -23.667   6.852  0.00  0.00    +0.043 A 
ENDBRANCH   1   3
BRANCH   1  14
ATOM     14  C   LIG    1       27.440 -21.497   7.286  0.00  0.00    +0.067 C 
ATOM     15  C   LIG    1       26.439 -20.984   8.335  0.00  0.00    +0.027 C 
BRANCH  14  16
ATOM     16  C   LIG    1       28.084 -20.313   6.527  0.00  0.00    +0.023 C 
BRANCH  16  17
ATOM     17  C   LIG    1       29.094 -19.563   7.414  0.00  0.00    +0.017 C 
BRANCH  17  18
ATOM     18  C   LIG    1       30.541 -19.606   6.907  0.00  0.00    +0.084 C 
BRANCH  18  19
ATOM     19  N   LIG    1       31.568 -19.565   7.984  0.00  0.00    -0.303 NA
BRANCH  19  21
ATOM     20  C   LIG    1       31.641 -17.893   9.899  0.00  0.00    +0.020 C 
ATOM     21  C   LIG    1       31.831 -18.169   8.404  0.00  0.00    +0.081 C 
ENDBRANCH  19  21
BRANCH  19  22
ATOM     22  C   LIG    1       31.173 -20.394   9.149  0.00  0.00    +0.081 C 
ATOM     23  C   LIG    1       31.352 -21.902   8.986  0.00  0.00    +0.020 C 
ENDBRANCH  19  22
ENDBRANCH  18  19
ENDBRANCH  17  18
ENDBRANCH  16  17
ENDBRANCH  14  16
ENDBRANCH   1  14
TORSDOF 8
ENDMDL
MODEL 5
REMARK VINA RESULT:      -7.9      3.270      8.157
REMARK  Name = *****
REMARK                            x       y       z     vdW  Elec       q    Type
REMARK                         _______ _______ _______ _____ _____    ______ ____
ROOT
ATOM      1  N   LIG    1       28.076 -20.169   7.725  0.00  0.00    -0.341 N 
ATOM      2  H   LIG    1       27.298 -20.294   8.363  0.00  0.00    +0.146 HD
ENDROOT
BRANCH   1   3
ATOM      3  C   LIG    1       29.351 -20.290   8.299  0.00  0.00    +0.038 A 
ATOM      4  C   LIG    1       30.127 -19.137   8.657  0.00  0.00    +0.021 A 
ATOM      5  C   LIG    1       31.463 -19.338   9.103  0.00  0.00    +0.074 A 
ATOM      6  C   LIG    1       32.261 -18.270   9.486  0.00  0.00    +0.048 A 
ATOM      7  C   LIG    1       31.768 -16.975   9.459  0.00  0.00    +0.043 A 
ATOM      8  C   LIG    1       30.475 -16.727   9.022  0.00  0.00    +0.021 A 
ATOM      9 CL   LIG    1       32.759 -15.667   9.988  0.00  0.00    -0.084 Cl
ATOM     10  N   LIG    1       32.035 -20.547   9.196  0.00  0.00    -0.255 NA
ATOM     11  C   LIG    1       31.285 -21.608   8.870  0.00  0.00    +0.113 A 
ATOM     12  C   LIG    1       29.662 -17.796   8.610  0.00  0.00    +0.013 A 
ATOM     13  C   LIG    1       29.972 -21.536   8.436  0.00  0.00    +0.043 A 
ENDBRANCH   1   3
BRANCH   1  14
ATOM     14  C   LIG    1       27.763 -20.434   6.311  0.00  0.00    +0.067 C 
ATOM     15  C   LIG    1       28.405 -19.345   5.435  0.00  0.00    +0.027 C 
BRANCH  14  16
ATOM     16  C   LIG    1       26.233 -20.477   6.088  0.00  0.00    +0.023 C 
BRANCH  16  17
ATOM     17  C   LIG    1       25.485 -20.790   7.396  0.00  0.00    +0.017 C 
BRANCH  17  18
ATOM     18  C   LIG    1       23.958 -20.848   7.257  0.00  0.00    +0.084 C 
BRANCH  18  19
ATOM     19  N   LIG    1       23.475 -21.780   6.201  0.00  0.00    -0.303 NA
BRANCH  19  21
ATOM     20  C   LIG    1       23.702 -24.284   6.588  0.00  0.00    +0.020 C 
ATOM     21  C   LIG    1       22.893 -23.001   6.806  0.00  0.00    +0.081 C 
ENDBRANCH  19  21
BRANCH  19  22
ATOM     22  C   LIG    1       22.494 -21.127   5.300  0.00  0.00    +0.081 C 
ATOM     23  C   LIG    1       22.624 -19.611   5.160  0.00  0.00    +0.020 C 
ENDBRANCH  19  22
ENDBRANCH  18  19
ENDBRANCH  17  18
ENDBRANCH  16  17
ENDBRANCH  14  16
ENDBRANCH   1  14
TORSDOF 8
ENDMDL
MODEL 6
REMARK VINA RESULT:      -7.6      1.256      1.900
REMARK  Name = *****
REMARK                            x       y       z     vdW  Elec       q    Type
REMARK                         _______ _______ _______ _____ _____    ______ ____
ROOT
ATOM      1  N   LIG    1       28.121 -20.231   5.832  0.00  0.00    -0.341 N 
ATOM      2  H   LIG    1       28.672 -20.996   5.458  0.00  0.00    +0.146 HD
ENDROOT
BRANCH   1   3
ATOM      3  C   LIG    1       27.015 -20.609   6.608  0.00  0.00    +0.038 A 
ATOM      4  C   LIG    1       25.684 -20.610   6.071  0.00  0.00    +0.021 A 
ATOM      5  C   LIG    1       24.602 -20.870   6.957  0.00  0.00    +0.074 A 
ATOM      6  C   LIG    1       23.293 -20.909   6.500  0.00  0.00    +0.048 A 
ATOM      7  C   LIG    1       23.007 -20.712   5.158  0.00  0.00    +0.043 A 
ATOM      8  C   LIG    1       24.028 -20.446   4.257  0.00  0.00    +0.021 A 
ATOM      9 CL   LIG    1       21.379 -20.815   4.602  0.00  0.00    -0.084 Cl
ATOM     10  N   LIG    1       24.762 -21.103   8.267  0.00  0.00    -0.255 NA
ATOM     11  C   LIG    1       26.015 -21.110   8.741  0.00  0.00    +0.113 A 
ATOM     12  C   LIG    1       25.357 -20.381   4.708  0.00  0.00    +0.013 A 
ATOM     13  C   LIG    1       27.144 -20.883   7.974  0.00  0.00    +0.043 A 
ENDBRANCH   1   3
BRANCH   1  14
ATOM     14  C   LIG    1       28.847 -18.958   5.967  0.00  0.00    +0.067 C 
ATOM     15  C   LIG    1       28.500 -18.045   4.778  0.00  0.00    +0.027 C 
BRANCH  14  16
ATOM     16  C   LIG    1       30.374 -19.201   6.035  0.00  0.00    +0.023 C 
BRANCH  16  17
ATOM     17  C   LIG    1       30.986 -18.561   7.293  0.00  0.00    +0.017 C 
BRANCH  17  18
ATOM     18  C   LIG    1       30.036 -18.489   8.497  0.00  0.00    +0.084 C 
BRANCH  18  19
ATOM     19  N   LIG    1       30.516 -19.228   9.698  0.00  0.00    -0.303 NA
BRANCH  19  21
ATOM     20  C   LIG    1       30.995 -21.671   9.177  0.00  0.00    +0.020 C 
ATOM     21  C   LIG    1       31.528 -20.241   9.319  0.00  0.00    +0.081 C 
ENDBRANCH  19  21
BRANCH  19  22
ATOM     22  C   LIG    1       31.060 -18.308  10.726  0.00  0.00    +0.081 C 
ATOM     23  C   LIG    1       30.602 -16.854  10.628  0.00  0.00    +0.020 C 
ENDBRANCH  19  22
ENDBRANCH  18  19
ENDBRANCH  17  18
ENDBRANCH  16  17
ENDBRANCH  14  16
ENDBRANCH   1  14
TORSDOF 8
ENDMDL
MODEL 7
REMARK VINA RESULT:      -7.4      3.407      8.452
REMARK  Name = *****
REMARK                            x       y       z     vdW  Elec       q    Type
REMARK                         _______ _______ _______ _____ _____    ______ ____
ROOT
ATOM      1  N   LIG    1       28.101 -19.452   8.391  0.00  0.00    -0.341 N 
ATOM      2  H   LIG    1       27.738 -19.108   9.274  0.00  0.00    +0.146 HD
ENDROOT
BRANCH   1   3
ATOM      3  C   LIG    1       29.469 -19.227   8.176  0.00  0.00    +0.038 A 
ATOM      4  C   LIG    1       30.232 -18.354   9.022  0.00  0.00    +0.021 A 
ATOM      5  C   LIG    1       31.576 -18.068   8.657  0.00  0.00    +0.074 A 
ATOM      6  C   LIG    1       32.376 -17.251   9.443  0.00  0.00    +0.048 A 
ATOM      7  C   LIG    1       31.887 -16.704  10.619  0.00  0.00    +0.043 A 
ATOM      8  C   LIG    1       30.579 -16.946  11.012  0.00  0.00    +0.021 A 
ATOM      9 CL   LIG    1       32.913 -15.734  11.607  0.00  0.00    -0.084 Cl
ATOM     10  N   LIG    1       32.163 -18.564   7.558  0.00  0.00    -0.255 NA
ATOM     11  C   LIG    1       31.435 -19.387   6.792  0.00  0.00    +0.113 A 
ATOM     12  C   LIG    1       29.749 -17.753  10.216  0.00  0.00    +0.013 A 
ATOM     13  C   LIG    1       30.124 -19.746   7.053  0.00  0.00    +0.043 A 
ENDBRANCH   1   3
BRANCH   1  14
ATOM     14  C   LIG    1       27.324 -20.547   7.789  0.00  0.00    +0.067 C 
ATOM     15  C   LIG    1       27.079 -20.241   6.302  0.00  0.00    +0.027 C 
BRANCH  14  16
ATOM     16  C   LIG    1       25.981 -20.739   8.532  0.00  0.00    +0.023 C 
BRANCH  16  17
ATOM     17  C   LIG    1       25.286 -22.043   8.103  0.00  0.00    +0.017 C 
BRANCH  17  18
ATOM     18  C   LIG    1       23.845 -21.862   7.607  0.00  0.00    +0.084 C 
BRANCH  18  19
ATOM     19  N   LIG    1       23.601 -22.383   6.234  0.00  0.00    -0.303 NA
BRANCH  19  21
ATOM     20  C   LIG    1       22.741 -20.137   5.404  0.00  0.00    +0.020 C 
ATOM     21  C   LIG    1       23.727 -21.298   5.232  0.00  0.00    +0.081 C 
ENDBRANCH  19  21
BRANCH  19  22
ATOM     22  C   LIG    1       24.514 -23.505   5.903  0.00  0.00    +0.081 C 
ATOM     23  C   LIG    1       24.048 -24.893   6.337  0.00  0.00    +0.020 C 
ENDBRANCH  19  22
ENDBRANCH  18  19
ENDBRANCH  17  18
ENDBRANCH  16  17
ENDBRANCH  14  16
ENDBRANCH   1  14
TORSDOF 8
ENDMDL
MODEL 8
REMARK VINA RESULT:      -7.4      4.583      8.695
REMARK  Name = *****
REMARK                            x       y       z     vdW  Elec       q    Type
REMARK                         _______ _______ _______ _____ _____    ______ ____
ROOT
ATOM      1  N   LIG    1       24.864 -22.768   6.785  0.00  0.00    -0.341 N 
ATOM      2  H   LIG    1       25.393 -23.120   7.576  0.00  0.00    +0.146 HD
ENDROOT
BRANCH   1   3
ATOM      3  C   LIG    1       25.490 -21.752   6.047  0.00  0.00    +0.038 A 
ATOM      4  C   LIG    1       26.775 -21.233   6.419  0.00  0.00    +0.021 A 
ATOM      5  C   LIG    1       27.280 -20.111   5.706  0.00  0.00    +0.074 A 
ATOM      6  C   LIG    1       28.525 -19.574   5.998  0.00  0.00    +0.048 A 
ATOM      7  C   LIG    1       29.320 -20.132   6.988  0.00  0.00    +0.043 A 
ATOM      8  C   LIG    1       28.867 -21.221   7.718  0.00  0.00    +0.021 A 
ATOM      9 CL   LIG    1       30.885 -19.481   7.301  0.00  0.00    -0.084 Cl
ATOM     10  N   LIG    1       26.612 -19.508   4.712  0.00  0.00    -0.255 NA
ATOM     11  C   LIG    1       25.420 -20.020   4.374  0.00  0.00    +0.113 A 
ATOM     12  C   LIG    1       27.599 -21.763   7.448  0.00  0.00    +0.013 A 
ATOM     13  C   LIG    1       24.835 -21.114   4.987  0.00  0.00    +0.043 A 
ENDBRANCH   1   3
BRANCH   1  14
ATOM     14  C   LIG    1       23.865 -23.705   6.247  0.00  0.00    +0.067 C 
ATOM     15  C   LIG    1       22.485 -23.375   6.841  0.00  0.00    +0.027 C 
BRANCH  14  16
ATOM     16  C   LIG    1       24.256 -25.167   6.565  0.00  0.00    +0.023 C 
BRANCH  16  17
ATOM     17  C   LIG    1       25.770 -25.389   6.401  0.00  0.00    +0.017 C 
BRANCH  17  18
ATOM     18  C   LIG    1       26.219 -26.849   6.552  0.00  0.00    +0.084 C 
BRANCH  18  19
ATOM     19  N   LIG    1       25.101 -27.816   6.737  0.00  0.00    -0.303 NA
BRANCH  19  21
ATOM     20  C   LIG    1       25.308 -29.937   5.348  0.00  0.00    +0.020 C 
ATOM     21  C   LIG    1       24.785 -28.501   5.462  0.00  0.00    +0.081 C 
ENDBRANCH  19  21
BRANCH  19  22
ATOM     22  C   LIG    1       25.403 -28.806   7.799  0.00  0.00    +0.081 C 
ATOM     23  C   LIG    1       26.337 -28.328   8.910  0.00  0.00    +0.020 C 
ENDBRANCH  19  22
ENDBRANCH  18  19
ENDBRANCH  17  18
ENDBRANCH  16  17
ENDBRANCH  14  16
ENDBRANCH   1  14
TORSDOF 8
ENDMDL
MODEL 9
REMARK VINA RESULT:      -7.3      2.405      3.374
REMARK  Name = *****
REMARK                            x       y       z     vdW  Elec       q    Type
REMARK                         _______ _______ _______ _____ _____    ______ ____
ROOT
ATOM      1  N   LIG    1       27.294 -20.235   7.021  0.00  0.00    -0.341 N 
ATOM      2  H   LIG    1       27.052 -19.420   7.573  0.00  0.00    +0.146 HD
ENDROOT
BRANCH   1   3
ATOM      3  C   LIG    1       26.284 -20.706   6.168  0.00  0.00    +0.038 A 
ATOM      4  C   LIG    1       25.827 -22.065   6.222  0.00  0.00    +0.021 A 
ATOM      5  C   LIG    1       24.902 -22.503   5.234  0.00  0.00    +0.074 A 
ATOM      6  C   LIG    1       24.401 -23.796   5.241  0.00  0.00    +0.048 A 
ATOM      7  C   LIG    1       24.780 -24.695   6.227  0.00  0.00    +0.043 A 
ATOM      8  C   LIG    1       25.686 -24.318   7.206  0.00  0.00    +0.021 A 
ATOM      9 CL   LIG    1       24.107 -26.281   6.247  0.00  0.00    -0.084 Cl
ATOM     10  N   LIG    1       24.445 -21.714   4.251  0.00  0.00    -0.255 NA
ATOM     11  C   LIG    1       24.876 -20.445   4.231  0.00  0.00    +0.113 A 
ATOM     12  C   LIG    1       26.219 -23.018   7.200  0.00  0.00    +0.013 A 
ATOM     13  C   LIG    1       25.764 -19.906   5.145  0.00  0.00    +0.043 A 
ENDBRANCH   1   3
BRANCH   1  14
ATOM     14  C   LIG    1       28.737 -20.423   6.799  0.00  0.00    +0.067 C 
ATOM     15  C   LIG    1       29.260 -21.516   7.747  0.00  0.00    +0.027 C 
BRANCH  14  16
ATOM     16  C   LIG    1       29.504 -19.099   7.024  0.00  0.00    +0.023 C 
BRANCH  16  17
ATOM     17  C   LIG    1       30.319 -19.138   8.327  0.00  0.00    +0.017 C 
BRANCH  17  18
ATOM     18  C   LIG    1       31.612 -18.311   8.295  0.00  0.00    +0.084 C 
BRANCH  18  19
ATOM     19  N   LIG    1       31.511 -16.994   8.981  0.00  0.00    -0.303 NA
BRANCH  19  21
ATOM     20  C   LIG    1       30.667 -17.498  11.327  0.00  0.00    +0.020 C 
ATOM     21  C   LIG    1       30.364 -16.978   9.918  0.00  0.00    +0.081 C 
ENDBRANCH  19  21
BRANCH  19  22
ATOM     22  C   LIG    1       32.767 -16.648   9.691  0.00  0.00    +0.081 C 
ATOM     23  C   LIG    1       33.023 -15.157   9.903  0.00  0.00    +0.020 C 
ENDBRANCH  19  22
ENDBRANCH  18  19
ENDBRANCH  17  18
ENDBRANCH  16  17
ENDBRANCH  14  16
ENDBRANCH   1  14
TORSDOF 8
ENDMDL
