MODEL 1
REMARK VINA RESULT:      -4.2      0.000      0.000
REMARK  Name = *****
REMARK                            x       y       z     vdW  Elec       q    Type
REMARK                         _______ _______ _______ _____ _____    ______ ____
ROOT
ATOM      1  C   LIG    1       28.385 -18.069   4.873  0.00  0.00    +0.171 C 
ATOM      2  O   LIG    1       29.475 -17.805   5.366  0.00  0.00    -0.292 OA
ENDROOT
BRANCH   1   3
ATOM      3  C   LIG    1       27.522 -16.958   4.361  0.00  0.00    +0.018 A 
ATOM      4  C   LIG    1       27.923 -15.645   4.629  0.00  0.00    +0.012 A 
ATOM      5  C   LIG    1       27.106 -14.565   4.274  0.00  0.00    +0.005 A 
ATOM      6  C   LIG    1       25.874 -14.763   3.635  0.00  0.00    -0.042 A 
ATOM      7  C   LIG    1       25.522 -16.090   3.313  0.00  0.00    +0.005 A 
ATOM      8  C   LIG    1       26.336 -17.176   3.667  0.00  0.00    +0.012 A 
BRANCH   6   9
ATOM      9  C   LIG    1       24.912 -13.603   3.314  0.00  0.00    -0.013 C 
ATOM     10  C   LIG    1       25.219 -12.899   1.972  0.00  0.00    +0.015 C 
ATOM     11  C   LIG    1       25.007 -12.529   4.421  0.00  0.00    +0.015 C 
ATOM     12  C   LIG    1       23.462 -14.123   3.243  0.00  0.00    +0.015 C 
ENDBRANCH   6   9
ENDBRANCH   1   3
BRANCH   1  13
ATOM     13  C   LIG    1       27.905 -19.500   4.795  0.00  0.00    +0.159 C 
BRANCH  13  14
ATOM     14  C   LIG    1       27.111 -20.058   5.958  0.00  0.00    +0.171 C 
ATOM     15  O   LIG    1       27.625 -20.164   7.062  0.00  0.00    -0.292 OA
BRANCH  14  19
ATOM     16  C   LIG    1       22.980 -21.112   5.380  0.00  0.00    +0.120 A 
ATOM     17  C   LIG    1       23.798 -20.763   4.305  0.00  0.00    +0.046 A 
ATOM     18  C   LIG    1       25.140 -20.439   4.508  0.00  0.00    +0.015 A 
ATOM     19  C   LIG    1       25.680 -20.450   5.798  0.00  0.00    +0.018 A 
ATOM     20  C   LIG    1       24.879 -20.842   6.870  0.00  0.00    +0.015 A 
ATOM     21  C   LIG    1       23.530 -21.160   6.663  0.00  0.00    +0.046 A 
BRANCH  16  23
ATOM     22  C   LIG    1       20.949 -20.722   4.243  0.00  0.00    +0.277 C 
ATOM     23  O   LIG    1       21.648 -21.420   5.274  0.00  0.00    -0.495 OA
ENDBRANCH  16  23
ENDBRANCH  14  19
ENDBRANCH  13  14
ENDBRANCH   1  13
TORSDOF 6
ENDMDL
MODEL 2
REMARK VINA RESULT:      -3.5      1.969      2.957
REMARK  Name = *****
REMARK                            x       y       z     vdW  Elec       q    Type
REMARK                         _______ _______ _______ _____ _____    ______ ____
ROOT
ATOM      1  C   LIG    1       25.649 -19.451   3.777  0.00  0.00    +0.171 C 
ATOM      2  O   LIG    1       25.352 -20.076   2.766  0.00  0.00    -0.292 OA
ENDROOT
BRANCH   1   3
ATOM      3  C   LIG    1       25.988 -17.996   3.667  0.00  0.00    +0.018 A 
ATOM      4  C   LIG    1       27.290 -17.605   3.994  0.00  0.00    +0.012 A 
ATOM      5  C   LIG    1       27.641 -16.249   4.017  0.00  0.00    +0.005 A 
ATOM      6  C   LIG    1       26.707 -15.250   3.704  0.00  0.00    -0.042 A 
ATOM      7  C   LIG    1       25.421 -15.672   3.311  0.00  0.00    +0.005 A 
ATOM      8  C   LIG    1       25.064 -17.028   3.288  0.00  0.00    +0.012 A 
BRANCH   6   9
ATOM      9  C   LIG    1       27.036 -13.749   3.809  0.00  0.00    -0.013 C 
ATOM     10  C   LIG    1       28.543 -13.435   3.665  0.00  0.00    +0.015 C 
ATOM     11  C   LIG    1       26.593 -13.214   5.190  0.00  0.00    +0.015 C 
ATOM     12  C   LIG    1       26.294 -12.967   2.706  0.00  0.00    +0.015 C 
ENDBRANCH   6   9
ENDBRANCH   1   3
BRANCH   1  13
ATOM     13  C   LIG    1       25.691 -20.140   5.121  0.00  0.00    +0.159 C 
BRANCH  13  14
ATOM     14  C   LIG    1       24.383 -20.408   5.835  0.00  0.00    +0.171 C 
ATOM     15  O   LIG    1       24.381 -20.869   6.967  0.00  0.00    -0.292 OA
BRANCH  14  19
ATOM     16  C   LIG    1       20.600 -19.594   3.953  0.00  0.00    +0.120 A 
ATOM     17  C   LIG    1       20.944 -20.881   4.367  0.00  0.00    +0.046 A 
ATOM     18  C   LIG    1       22.168 -21.125   4.990  0.00  0.00    +0.015 A 
ATOM     19  C   LIG    1       23.073 -20.079   5.198  0.00  0.00    +0.018 A 
ATOM     20  C   LIG    1       22.716 -18.783   4.827  0.00  0.00    +0.015 A 
ATOM     21  C   LIG    1       21.488 -18.544   4.196  0.00  0.00    +0.046 A 
BRANCH  16  23
ATOM     22  C   LIG    1       19.445 -18.015   2.634  0.00  0.00    +0.277 C 
ATOM     23  O   LIG    1       19.432 -19.270   3.313  0.00  0.00    -0.495 OA
ENDBRANCH  16  23
ENDBRANCH  14  19
ENDBRANCH  13  14
ENDBRANCH   1  13
TORSDOF 6
ENDMDL
MODEL 3
REMARK VINA RESULT:      -1.7      1.634      4.435
REMARK  Name = *****
REMARK                            x       y       z     vdW  Elec       q    Type
REMARK                         _______ _______ _______ _____ _____    ______ ____
ROOT
ATOM      1  C   LIG    1       22.591 -18.276   4.105  0.00  0.00    +0.171 C 
ATOM      2  O   LIG    1       21.409 -18.046   4.333  0.00  0.00    -0.292 OA
ENDROOT
BRANCH   1   3
ATOM      3  C   LIG    1       23.560 -17.138   4.032  0.00  0.00    +0.018 A 
ATOM      4  C   LIG    1       23.091 -15.861   4.357  0.00  0.00    +0.012 A 
ATOM      5  C   LIG    1       23.916 -14.739   4.205  0.00  0.00    +0.005 A 
ATOM      6  C   LIG    1       25.232 -14.862   3.735  0.00  0.00    -0.042 A 
ATOM      7  C   LIG    1       25.705 -16.165   3.480  0.00  0.00    +0.005 A 
ATOM      8  C   LIG    1       24.883 -17.291   3.629  0.00  0.00    +0.012 A 
BRANCH   6   9
ATOM      9  C   LIG    1       26.132 -13.640   3.470  0.00  0.00    -0.013 C 
ATOM     10  C   LIG    1       26.661 -12.972   4.760  0.00  0.00    +0.015 C 
ATOM     11  C   LIG    1       25.335 -12.565   2.698  0.00  0.00    +0.015 C 
ATOM     12  C   LIG    1       27.355 -14.058   2.630  0.00  0.00    +0.015 C 
ENDBRANCH   6   9
ENDBRANCH   1   3
BRANCH   1  13
ATOM     13  C   LIG    1       23.066 -19.693   3.879  0.00  0.00    +0.159 C 
BRANCH  13  14
ATOM     14  C   LIG    1       23.490 -20.511   5.081  0.00  0.00    +0.171 C 
ATOM     15  O   LIG    1       22.665 -21.161   5.707  0.00  0.00    -0.292 OA
BRANCH  14  19
ATOM     16  C   LIG    1       27.568 -20.739   6.433  0.00  0.00    +0.120 A 
ATOM     17  C   LIG    1       26.553 -21.460   7.062  0.00  0.00    +0.046 A 
ATOM     18  C   LIG    1       25.238 -21.387   6.601  0.00  0.00    +0.015 A 
ATOM     19  C   LIG    1       24.920 -20.578   5.505  0.00  0.00    +0.018 A 
ATOM     20  C   LIG    1       25.938 -19.891   4.845  0.00  0.00    +0.015 A 
ATOM     21  C   LIG    1       27.256 -19.962   5.315  0.00  0.00    +0.046 A 
BRANCH  16  23
ATOM     22  C   LIG    1       29.456 -19.437   6.990  0.00  0.00    +0.277 C 
ATOM     23  O   LIG    1       28.879 -20.734   6.834  0.00  0.00    -0.495 OA
ENDBRANCH  16  23
ENDBRANCH  14  19
ENDBRANCH  13  14
ENDBRANCH   1  13
TORSDOF 6
ENDMDL
