MODEL 1
REMARK VINA RESULT:      -6.4      0.000      0.000
REMARK  Name = *****
REMARK                            x       y       z     vdW  Elec       q    Type
REMARK                         _______ _______ _______ _____ _____    ______ ____
ROOT
ATOM      1  C   LIG    1       28.320 -19.945   6.430  0.00  0.00    +0.132 C 
ENDROOT
BRANCH   1   2
ATOM      2  C   LIG    1       29.612 -19.173   6.456  0.00  0.00    +0.308 C 
ATOM      3  O   LIG    1       29.825 -18.164   5.809  0.00  0.00    -0.251 OA
BRANCH   2   4
ATOM      4  O   LIG    1       30.542 -19.771   7.259  0.00  0.00    -0.459 OA
BRANCH   4   5
ATOM      5  C   LIG    1       31.577 -18.895   7.764  0.00  0.00    +0.282 C 
BRANCH   5   6
ATOM      6  C   LIG    1       31.563 -18.840   9.302  0.00  0.00    +0.174 C 
BRANCH   6   8
ATOM      7  C   LIG    1       31.394 -17.524  11.452  0.00  0.00    +0.192 C 
ATOM      8  N   LIG    1       31.442 -17.445   9.930  0.00  0.00    +0.239 N 
ATOM      9  C   LIG    1       32.568 -16.519   9.501  0.00  0.00    +0.192 C 
ATOM     10  C   LIG    1       30.113 -16.851   9.437  0.00  0.00    +0.192 C 
ENDBRANCH   6   8
ENDBRANCH   5   6
ENDBRANCH   4   5
ENDBRANCH   2   4
ENDBRANCH   1   2
BRANCH   1  11
ATOM     11  C   LIG    1       27.986 -20.485   7.824  0.00  0.00    +0.132 C 
BRANCH  11  12
ATOM     12  C   LIG    1       26.506 -20.507   8.123  0.00  0.00    +0.308 C 
ATOM     13  O   LIG    1       26.005 -20.552   9.222  0.00  0.00    -0.251 OA
BRANCH  12  14
ATOM     14  O   LIG    1       25.818 -20.398   6.980  0.00  0.00    -0.459 OA
BRANCH  14  15
ATOM     15  C   LIG    1       24.679 -21.270   6.786  0.00  0.00    +0.282 C 
BRANCH  15  16
ATOM     16  C   LIG    1       24.783 -22.312   5.642  0.00  0.00    +0.174 C 
BRANCH  16  17
ATOM     17  N   LIG    1       24.741 -23.803   6.088  0.00  0.00    +0.239 N 
ATOM     18  C   LIG    1       25.808 -24.039   7.172  0.00  0.00    +0.192 C 
ATOM     19  C   LIG    1       25.059 -24.749   4.936  0.00  0.00    +0.192 C 
ATOM     20  C   LIG    1       23.390 -24.154   6.684  0.00  0.00    +0.192 C 
ENDBRANCH  16  17
ENDBRANCH  15  16
ENDBRANCH  14  15
ENDBRANCH  12  14
ENDBRANCH  11  12
ENDBRANCH   1  11
TORSDOF 11
ENDMDL
MODEL 2
REMARK VINA RESULT:      -6.2      2.202      8.299
REMARK  Name = *****
REMARK                            x       y       z     vdW  Elec       q    Type
REMARK                         _______ _______ _______ _____ _____    ______ ____
ROOT
ATOM      1  C   LIG    1       25.142 -22.068   6.538  0.00  0.00    +0.132 C 
ENDROOT
BRANCH   1   2
ATOM      2  C   LIG    1       23.820 -22.477   7.131  0.00  0.00    +0.308 C 
ATOM      3  O   LIG    1       23.071 -21.725   7.729  0.00  0.00    -0.251 OA
BRANCH   2   4
ATOM      4  O   LIG    1       23.580 -23.811   6.962  0.00  0.00    -0.459 OA
BRANCH   4   5
ATOM      5  C   LIG    1       24.608 -24.538   6.249  0.00  0.00    +0.282 C 
BRANCH   5   6
ATOM      6  C   LIG    1       24.092 -25.904   5.762  0.00  0.00    +0.174 C 
BRANCH   6   8
ATOM      7  C   LIG    1       25.920 -26.976   7.137  0.00  0.00    +0.192 C 
ATOM      8  N   LIG    1       25.075 -27.078   5.871  0.00  0.00    +0.239 N 
ATOM      9  C   LIG    1       24.373 -28.425   5.832  0.00  0.00    +0.192 C 
ATOM     10  C   LIG    1       26.013 -26.985   4.658  0.00  0.00    +0.192 C 
ENDBRANCH   6   8
ENDBRANCH   5   6
ENDBRANCH   4   5
ENDBRANCH   2   4
ENDBRANCH   1   2
BRANCH   1  11
ATOM     11  C   LIG    1       25.601 -20.726   7.116  0.00  0.00    +0.132 C 
BRANCH  11  12
ATOM     12  C   LIG    1       26.317 -20.854   8.440  0.00  0.00    +0.308 C 
ATOM     13  O   LIG    1       25.933 -20.416   9.499  0.00  0.00    -0.251 OA
BRANCH  12  14
ATOM     14  O   LIG    1       27.420 -21.594   8.280  0.00  0.00    -0.459 OA
BRANCH  14  15
ATOM     15  C   LIG    1       28.536 -21.005   7.570  0.00  0.00    +0.282 C 
BRANCH  15  16
ATOM     16  C   LIG    1       29.084 -19.662   8.119  0.00  0.00    +0.174 C 
BRANCH  16  17
ATOM     17  N   LIG    1       30.624 -19.610   8.348  0.00  0.00    +0.239 N 
ATOM     18  C   LIG    1       31.117 -20.995   8.806  0.00  0.00    +0.192 C 
ATOM     19  C   LIG    1       31.001 -18.618   9.441  0.00  0.00    +0.192 C 
ATOM     20  C   LIG    1       31.352 -19.261   7.063  0.00  0.00    +0.192 C 
ENDBRANCH  16  17
ENDBRANCH  15  16
ENDBRANCH  14  15
ENDBRANCH  12  14
ENDBRANCH  11  12
ENDBRANCH   1  11
TORSDOF 11
ENDMDL
MODEL 3
REMARK VINA RESULT:      -6.1      2.183      3.582
REMARK  Name = *****
REMARK                            x       y       z     vdW  Elec       q    Type
REMARK                         _______ _______ _______ _____ _____    ______ ____
ROOT
ATOM      1  C   LIG    1       25.662 -20.660   7.088  0.00  0.00    +0.132 C 
ENDROOT
BRANCH   1   2
ATOM      2  C   LIG    1       26.374 -20.742   8.412  0.00  0.00    +0.308 C 
ATOM      3  O   LIG    1       25.873 -20.451   9.483  0.00  0.00    -0.251 OA
BRANCH   2   4
ATOM      4  O   LIG    1       27.673 -21.138   8.264  0.00  0.00    -0.459 OA
BRANCH   4   5
ATOM      5  C   LIG    1       28.489 -20.283   7.430  0.00  0.00    +0.282 C 
BRANCH   5   6
ATOM      6  C   LIG    1       29.277 -19.264   8.273  0.00  0.00    +0.174 C 
BRANCH   6   8
ATOM      7  C   LIG    1       31.442 -18.491   9.321  0.00  0.00    +0.192 C 
ATOM      8  N   LIG    1       30.789 -19.502   8.384  0.00  0.00    +0.239 N 
ATOM      9  C   LIG    1       31.120 -20.912   8.844  0.00  0.00    +0.192 C 
ATOM     10  C   LIG    1       31.374 -19.303   6.977  0.00  0.00    +0.192 C 
ENDBRANCH   6   8
ENDBRANCH   5   6
ENDBRANCH   4   5
ENDBRANCH   2   4
ENDBRANCH   1   2
BRANCH   1  11
ATOM     11  C   LIG    1       25.170 -22.044   6.653  0.00  0.00    +0.132 C 
BRANCH  11  12
ATOM     12  C   LIG    1       23.790 -22.381   7.167  0.00  0.00    +0.308 C 
ATOM     13  O   LIG    1       23.097 -21.671   7.857  0.00  0.00    -0.251 OA
BRANCH  12  14
ATOM     14  O   LIG    1       23.412 -23.570   6.682  0.00  0.00    -0.459 OA
BRANCH  14  15
ATOM     15  C   LIG    1       24.442 -24.541   6.383  0.00  0.00    +0.282 C 
BRANCH  15  16
ATOM     16  C   LIG    1       23.968 -25.950   5.941  0.00  0.00    +0.174 C 
BRANCH  16  17
ATOM     17  N   LIG    1       25.075 -27.044   5.890  0.00  0.00    +0.239 N 
ATOM     18  C   LIG    1       26.009 -26.880   7.102  0.00  0.00    +0.192 C 
ATOM     19  C   LIG    1       25.939 -26.919   4.641  0.00  0.00    +0.192 C 
ATOM     20  C   LIG    1       24.468 -28.434   5.958  0.00  0.00    +0.192 C 
ENDBRANCH  16  17
ENDBRANCH  15  16
ENDBRANCH  14  15
ENDBRANCH  12  14
ENDBRANCH  11  12
ENDBRANCH   1  11
TORSDOF 11
ENDMDL
MODEL 4
REMARK VINA RESULT:      -6.0      2.225      3.930
REMARK  Name = *****
REMARK                            x       y       z     vdW  Elec       q    Type
REMARK                         _______ _______ _______ _____ _____    ______ ____
ROOT
ATOM      1  C   LIG    1       24.526 -20.947   7.370  0.00  0.00    +0.132 C 
ENDROOT
BRANCH   1   2
ATOM      2  C   LIG    1       25.753 -20.614   8.176  0.00  0.00    +0.308 C 
ATOM      3  O   LIG    1       25.798 -20.614   9.393  0.00  0.00    -0.251 OA
BRANCH   2   4
ATOM      4  O   LIG    1       26.803 -20.262   7.378  0.00  0.00    -0.459 OA
BRANCH   4   5
ATOM      5  C   LIG    1       28.051 -20.935   7.665  0.00  0.00    +0.282 C 
BRANCH   5   6
ATOM      6  C   LIG    1       29.232 -20.255   6.949  0.00  0.00    +0.174 C 
BRANCH   6   8
ATOM      7  C   LIG    1       30.915 -20.921   8.712  0.00  0.00    +0.192 C 
ATOM      8  N   LIG    1       30.387 -19.783   7.844  0.00  0.00    +0.239 N 
ATOM      9  C   LIG    1       31.528 -19.178   7.043  0.00  0.00    +0.192 C 
ATOM     10  C   LIG    1       29.816 -18.697   8.768  0.00  0.00    +0.192 C 
ENDBRANCH   6   8
ENDBRANCH   5   6
ENDBRANCH   4   5
ENDBRANCH   2   4
ENDBRANCH   1   2
BRANCH   1  11
ATOM     11  C   LIG    1       24.230 -22.448   7.435  0.00  0.00    +0.132 C 
BRANCH  11  12
ATOM     12  C   LIG    1       25.234 -23.293   6.687  0.00  0.00    +0.308 C 
ATOM     13  O   LIG    1       26.229 -23.794   7.157  0.00  0.00    -0.251 OA
BRANCH  12  14
ATOM     14  O   LIG    1       24.820 -23.468   5.427  0.00  0.00    -0.459 OA
BRANCH  14  15
ATOM     15  C   LIG    1       24.927 -24.792   4.853  0.00  0.00    +0.282 C 
BRANCH  15  16
ATOM     16  C   LIG    1       24.277 -25.954   5.650  0.00  0.00    +0.174 C 
BRANCH  16  17
ATOM     17  N   LIG    1       25.155 -27.229   5.812  0.00  0.00    +0.239 N 
ATOM     18  C   LIG    1       26.306 -27.187   4.790  0.00  0.00    +0.192 C 
ATOM     19  C   LIG    1       24.362 -28.502   5.539  0.00  0.00    +0.192 C 
ATOM     20  C   LIG    1       25.769 -27.293   7.199  0.00  0.00    +0.192 C 
ENDBRANCH  16  17
ENDBRANCH  15  16
ENDBRANCH  14  15
ENDBRANCH  12  14
ENDBRANCH  11  12
ENDBRANCH   1  11
TORSDOF 11
ENDMDL
MODEL 5
REMARK VINA RESULT:      -5.9      0.914      7.967
REMARK  Name = *****
REMARK                            x       y       z     vdW  Elec       q    Type
REMARK                         _______ _______ _______ _____ _____    ______ ____
ROOT
ATOM      1  C   LIG    1       26.529 -20.357   7.190  0.00  0.00    +0.132 C 
ENDROOT
BRANCH   1   2
ATOM      2  C   LIG    1       25.585 -20.691   8.314  0.00  0.00    +0.308 C 
ATOM      3  O   LIG    1       25.932 -21.096   9.408  0.00  0.00    -0.251 OA
BRANCH   2   4
ATOM      4  O   LIG    1       24.280 -20.531   7.943  0.00  0.00    -0.459 OA
BRANCH   4   5
ATOM      5  C   LIG    1       23.861 -21.315   6.802  0.00  0.00    +0.282 C 
BRANCH   5   6
ATOM      6  C   LIG    1       23.673 -22.796   7.178  0.00  0.00    +0.174 C 
BRANCH   6   8
ATOM      7  C   LIG    1       25.890 -24.007   7.141  0.00  0.00    +0.192 C 
ATOM      8  N   LIG    1       24.556 -23.803   6.428  0.00  0.00    +0.239 N 
ATOM      9  C   LIG    1       23.868 -25.144   6.237  0.00  0.00    +0.192 C 
ATOM     10  C   LIG    1       24.837 -23.201   5.043  0.00  0.00    +0.192 C 
ENDBRANCH   6   8
ENDBRANCH   5   6
ENDBRANCH   4   5
ENDBRANCH   2   4
ENDBRANCH   1   2
BRANCH   1  11
ATOM     11  C   LIG    1       27.932 -20.893   7.488  0.00  0.00    +0.132 C 
BRANCH  11  12
ATOM     12  C   LIG    1       29.034 -20.096   6.830  0.00  0.00    +0.308 C 
ATOM     13  O   LIG    1       28.886 -19.252   5.977  0.00  0.00    -0.251 OA
BRANCH  12  14
ATOM     14  O   LIG    1       30.208 -20.414   7.386  0.00  0.00    -0.459 OA
BRANCH  14  15
ATOM     15  C   LIG    1       31.156 -19.348   7.630  0.00  0.00    +0.282 C 
BRANCH  15  16
ATOM     16  C   LIG    1       31.586 -19.118   9.103  0.00  0.00    +0.174 C 
BRANCH  16  17
ATOM     17  N   LIG    1       31.229 -17.723   9.695  0.00  0.00    +0.239 N 
ATOM     18  C   LIG    1       32.408 -16.760   9.473  0.00  0.00    +0.192 C 
ATOM     19  C   LIG    1       30.985 -17.791  11.198  0.00  0.00    +0.192 C 
ATOM     20  C   LIG    1       30.013 -17.134   9.003  0.00  0.00    +0.192 C 
ENDBRANCH  16  17
ENDBRANCH  15  16
ENDBRANCH  14  15
ENDBRANCH  12  14
ENDBRANCH  11  12
ENDBRANCH   1  11
TORSDOF 11
ENDMDL
MODEL 6
REMARK VINA RESULT:      -5.8      2.219      3.877
REMARK  Name = *****
REMARK                            x       y       z     vdW  Elec       q    Type
REMARK                         _______ _______ _______ _____ _____    ______ ____
ROOT
ATOM      1  C   LIG    1       26.819 -22.066   7.268  0.00  0.00    +0.132 C 
ENDROOT
BRANCH   1   2
ATOM      2  C   LIG    1       26.661 -21.102   8.413  0.00  0.00    +0.308 C 
ATOM      3  O   LIG    1       25.833 -21.215   9.300  0.00  0.00    -0.251 OA
BRANCH   2   4
ATOM      4  O   LIG    1       27.528 -20.052   8.314  0.00  0.00    -0.459 OA
BRANCH   4   5
ATOM      5  C   LIG    1       28.711 -20.299   7.520  0.00  0.00    +0.282 C 
BRANCH   5   6
ATOM      6  C   LIG    1       29.605 -19.048   7.441  0.00  0.00    +0.174 C 
BRANCH   6   8
ATOM      7  C   LIG    1       31.940 -18.254   7.991  0.00  0.00    +0.192 C 
ATOM      8  N   LIG    1       30.674 -18.909   8.535  0.00  0.00    +0.239 N 
ATOM      9  C   LIG    1       30.170 -18.130   9.738  0.00  0.00    +0.192 C 
ATOM     10  C   LIG    1       31.027 -20.332   8.993  0.00  0.00    +0.192 C 
ENDBRANCH   6   8
ENDBRANCH   5   6
ENDBRANCH   4   5
ENDBRANCH   2   4
ENDBRANCH   1   2
BRANCH   1  11
ATOM     11  C   LIG    1       25.973 -23.321   7.499  0.00  0.00    +0.132 C 
BRANCH  11  12
ATOM     12  C   LIG    1       24.817 -23.454   6.535  0.00  0.00    +0.308 C 
ATOM     13  O   LIG    1       24.815 -24.104   5.516  0.00  0.00    -0.251 OA
BRANCH  12  14
ATOM     14  O   LIG    1       23.758 -22.793   7.015  0.00  0.00    -0.459 OA
BRANCH  14  15
ATOM     15  C   LIG    1       23.057 -21.893   6.124  0.00  0.00    +0.282 C 
BRANCH  15  16
ATOM     16  C   LIG    1       23.669 -20.480   5.934  0.00  0.00    +0.174 C 
BRANCH  16  17
ATOM     17  N   LIG    1       24.236 -20.181   4.515  0.00  0.00    +0.239 N 
ATOM     18  C   LIG    1       23.543 -18.930   3.944  0.00  0.00    +0.192 C 
ATOM     19  C   LIG    1       23.965 -21.323   3.543  0.00  0.00    +0.192 C 
ATOM     20  C   LIG    1       25.726 -19.898   4.573  0.00  0.00    +0.192 C 
ENDBRANCH  16  17
ENDBRANCH  15  16
ENDBRANCH  14  15
ENDBRANCH  12  14
ENDBRANCH  11  12
ENDBRANCH   1  11
TORSDOF 11
ENDMDL
MODEL 7
REMARK VINA RESULT:      -5.8      2.296      7.596
REMARK  Name = *****
REMARK                            x       y       z     vdW  Elec       q    Type
REMARK                         _______ _______ _______ _____ _____    ______ ____
ROOT
ATOM      1  C   LIG    1       25.630 -24.057   7.306  0.00  0.00    +0.132 C 
ENDROOT
BRANCH   1   2
ATOM      2  C   LIG    1       24.716 -24.303   6.136  0.00  0.00    +0.308 C 
ATOM      3  O   LIG    1       25.090 -24.431   4.984  0.00  0.00    -0.251 OA
BRANCH   2   4
ATOM      4  O   LIG    1       23.403 -24.317   6.513  0.00  0.00    -0.459 OA
BRANCH   4   5
ATOM      5  C   LIG    1       22.844 -23.026   6.852  0.00  0.00    +0.282 C 
BRANCH   5   6
ATOM      6  C   LIG    1       22.583 -22.180   5.593  0.00  0.00    +0.174 C 
BRANCH   6   8
ATOM      7  C   LIG    1       24.553 -20.790   4.839  0.00  0.00    +0.192 C 
ATOM      8  N   LIG    1       23.216 -20.782   5.573  0.00  0.00    +0.239 N 
ATOM      9  C   LIG    1       22.298 -19.741   4.952  0.00  0.00    +0.192 C 
ATOM     10  C   LIG    1       23.472 -20.390   7.036  0.00  0.00    +0.192 C 
ENDBRANCH   6   8
ENDBRANCH   5   6
ENDBRANCH   4   5
ENDBRANCH   2   4
ENDBRANCH   1   2
BRANCH   1  11
ATOM     11  C   LIG    1       26.366 -22.724   7.145  0.00  0.00    +0.132 C 
BRANCH  11  12
ATOM     12  C   LIG    1       26.492 -21.946   8.434  0.00  0.00    +0.308 C 
ATOM     13  O   LIG    1       25.586 -21.655   9.178  0.00  0.00    -0.251 OA
BRANCH  12  14
ATOM     14  O   LIG    1       27.783 -21.682   8.670  0.00  0.00    -0.459 OA
BRANCH  14  15
ATOM     15  C   LIG    1       28.544 -21.024   7.630  0.00  0.00    +0.282 C 
BRANCH  15  16
ATOM     16  C   LIG    1       29.082 -19.604   7.950  0.00  0.00    +0.174 C 
BRANCH  16  17
ATOM     17  N   LIG    1       30.602 -19.522   8.275  0.00  0.00    +0.239 N 
ATOM     18  C   LIG    1       31.080 -20.880   8.819  0.00  0.00    +0.192 C 
ATOM     19  C   LIG    1       30.897 -18.482   9.350  0.00  0.00    +0.192 C 
ATOM     20  C   LIG    1       31.409 -19.214   7.026  0.00  0.00    +0.192 C 
ENDBRANCH  16  17
ENDBRANCH  15  16
ENDBRANCH  14  15
ENDBRANCH  12  14
ENDBRANCH  11  12
ENDBRANCH   1  11
TORSDOF 11
ENDMDL
MODEL 8
REMARK VINA RESULT:      -5.8      1.393      2.085
REMARK  Name = *****
REMARK                            x       y       z     vdW  Elec       q    Type
REMARK                         _______ _______ _______ _____ _____    ______ ____
ROOT
ATOM      1  C   LIG    1       29.099 -19.582   7.495  0.00  0.00    +0.132 C 
ENDROOT
BRANCH   1   2
ATOM      2  C   LIG    1       30.121 -20.521   8.079  0.00  0.00    +0.308 C 
ATOM      3  O   LIG    1       29.851 -21.523   8.716  0.00  0.00    -0.251 OA
BRANCH   2   4
ATOM      4  O   LIG    1       31.395 -20.086   7.851  0.00  0.00    -0.459 OA
BRANCH   4   5
ATOM      5  C   LIG    1       31.611 -18.669   8.048  0.00  0.00    +0.282 C 
BRANCH   5   6
ATOM      6  C   LIG    1       32.115 -18.373   9.472  0.00  0.00    +0.174 C 
BRANCH   6   8
ATOM      7  C   LIG    1       31.647 -17.117  11.614  0.00  0.00    +0.192 C 
ATOM      8  N   LIG    1       31.656 -17.045  10.091  0.00  0.00    +0.239 N 
ATOM      9  C   LIG    1       32.510 -15.872   9.639  0.00  0.00    +0.192 C 
ATOM     10  C   LIG    1       30.215 -16.807   9.612  0.00  0.00    +0.192 C 
ENDBRANCH   6   8
ENDBRANCH   5   6
ENDBRANCH   4   5
ENDBRANCH   2   4
ENDBRANCH   1   2
BRANCH   1  11
ATOM     11  C   LIG    1       28.654 -20.064   6.111  0.00  0.00    +0.132 C 
BRANCH  11  12
ATOM     12  C   LIG    1       27.164 -20.286   6.000  0.00  0.00    +0.308 C 
ATOM     13  O   LIG    1       26.462 -19.936   5.081  0.00  0.00    -0.251 OA
BRANCH  12  14
ATOM     14  O   LIG    1       26.740 -20.998   7.051  0.00  0.00    -0.459 OA
BRANCH  14  15
ATOM     15  C   LIG    1       25.398 -20.758   7.537  0.00  0.00    +0.282 C 
BRANCH  15  16
ATOM     16  C   LIG    1       24.480 -21.998   7.694  0.00  0.00    +0.174 C 
BRANCH  16  17
ATOM     17  N   LIG    1       23.782 -22.486   6.391  0.00  0.00    +0.239 N 
ATOM     18  C   LIG    1       22.730 -23.552   6.746  0.00  0.00    +0.192 C 
ATOM     19  C   LIG    1       24.769 -23.137   5.428  0.00  0.00    +0.192 C 
ATOM     20  C   LIG    1       23.066 -21.342   5.697  0.00  0.00    +0.192 C 
ENDBRANCH  16  17
ENDBRANCH  15  16
ENDBRANCH  14  15
ENDBRANCH  12  14
ENDBRANCH  11  12
ENDBRANCH   1  11
TORSDOF 11
ENDMDL
MODEL 9
REMARK VINA RESULT:      -5.7      2.537      7.436
REMARK  Name = *****
REMARK                            x       y       z     vdW  Elec       q    Type
REMARK                         _______ _______ _______ _____ _____    ______ ____
ROOT
ATOM      1  C   LIG    1       24.677 -23.473   6.032  0.00  0.00    +0.132 C 
ENDROOT
BRANCH   1   2
ATOM      2  C   LIG    1       23.291 -23.289   6.591  0.00  0.00    +0.308 C 
ATOM      3  O   LIG    1       22.521 -24.200   6.837  0.00  0.00    -0.251 OA
BRANCH   2   4
ATOM      4  O   LIG    1       22.978 -21.969   6.744  0.00  0.00    -0.459 OA
BRANCH   4   5
ATOM      5  C   LIG    1       22.481 -21.310   5.556  0.00  0.00    +0.282 C 
BRANCH   5   6
ATOM      6  C   LIG    1       23.179 -19.956   5.332  0.00  0.00    +0.174 C 
BRANCH   6   8
ATOM      7  C   LIG    1       24.441 -18.651   3.574  0.00  0.00    +0.192 C 
ATOM      8  N   LIG    1       24.366 -19.958   4.358  0.00  0.00    +0.239 N 
ATOM      9  C   LIG    1       25.689 -20.210   5.061  0.00  0.00    +0.192 C 
ATOM     10  C   LIG    1       24.120 -21.103   3.363  0.00  0.00    +0.192 C 
ENDBRANCH   6   8
ENDBRANCH   5   6
ENDBRANCH   4   5
ENDBRANCH   2   4
ENDBRANCH   1   2
BRANCH   1  11
ATOM     11  C   LIG    1       25.674 -23.778   7.154  0.00  0.00    +0.132 C 
BRANCH  11  12
ATOM     12  C   LIG    1       26.212 -22.541   7.834  0.00  0.00    +0.308 C 
ATOM     13  O   LIG    1       25.719 -21.983   8.786  0.00  0.00    -0.251 OA
BRANCH  12  14
ATOM     14  O   LIG    1       27.370 -22.187   7.264  0.00  0.00    -0.459 OA
BRANCH  14  15
ATOM     15  C   LIG    1       28.306 -21.411   8.050  0.00  0.00    +0.282 C 
BRANCH  15  16
ATOM     16  C   LIG    1       28.613 -19.975   7.553  0.00  0.00    +0.174 C 
BRANCH  16  17
ATOM     17  N   LIG    1       30.059 -19.466   7.828  0.00  0.00    +0.239 N 
ATOM     18  C   LIG    1       30.824 -20.524   8.642  0.00  0.00    +0.192 C 
ATOM     19  C   LIG    1       30.063 -18.182   8.649  0.00  0.00    +0.192 C 
ATOM     20  C   LIG    1       30.814 -19.247   6.529  0.00  0.00    +0.192 C 
ENDBRANCH  16  17
ENDBRANCH  15  16
ENDBRANCH  14  15
ENDBRANCH  12  14
ENDBRANCH  11  12
ENDBRANCH   1  11
TORSDOF 11
ENDMDL
