MODEL 1
REMARK VINA RESULT:      -9.4      0.000      0.000
REMARK  Name = *****
REMARK                            x       y       z     vdW  Elec       q    Type
REMARK                         _______ _______ _______ _____ _____    ______ ____
ROOT
ATOM      1  C   LIG    1       24.996 -23.981   6.927  0.00  0.00    +0.019 C 
ENDROOT
BRANCH   1   2
ATOM      2  C   LIG    1       24.049 -22.781   7.044  0.00  0.00    +0.042 C 
BRANCH   2   3
ATOM      3  C   LIG    1       24.845 -21.482   7.174  0.00  0.00    +0.229 C 
BRANCH   3   4
ATOM      4  O   LIG    1       25.714 -21.352   6.044  0.00  0.00    -0.492 OA
BRANCH   4  13
ATOM      5  O   LIG    1       31.930 -21.640   9.521  0.00  0.00    -0.276 OA
ATOM      6  C   LIG    1       31.190 -21.030   8.749  0.00  0.00    +0.217 C 
ATOM      7  N   LIG    1       29.993 -21.571   8.338  0.00  0.00    -0.285 N 
ATOM      8  H   LIG    1       29.763 -22.471   8.739  0.00  0.00    +0.155 HD
ATOM      9  C   LIG    1       29.125 -20.956   7.431  0.00  0.00    +0.040 A 
ATOM     10  C   LIG    1       29.541 -19.822   6.737  0.00  0.00    -0.025 A 
ATOM     11  C   LIG    1       28.672 -19.235   5.811  0.00  0.00    +0.009 A 
ATOM     12  C   LIG    1       27.395 -19.772   5.614  0.00  0.00    +0.046 A 
ATOM     13  C   LIG    1       26.976 -20.895   6.330  0.00  0.00    +0.122 A 
ATOM     14  C   LIG    1       30.954 -19.335   6.907  0.00  0.00    +0.046 C 
ATOM     15  C   LIG    1       27.856 -21.505   7.225  0.00  0.00    +0.069 A 
ATOM     16  C   LIG    1       31.464 -19.616   8.314  0.00  0.00    +0.101 C 
ENDBRANCH   4  13
ENDBRANCH   3   4
ENDBRANCH   2   3
ENDBRANCH   1   2
BRANCH   1  17
ATOM     17  C   LIG    1       24.494 -25.028   5.920  0.00  0.00    +0.085 C 
BRANCH  17  18
ATOM     18  N   LIG    1       25.575 -25.841   5.333  0.00  0.00    -0.299 NA
ATOM     19  C   LIG    1       26.466 -26.396   6.390  0.00  0.00    +0.103 C 
ATOM     20  C   LIG    1       25.854 -27.537   7.251  0.00  0.00    +0.120 C 
ATOM     21  N   LIG    1       25.313 -28.619   6.390  0.00  0.00    -0.326 N 
ATOM     22  C   LIG    1       24.424 -28.117   5.321  0.00  0.00    +0.120 C 
ATOM     23  C   LIG    1       25.108 -26.988   4.517  0.00  0.00    +0.103 C 
BRANCH  21  24
ATOM     24  C   LIG    1       24.870 -29.749   7.119  0.00  0.00    +0.050 A 
ATOM     25  C   LIG    1       25.074 -31.073   6.645  0.00  0.00    +0.080 A 
ATOM     26 CL   LIG    1       25.820 -31.337   5.092  0.00  0.00    -0.080 Cl
ATOM     27  C   LIG    1       24.625 -32.178   7.395  0.00  0.00    +0.061 A 
ATOM     28 CL   LIG    1       24.847 -33.816   6.877  0.00  0.00    -0.082 Cl
ATOM     29  C   LIG    1       23.964 -31.988   8.610  0.00  0.00    +0.021 A 
ATOM     30  C   LIG    1       23.745 -30.702   9.084  0.00  0.00    +0.003 A 
ATOM     31  C   LIG    1       24.196 -29.602   8.349  0.00  0.00    +0.025 A 
ENDBRANCH  21  24
ENDBRANCH  17  18
ENDBRANCH   1  17
TORSDOF 7
ENDMDL
MODEL 2
REMARK VINA RESULT:      -9.0      1.239      1.402
REMARK  Name = *****
REMARK                            x       y       z     vdW  Elec       q    Type
REMARK                         _______ _______ _______ _____ _____    ______ ____
ROOT
ATOM      1  C   LIG    1       24.579 -24.867   6.460  0.00  0.00    +0.019 C 
ENDROOT
BRANCH   1   2
ATOM      2  C   LIG    1       25.125 -23.815   5.487  0.00  0.00    +0.042 C 
BRANCH   2   3
ATOM      3  C   LIG    1       24.720 -22.410   5.935  0.00  0.00    +0.229 C 
BRANCH   3   4
ATOM      4  O   LIG    1       25.357 -22.117   7.182  0.00  0.00    -0.492 OA
BRANCH   4  13
ATOM      5  O   LIG    1       32.109 -20.939   9.140  0.00  0.00    -0.276 OA
ATOM      6  C   LIG    1       31.143 -20.599   8.456  0.00  0.00    +0.217 C 
ATOM      7  N   LIG    1       29.989 -21.348   8.438  0.00  0.00    -0.285 N 
ATOM      8  H   LIG    1       29.988 -22.159   9.043  0.00  0.00    +0.155 HD
ATOM      9  C   LIG    1       28.871 -21.047   7.654  0.00  0.00    +0.040 A 
ATOM     10  C   LIG    1       28.956 -20.052   6.683  0.00  0.00    -0.025 A 
ATOM     11  C   LIG    1       27.838 -19.781   5.886  0.00  0.00    +0.009 A 
ATOM     12  C   LIG    1       26.649 -20.490   6.090  0.00  0.00    +0.046 A 
ATOM     13  C   LIG    1       26.563 -21.470   7.081  0.00  0.00    +0.122 A 
ATOM     14  C   LIG    1       30.280 -19.383   6.431  0.00  0.00    +0.046 C 
ATOM     15  C   LIG    1       27.689 -21.767   7.850  0.00  0.00    +0.069 A 
ATOM     16  C   LIG    1       31.099 -19.292   7.712  0.00  0.00    +0.101 C 
ENDBRANCH   4  13
ENDBRANCH   3   4
ENDBRANCH   2   3
ENDBRANCH   1   2
BRANCH   1  17
ATOM     17  C   LIG    1       24.078 -26.128   5.740  0.00  0.00    +0.085 C 
BRANCH  17  18
ATOM     18  N   LIG    1       25.162 -27.044   5.340  0.00  0.00    -0.299 NA
ATOM     19  C   LIG    1       26.148 -27.223   6.442  0.00  0.00    +0.103 C 
ATOM     20  C   LIG    1       25.658 -28.071   7.649  0.00  0.00    +0.120 C 
ATOM     21  N   LIG    1       25.123 -29.380   7.196  0.00  0.00    -0.326 N 
ATOM     22  C   LIG    1       24.141 -29.255   6.099  0.00  0.00    +0.120 C 
ATOM     23  C   LIG    1       24.708 -28.399   4.944  0.00  0.00    +0.103 C 
BRANCH  21  24
ATOM     24  C   LIG    1       24.791 -30.251   8.262  0.00  0.00    +0.050 A 
ATOM     25  C   LIG    1       25.483 -31.474   8.472  0.00  0.00    +0.080 A 
ATOM     26 CL   LIG    1       26.727 -31.975   7.358  0.00  0.00    -0.080 Cl
ATOM     27  C   LIG    1       25.133 -32.319   9.544  0.00  0.00    +0.061 A 
ATOM     28 CL   LIG    1       25.940 -33.820   9.858  0.00  0.00    -0.082 Cl
ATOM     29  C   LIG    1       24.094 -31.972  10.409  0.00  0.00    +0.021 A 
ATOM     30  C   LIG    1       23.399 -30.786  10.214  0.00  0.00    +0.003 A 
ATOM     31  C   LIG    1       23.748 -29.940   9.157  0.00  0.00    +0.025 A 
ENDBRANCH  21  24
ENDBRANCH  17  18
ENDBRANCH   1  17
TORSDOF 7
ENDMDL
MODEL 3
REMARK VINA RESULT:      -8.9      3.276      5.387
REMARK  Name = *****
REMARK                            x       y       z     vdW  Elec       q    Type
REMARK                         _______ _______ _______ _____ _____    ______ ____
ROOT
ATOM      1  C   LIG    1       24.514 -29.391   5.414  0.00  0.00    +0.019 C 
ENDROOT
BRANCH   1   2
ATOM      2  C   LIG    1       25.075 -27.993   5.125  0.00  0.00    +0.042 C 
BRANCH   2   3
ATOM      3  C   LIG    1       24.957 -27.103   6.363  0.00  0.00    +0.229 C 
BRANCH   3   4
ATOM      4  O   LIG    1       23.890 -26.170   6.167  0.00  0.00    -0.492 OA
BRANCH   4  13
ATOM      5  O   LIG    1       28.322 -20.950   8.146  0.00  0.00    -0.276 OA
ATOM      6  C   LIG    1       27.164 -21.331   7.977  0.00  0.00    +0.217 C 
ATOM      7  N   LIG    1       26.897 -22.568   7.438  0.00  0.00    -0.285 N 
ATOM      8  H   LIG    1       27.709 -23.136   7.228  0.00  0.00    +0.155 HD
ATOM      9  C   LIG    1       25.610 -23.050   7.178  0.00  0.00    +0.040 A 
ATOM     10  C   LIG    1       24.518 -22.191   7.281  0.00  0.00    -0.025 A 
ATOM     11  C   LIG    1       23.239 -22.679   6.990  0.00  0.00    +0.009 A 
ATOM     12  C   LIG    1       23.070 -24.020   6.629  0.00  0.00    +0.046 A 
ATOM     13  C   LIG    1       24.166 -24.882   6.551  0.00  0.00    +0.122 A 
ATOM     14  C   LIG    1       24.754 -20.735   7.578  0.00  0.00    +0.046 C 
ATOM     15  C   LIG    1       25.446 -24.386   6.802  0.00  0.00    +0.069 A 
ATOM     16  C   LIG    1       25.976 -20.550   8.468  0.00  0.00    +0.101 C 
ENDBRANCH   4  13
ENDBRANCH   3   4
ENDBRANCH   2   3
ENDBRANCH   1   2
BRANCH   1  17
ATOM     17  C   LIG    1       25.604 -30.381   5.853  0.00  0.00    +0.085 C 
BRANCH  17  18
ATOM     18  N   LIG    1       25.123 -31.393   6.812  0.00  0.00    -0.299 NA
ATOM     19  C   LIG    1       26.189 -31.762   7.784  0.00  0.00    +0.103 C 
ATOM     20  C   LIG    1       26.528 -30.680   8.849  0.00  0.00    +0.120 C 
ATOM     21  N   LIG    1       25.301 -30.224   9.551  0.00  0.00    -0.326 N 
ATOM     22  C   LIG    1       24.211 -29.850   8.626  0.00  0.00    +0.120 C 
ATOM     23  C   LIG    1       23.941 -30.977   7.604  0.00  0.00    +0.103 C 
BRANCH  21  24
ATOM     24  C   LIG    1       25.565 -29.343  10.627  0.00  0.00    +0.050 A 
ATOM     25  C   LIG    1       24.737 -29.302  11.782  0.00  0.00    +0.080 A 
ATOM     26 CL   LIG    1       23.311 -30.301  11.867  0.00  0.00    -0.080 Cl
ATOM     27  C   LIG    1       25.026 -28.417  12.839  0.00  0.00    +0.061 A 
ATOM     28 CL   LIG    1       24.062 -28.322  14.274  0.00  0.00    -0.082 Cl
ATOM     29  C   LIG    1       26.125 -27.558  12.762  0.00  0.00    +0.021 A 
ATOM     30  C   LIG    1       26.939 -27.575  11.638  0.00  0.00    +0.003 A 
ATOM     31  C   LIG    1       26.662 -28.458  10.590  0.00  0.00    +0.025 A 
ENDBRANCH  21  24
ENDBRANCH  17  18
ENDBRANCH   1  17
TORSDOF 7
ENDMDL
MODEL 4
REMARK VINA RESULT:      -8.7      3.066      5.168
REMARK  Name = *****
REMARK                            x       y       z     vdW  Elec       q    Type
REMARK                         _______ _______ _______ _____ _____    ______ ____
ROOT
ATOM      1  C   LIG    1       24.744 -29.205   5.023  0.00  0.00    +0.019 C 
ENDROOT
BRANCH   1   2
ATOM      2  C   LIG    1       25.157 -27.728   5.022  0.00  0.00    +0.042 C 
BRANCH   2   3
ATOM      3  C   LIG    1       24.754 -27.059   6.337  0.00  0.00    +0.229 C 
BRANCH   3   4
ATOM      4  O   LIG    1       23.766 -26.060   6.069  0.00  0.00    -0.492 OA
BRANCH   4  13
ATOM      5  O   LIG    1       28.372 -21.044   8.174  0.00  0.00    -0.276 OA
ATOM      6  C   LIG    1       27.201 -21.389   8.014  0.00  0.00    +0.217 C 
ATOM      7  N   LIG    1       26.891 -22.594   7.428  0.00  0.00    -0.285 N 
ATOM      8  H   LIG    1       27.683 -23.172   7.177  0.00  0.00    +0.155 HD
ATOM      9  C   LIG    1       25.587 -23.031   7.176  0.00  0.00    +0.040 A 
ATOM     10  C   LIG    1       24.520 -22.150   7.338  0.00  0.00    -0.025 A 
ATOM     11  C   LIG    1       23.224 -22.593   7.055  0.00  0.00    +0.009 A 
ATOM     12  C   LIG    1       23.012 -23.912   6.640  0.00  0.00    +0.046 A 
ATOM     13  C   LIG    1       24.083 -24.797   6.501  0.00  0.00    +0.122 A 
ATOM     14  C   LIG    1       24.800 -20.715   7.692  0.00  0.00    +0.046 C 
ATOM     15  C   LIG    1       25.381 -24.345   6.746  0.00  0.00    +0.069 A 
ATOM     16  C   LIG    1       26.044 -20.600   8.563  0.00  0.00    +0.101 C 
ENDBRANCH   4  13
ENDBRANCH   3   4
ENDBRANCH   2   3
ENDBRANCH   1   2
BRANCH   1  17
ATOM     17  C   LIG    1       25.777 -30.101   5.725  0.00  0.00    +0.085 C 
BRANCH  17  18
ATOM     18  N   LIG    1       25.183 -31.294   6.358  0.00  0.00    -0.299 NA
ATOM     19  C   LIG    1       26.145 -31.943   7.291  0.00  0.00    +0.103 C 
ATOM     20  C   LIG    1       26.415 -31.175   8.616  0.00  0.00    +0.120 C 
ATOM     21  N   LIG    1       25.143 -30.846   9.307  0.00  0.00    -0.326 N 
ATOM     22  C   LIG    1       24.152 -30.202   8.419  0.00  0.00    +0.120 C 
ATOM     23  C   LIG    1       23.945 -31.028   7.129  0.00  0.00    +0.103 C 
BRANCH  21  24
ATOM     24  C   LIG    1       25.331 -30.270  10.587  0.00  0.00    +0.050 A 
ATOM     25  C   LIG    1       25.947 -29.000  10.753  0.00  0.00    +0.080 A 
ATOM     26 CL   LIG    1       26.564 -28.142   9.367  0.00  0.00    -0.080 Cl
ATOM     27  C   LIG    1       26.118 -28.451  12.039  0.00  0.00    +0.061 A 
ATOM     28 CL   LIG    1       26.855 -26.907  12.310  0.00  0.00    -0.082 Cl
ATOM     29  C   LIG    1       25.694 -29.151  13.171  0.00  0.00    +0.021 A 
ATOM     30  C   LIG    1       25.099 -30.398  13.029  0.00  0.00    +0.003 A 
ATOM     31  C   LIG    1       24.920 -30.944  11.755  0.00  0.00    +0.025 A 
ENDBRANCH  21  24
ENDBRANCH  17  18
ENDBRANCH   1  17
TORSDOF 7
ENDMDL
MODEL 5
REMARK VINA RESULT:      -8.4      3.641      5.696
REMARK  Name = *****
REMARK                            x       y       z     vdW  Elec       q    Type
REMARK                         _______ _______ _______ _____ _____    ______ ____
ROOT
ATOM      1  C   LIG    1       24.986 -29.558   5.640  0.00  0.00    +0.019 C 
ENDROOT
BRANCH   1   2
ATOM      2  C   LIG    1       25.319 -28.095   5.320  0.00  0.00    +0.042 C 
BRANCH   2   3
ATOM      3  C   LIG    1       24.986 -27.197   6.512  0.00  0.00    +0.229 C 
BRANCH   3   4
ATOM      4  O   LIG    1       23.982 -26.256   6.121  0.00  0.00    -0.492 OA
BRANCH   4  13
ATOM      5  O   LIG    1       28.217 -20.900   8.167  0.00  0.00    -0.276 OA
ATOM      6  C   LIG    1       27.074 -21.322   7.992  0.00  0.00    +0.217 C 
ATOM      7  N   LIG    1       26.853 -22.561   7.438  0.00  0.00    -0.285 N 
ATOM      8  H   LIG    1       27.685 -23.096   7.224  0.00  0.00    +0.155 HD
ATOM      9  C   LIG    1       25.585 -23.087   7.171  0.00  0.00    +0.040 A 
ATOM     10  C   LIG    1       24.462 -22.270   7.282  0.00  0.00    -0.025 A 
ATOM     11  C   LIG    1       23.203 -22.801   6.983  0.00  0.00    +0.009 A 
ATOM     12  C   LIG    1       23.083 -24.143   6.606  0.00  0.00    +0.046 A 
ATOM     13  C   LIG    1       24.210 -24.963   6.520  0.00  0.00    +0.122 A 
ATOM     14  C   LIG    1       24.645 -20.809   7.595  0.00  0.00    +0.046 C 
ATOM     15  C   LIG    1       25.471 -24.423   6.779  0.00  0.00    +0.069 A 
ATOM     16  C   LIG    1       25.857 -20.590   8.490  0.00  0.00    +0.101 C 
ENDBRANCH   4  13
ENDBRANCH   3   4
ENDBRANCH   2   3
ENDBRANCH   1   2
BRANCH   1  17
ATOM     17  C   LIG    1       24.288 -29.715   7.000  0.00  0.00    +0.085 C 
BRANCH  17  18
ATOM     18  N   LIG    1       24.854 -30.797   7.827  0.00  0.00    -0.299 NA
ATOM     19  C   LIG    1       25.977 -30.300   8.668  0.00  0.00    +0.103 C 
ATOM     20  C   LIG    1       25.571 -29.384   9.857  0.00  0.00    +0.120 C 
ATOM     21  N   LIG    1       24.527 -30.031  10.692  0.00  0.00    -0.326 N 
ATOM     22  C   LIG    1       23.390 -30.545   9.901  0.00  0.00    +0.120 C 
ATOM     23  C   LIG    1       23.883 -31.443   8.743  0.00  0.00    +0.103 C 
BRANCH  21  24
ATOM     24  C   LIG    1       24.219 -29.304  11.868  0.00  0.00    +0.050 A 
ATOM     25  C   LIG    1       25.190 -29.067  12.877  0.00  0.00    +0.080 A 
ATOM     26 CL   LIG    1       26.790 -29.740  12.723  0.00  0.00    -0.080 Cl
ATOM     27  C   LIG    1       24.855 -28.337  14.035  0.00  0.00    +0.061 A 
ATOM     28 CL   LIG    1       25.992 -28.008  15.300  0.00  0.00    -0.082 Cl
ATOM     29  C   LIG    1       23.559 -27.846  14.212  0.00  0.00    +0.021 A 
ATOM     30  C   LIG    1       22.594 -28.078  13.242  0.00  0.00    +0.003 A 
ATOM     31  C   LIG    1       22.923 -28.793  12.088  0.00  0.00    +0.025 A 
ENDBRANCH  21  24
ENDBRANCH  17  18
ENDBRANCH   1  17
TORSDOF 7
ENDMDL
MODEL 6
REMARK VINA RESULT:      -8.2      4.165      6.362
REMARK  Name = *****
REMARK                            x       y       z     vdW  Elec       q    Type
REMARK                         _______ _______ _______ _____ _____    ______ ____
ROOT
ATOM      1  C   LIG    1       24.875 -29.818   7.544  0.00  0.00    +0.019 C 
ENDROOT
BRANCH   1   2
ATOM      2  C   LIG    1       24.345 -28.519   6.924  0.00  0.00    +0.042 C 
BRANCH   2   3
ATOM      3  C   LIG    1       25.482 -27.517   6.728  0.00  0.00    +0.229 C 
BRANCH   3   4
ATOM      4  O   LIG    1       25.083 -26.540   5.762  0.00  0.00    -0.492 OA
BRANCH   4  13
ATOM      5  O   LIG    1       27.860 -20.450   8.215  0.00  0.00    -0.276 OA
ATOM      6  C   LIG    1       26.855 -21.126   7.987  0.00  0.00    +0.217 C 
ATOM      7  N   LIG    1       26.951 -22.346   7.359  0.00  0.00    -0.285 N 
ATOM      8  H   LIG    1       27.890 -22.648   7.136  0.00  0.00    +0.155 HD
ATOM      9  C   LIG    1       25.852 -23.146   7.030  0.00  0.00    +0.040 A 
ATOM     10  C   LIG    1       24.562 -22.634   7.157  0.00  0.00    -0.025 A 
ATOM     11  C   LIG    1       23.474 -23.436   6.797  0.00  0.00    +0.009 A 
ATOM     12  C   LIG    1       23.690 -24.742   6.342  0.00  0.00    +0.046 A 
ATOM     13  C   LIG    1       24.984 -25.257   6.239  0.00  0.00    +0.122 A 
ATOM     14  C   LIG    1       24.379 -21.196   7.558  0.00  0.00    +0.046 C 
ATOM     15  C   LIG    1       26.072 -24.444   6.561  0.00  0.00    +0.069 A 
ATOM     16  C   LIG    1       25.492 -20.743   8.493  0.00  0.00    +0.101 C 
ENDBRANCH   4  13
ENDBRANCH   3   4
ENDBRANCH   2   3
ENDBRANCH   1   2
BRANCH   1  17
ATOM     17  C   LIG    1       25.377 -29.618   8.982  0.00  0.00    +0.085 C 
BRANCH  17  18
ATOM     18  N   LIG    1       25.035 -30.735   9.883  0.00  0.00    -0.299 NA
ATOM     19  C   LIG    1       25.386 -30.415  11.294  0.00  0.00    +0.103 C 
ATOM     20  C   LIG    1       24.476 -29.363  11.989  0.00  0.00    +0.120 C 
ATOM     21  N   LIG    1       23.045 -29.738  11.869  0.00  0.00    -0.326 N 
ATOM     22  C   LIG    1       22.647 -30.068  10.484  0.00  0.00    +0.120 C 
ATOM     23  C   LIG    1       23.602 -31.117   9.870  0.00  0.00    +0.103 C 
BRANCH  21  24
ATOM     24  C   LIG    1       22.179 -28.891  12.603  0.00  0.00    +0.050 A 
ATOM     25  C   LIG    1       20.919 -29.343  13.082  0.00  0.00    +0.080 A 
ATOM     26 CL   LIG    1       20.370 -30.953  12.705  0.00  0.00    -0.080 Cl
ATOM     27  C   LIG    1       20.081 -28.478  13.813  0.00  0.00    +0.061 A 
ATOM     28 CL   LIG    1       18.537 -28.968  14.430  0.00  0.00    -0.082 Cl
ATOM     29  C   LIG    1       20.470 -27.162  14.069  0.00  0.00    +0.021 A 
ATOM     30  C   LIG    1       21.692 -26.699  13.599  0.00  0.00    +0.003 A 
ATOM     31  C   LIG    1       22.532 -27.555  12.881  0.00  0.00    +0.025 A 
ENDBRANCH  21  24
ENDBRANCH  17  18
ENDBRANCH   1  17
TORSDOF 7
ENDMDL
MODEL 7
REMARK VINA RESULT:      -8.2      2.359      3.419
REMARK  Name = *****
REMARK                            x       y       z     vdW  Elec       q    Type
REMARK                         _______ _______ _______ _____ _____    ______ ____
ROOT
ATOM      1  C   LIG    1       24.821 -21.158   5.070  0.00  0.00    +0.019 C 
ENDROOT
BRANCH   1   2
ATOM      2  C   LIG    1       25.575 -20.398   6.169  0.00  0.00    +0.042 C 
BRANCH   2   3
ATOM      3  C   LIG    1       27.068 -20.334   5.846  0.00  0.00    +0.229 C 
BRANCH   3   4
ATOM      4  O   LIG    1       27.809 -20.839   6.961  0.00  0.00    -0.492 OA
BRANCH   4  13
ATOM      5  O   LIG    1       30.634 -16.201  11.579  0.00  0.00    -0.276 OA
ATOM      6  C   LIG    1       30.726 -16.798  10.506  0.00  0.00    +0.217 C 
ATOM      7  N   LIG    1       29.794 -17.740  10.136  0.00  0.00    -0.285 N 
ATOM      8  H   LIG    1       29.030 -17.874  10.786  0.00  0.00    +0.155 HD
ATOM      9  C   LIG    1       29.859 -18.486   8.955  0.00  0.00    +0.040 A 
ATOM     10  C   LIG    1       31.010 -18.440   8.172  0.00  0.00    -0.025 A 
ATOM     11  C   LIG    1       31.072 -19.213   7.008  0.00  0.00    +0.009 A 
ATOM     12  C   LIG    1       29.975 -19.997   6.632  0.00  0.00    +0.046 A 
ATOM     13  C   LIG    1       28.815 -20.021   7.409  0.00  0.00    +0.122 A 
ATOM     14  C   LIG    1       32.200 -17.660   8.661  0.00  0.00    +0.046 C 
ATOM     15  C   LIG    1       28.768 -19.280   8.591  0.00  0.00    +0.069 A 
ATOM     16  C   LIG    1       31.764 -16.450   9.474  0.00  0.00    +0.101 C 
ENDBRANCH   4  13
ENDBRANCH   3   4
ENDBRANCH   2   3
ENDBRANCH   1   2
BRANCH   1  17
ATOM     17  C   LIG    1       24.875 -22.681   5.268  0.00  0.00    +0.085 C 
BRANCH  17  18
ATOM     18  N   LIG    1       24.824 -23.089   6.684  0.00  0.00    -0.299 NA
ATOM     19  C   LIG    1       23.617 -23.916   6.962  0.00  0.00    +0.103 C 
ATOM     20  C   LIG    1       23.643 -25.358   6.379  0.00  0.00    +0.120 C 
ATOM     21  N   LIG    1       24.882 -26.070   6.783  0.00  0.00    -0.326 N 
ATOM     22  C   LIG    1       26.109 -25.287   6.530  0.00  0.00    +0.120 C 
ATOM     23  C   LIG    1       25.997 -23.871   7.141  0.00  0.00    +0.103 C 
BRANCH  21  24
ATOM     24  C   LIG    1       24.896 -27.433   6.399  0.00  0.00    +0.050 A 
ATOM     25  C   LIG    1       25.440 -28.442   7.239  0.00  0.00    +0.080 A 
ATOM     26 CL   LIG    1       26.183 -28.007   8.755  0.00  0.00    -0.080 Cl
ATOM     27  C   LIG    1       25.437 -29.791   6.831  0.00  0.00    +0.061 A 
ATOM     28 CL   LIG    1       26.079 -31.068   7.810  0.00  0.00    -0.082 Cl
ATOM     29  C   LIG    1       24.909 -30.154   5.591  0.00  0.00    +0.021 A 
ATOM     30  C   LIG    1       24.383 -29.182   4.752  0.00  0.00    +0.003 A 
ATOM     31  C   LIG    1       24.376 -27.844   5.154  0.00  0.00    +0.025 A 
ENDBRANCH  21  24
ENDBRANCH  17  18
ENDBRANCH   1  17
TORSDOF 7
ENDMDL
MODEL 8
REMARK VINA RESULT:      -8.2      4.426      9.572
REMARK  Name = *****
REMARK                            x       y       z     vdW  Elec       q    Type
REMARK                         _______ _______ _______ _____ _____    ______ ____
ROOT
ATOM      1  C   LIG    1       22.897 -23.021   6.601  0.00  0.00    +0.019 C 
ENDROOT
BRANCH   1   2
ATOM      2  C   LIG    1       23.619 -24.374   6.577  0.00  0.00    +0.042 C 
BRANCH   2   3
ATOM      3  C   LIG    1       24.948 -24.258   5.830  0.00  0.00    +0.229 C 
BRANCH   3   4
ATOM      4  O   LIG    1       25.139 -25.431   5.033  0.00  0.00    -0.492 OA
BRANCH   4  13
ATOM      5  O   LIG    1       23.304 -32.252   5.988  0.00  0.00    -0.276 OA
ATOM      6  C   LIG    1       23.844 -31.240   6.438  0.00  0.00    +0.217 C 
ATOM      7  N   LIG    1       23.973 -30.107   5.670  0.00  0.00    -0.285 N 
ATOM      8  H   LIG    1       23.570 -30.160   4.743  0.00  0.00    +0.155 HD
ATOM      9  C   LIG    1       24.612 -28.938   6.098  0.00  0.00    +0.040 A 
ATOM     10  C   LIG    1       25.335 -28.944   7.289  0.00  0.00    -0.025 A 
ATOM     11  C   LIG    1       25.993 -27.776   7.690  0.00  0.00    +0.009 A 
ATOM     12  C   LIG    1       25.896 -26.618   6.911  0.00  0.00    +0.046 A 
ATOM     13  C   LIG    1       25.150 -26.613   5.730  0.00  0.00    +0.122 A 
ATOM     14  C   LIG    1       25.494 -30.234   8.046  0.00  0.00    +0.046 C 
ATOM     15  C   LIG    1       24.526 -27.788   5.309  0.00  0.00    +0.069 A 
ATOM     16  C   LIG    1       24.268 -31.122   7.876  0.00  0.00    +0.101 C 
ENDBRANCH   4  13
ENDBRANCH   3   4
ENDBRANCH   2   3
ENDBRANCH   1   2
BRANCH   1  17
ATOM     17  C   LIG    1       23.129 -22.211   5.316  0.00  0.00    +0.085 C 
BRANCH  17  18
ATOM     18  N   LIG    1       23.281 -20.764   5.557  0.00  0.00    -0.299 NA
ATOM     19  C   LIG    1       23.595 -20.486   6.985  0.00  0.00    +0.103 C 
ATOM     20  C   LIG    1       25.028 -20.877   7.445  0.00  0.00    +0.120 C 
ATOM     21  N   LIG    1       26.052 -20.283   6.550  0.00  0.00    -0.326 N 
ATOM     22  C   LIG    1       25.783 -20.529   5.118  0.00  0.00    +0.120 C 
ATOM     23  C   LIG    1       24.340 -20.115   4.748  0.00  0.00    +0.103 C 
BRANCH  21  24
ATOM     24  C   LIG    1       27.379 -20.490   7.000  0.00  0.00    +0.050 A 
ATOM     25  C   LIG    1       28.471 -19.744   6.479  0.00  0.00    +0.080 A 
ATOM     26 CL   LIG    1       28.207 -18.593   5.197  0.00  0.00    -0.080 Cl
ATOM     27  C   LIG    1       29.780 -19.969   6.949  0.00  0.00    +0.061 A 
ATOM     28 CL   LIG    1       31.153 -19.092   6.359  0.00  0.00    -0.082 Cl
ATOM     29  C   LIG    1       30.025 -20.935   7.928  0.00  0.00    +0.021 A 
ATOM     30  C   LIG    1       28.973 -21.680   8.441  0.00  0.00    +0.003 A 
ATOM     31  C   LIG    1       27.671 -21.456   7.985  0.00  0.00    +0.025 A 
ENDBRANCH  21  24
ENDBRANCH  17  18
ENDBRANCH   1  17
TORSDOF 7
ENDMDL
MODEL 9
REMARK VINA RESULT:      -7.9      3.840      9.199
REMARK  Name = *****
REMARK                            x       y       z     vdW  Elec       q    Type
REMARK                         _______ _______ _______ _____ _____    ______ ____
ROOT
ATOM      1  C   LIG    1       23.197 -24.209   6.279  0.00  0.00    +0.019 C 
ENDROOT
BRANCH   1   2
ATOM      2  C   LIG    1       24.477 -25.053   6.311  0.00  0.00    +0.042 C 
BRANCH   2   3
ATOM      3  C   LIG    1       25.042 -25.221   4.900  0.00  0.00    +0.229 C 
BRANCH   3   4
ATOM      4  O   LIG    1       25.900 -26.366   4.874  0.00  0.00    -0.492 OA
BRANCH   4  13
ATOM      5  O   LIG    1       26.753 -29.832  11.044  0.00  0.00    -0.276 OA
ATOM      6  C   LIG    1       26.204 -29.774   9.943  0.00  0.00    +0.217 C 
ATOM      7  N   LIG    1       26.402 -28.698   9.109  0.00  0.00    -0.285 N 
ATOM      8  H   LIG    1       27.043 -27.994   9.451  0.00  0.00    +0.155 HD
ATOM      9  C   LIG    1       25.779 -28.545   7.866  0.00  0.00    +0.040 A 
ATOM     10  C   LIG    1       24.753 -29.411   7.496  0.00  0.00    -0.025 A 
ATOM     11  C   LIG    1       24.120 -29.228   6.262  0.00  0.00    +0.009 A 
ATOM     12  C   LIG    1       24.539 -28.201   5.409  0.00  0.00    +0.046 A 
ATOM     13  C   LIG    1       25.584 -27.351   5.775  0.00  0.00    +0.122 A 
ATOM     14  C   LIG    1       24.269 -30.440   8.482  0.00  0.00    +0.046 C 
ATOM     15  C   LIG    1       26.190 -27.508   7.023  0.00  0.00    +0.069 A 
ATOM     16  C   LIG    1       25.406 -30.916   9.377  0.00  0.00    +0.101 C 
ENDBRANCH   4  13
ENDBRANCH   3   4
ENDBRANCH   2   3
ENDBRANCH   1   2
BRANCH   1  17
ATOM     17  C   LIG    1       23.318 -22.930   7.122  0.00  0.00    +0.085 C 
BRANCH  17  18
ATOM     18  N   LIG    1       23.215 -21.693   6.327  0.00  0.00    -0.299 NA
ATOM     19  C   LIG    1       23.619 -20.504   7.127  0.00  0.00    +0.103 C 
ATOM     20  C   LIG    1       25.140 -20.380   7.421  0.00  0.00    +0.120 C 
ATOM     21  N   LIG    1       25.932 -20.472   6.168  0.00  0.00    -0.326 N 
ATOM     22  C   LIG    1       25.564 -21.637   5.336  0.00  0.00    +0.120 C 
ATOM     23  C   LIG    1       24.039 -21.684   5.094  0.00  0.00    +0.103 C 
BRANCH  21  24
ATOM     24  C   LIG    1       27.314 -20.226   6.358  0.00  0.00    +0.050 A 
ATOM     25  C   LIG    1       28.072 -20.928   7.333  0.00  0.00    +0.080 A 
ATOM     26 CL   LIG    1       27.289 -22.073   8.388  0.00  0.00    -0.080 Cl
ATOM     27  C   LIG    1       29.447 -20.664   7.496  0.00  0.00    +0.061 A 
ATOM     28 CL   LIG    1       30.429 -21.487   8.662  0.00  0.00    -0.082 Cl
ATOM     29  C   LIG    1       30.081 -19.701   6.708  0.00  0.00    +0.021 A 
ATOM     30  C   LIG    1       29.354 -18.997   5.758  0.00  0.00    +0.003 A 
ATOM     31  C   LIG    1       27.993 -19.261   5.586  0.00  0.00    +0.025 A 
ENDBRANCH  21  24
ENDBRANCH  17  18
ENDBRANCH   1  17
TORSDOF 7
ENDMDL
