MODEL 1
REMARK VINA RESULT:      -7.8      0.000      0.000
REMARK  Name = *****
REMARK                            x       y       z     vdW  Elec       q    Type
REMARK                         _______ _______ _______ _____ _____    ______ ____
ROOT
ATOM      1  C   LIG    1       24.500 -22.351   5.563  0.00  0.00    +0.065 C 
ATOM      2  C   LIG    1       25.316 -21.190   4.968  0.00  0.00    +0.102 C 
ATOM      3  C   LIG    1       24.382 -20.065   4.494  0.00  0.00    +0.065 C 
ATOM      4  C   LIG    1       23.140 -19.941   5.028  0.00  0.00    +0.016 C 
ATOM      5  C   LIG    1       22.117 -18.907   4.638  0.00  0.00    +0.061 C 
ATOM      6  N   LIG    1       22.711 -20.862   5.978  0.00  0.00    -0.321 N 
ATOM      7  H   LIG    1       21.730 -20.792   6.247  0.00  0.00    +0.152 HD
ATOM      8  C   LIG    1       23.271 -22.129   6.087  0.00  0.00    +0.016 C 
ATOM      9  C   LIG    1       22.430 -23.149   6.801  0.00  0.00    +0.061 C 
ENDROOT
BRANCH   2  10
ATOM     10  C   LIG    1       26.382 -20.681   5.959  0.00  0.00    +0.042 A 
ATOM     11  C   LIG    1       26.233 -20.657   7.363  0.00  0.00    +0.277 A 
ATOM     12  C   LIG    1       27.269 -20.222   8.214  0.00  0.00    +0.084 A 
ATOM     13  C   LIG    1       28.475 -19.781   7.676  0.00  0.00    +0.007 A 
ATOM     14  C   LIG    1       28.645 -19.770   6.298  0.00  0.00    +0.001 A 
ATOM     15  C   LIG    1       27.623 -20.222   5.457  0.00  0.00    +0.011 A 
BRANCH  11  16
ATOM     16  N   LIG    1       24.993 -21.040   8.031  0.00  0.00    +0.080 N 
ATOM     17  O   LIG    1       24.970 -22.143   8.595  0.00  0.00    -0.576 OA
ATOM     18  O   LIG    1       24.088 -20.196   8.081  0.00  0.00    +0.042 OA
ENDBRANCH  11  16
ENDBRANCH   2  10
BRANCH   1  19
ATOM     19  C   LIG    1       25.056 -23.721   5.414  0.00  0.00    +0.337 C 
ATOM     20  O   LIG    1       24.913 -24.424   4.437  0.00  0.00    -0.245 OA
BRANCH  19  22
ATOM     21  C   LIG    1       25.848 -25.348   6.930  0.00  0.00    +0.280 C 
ATOM     22  O   LIG    1       25.821 -23.987   6.492  0.00  0.00    -0.465 OA
ENDBRANCH  19  22
ENDBRANCH   1  19
BRANCH   3  23
ATOM     23  C   LIG    1       24.922 -19.235   3.386  0.00  0.00    +0.338 C 
ATOM     24  O   LIG    1       25.167 -19.675   2.277  0.00  0.00    -0.245 OA
BRANCH  23  25
ATOM     25  O   LIG    1       25.045 -17.946   3.759  0.00  0.00    -0.461 OA
BRANCH  25  26
ATOM     26  C   LIG    1       26.266 -17.255   3.475  0.00  0.00    +0.235 C 
BRANCH  26  27
ATOM     27  C   LIG    1       26.006 -15.762   3.214  0.00  0.00    +0.021 C 
ATOM     28  C   LIG    1       27.200 -14.903   3.631  0.00  0.00    +0.010 C 
ATOM     29  C   LIG    1       24.739 -15.269   3.918  0.00  0.00    +0.010 C 
ENDBRANCH  26  27
ENDBRANCH  25  26
ENDBRANCH  23  25
ENDBRANCH   3  23
TORSDOF 8
ENDMDL
MODEL 2
REMARK VINA RESULT:      -7.6      6.222      9.829
REMARK  Name = *****
REMARK                            x       y       z     vdW  Elec       q    Type
REMARK                         _______ _______ _______ _____ _____    ______ ____
ROOT
ATOM      1  C   LIG    1       25.654 -31.489   7.346  0.00  0.00    +0.065 C 
ATOM      2  C   LIG    1       25.673 -30.121   8.050  0.00  0.00    +0.102 C 
ATOM      3  C   LIG    1       25.229 -29.013   7.083  0.00  0.00    +0.065 C 
ATOM      4  C   LIG    1       24.456 -29.316   6.009  0.00  0.00    +0.016 C 
ATOM      5  C   LIG    1       23.974 -28.337   4.971  0.00  0.00    +0.061 C 
ATOM      6  N   LIG    1       24.104 -30.640   5.774  0.00  0.00    -0.321 N 
ATOM      7  H   LIG    1       23.632 -30.820   4.888  0.00  0.00    +0.152 HD
ATOM      8  C   LIG    1       24.838 -31.704   6.286  0.00  0.00    +0.016 C 
ATOM      9  C   LIG    1       24.639 -33.021   5.590  0.00  0.00    +0.061 C 
ENDROOT
BRANCH   2  10
ATOM     10  C   LIG    1       24.830 -30.138   9.342  0.00  0.00    +0.042 A 
ATOM     11  C   LIG    1       25.323 -29.839  10.631  0.00  0.00    +0.277 A 
ATOM     12  C   LIG    1       24.484 -29.827  11.763  0.00  0.00    +0.084 A 
ATOM     13  C   LIG    1       23.132 -30.135  11.633  0.00  0.00    +0.007 A 
ATOM     14  C   LIG    1       22.621 -30.456  10.383  0.00  0.00    +0.001 A 
ATOM     15  C   LIG    1       23.452 -30.446   9.257  0.00  0.00    +0.011 A 
BRANCH  11  16
ATOM     16  N   LIG    1       26.731 -29.561  10.892  0.00  0.00    +0.080 N 
ATOM     17  O   LIG    1       27.542 -30.465  10.649  0.00  0.00    -0.576 OA
ATOM     18  O   LIG    1       27.031 -28.409  11.236  0.00  0.00    +0.042 OA
ENDBRANCH  11  16
ENDBRANCH   2  10
BRANCH   1  19
ATOM     19  C   LIG    1       26.650 -32.498   7.788  0.00  0.00    +0.337 C 
ATOM     20  O   LIG    1       26.529 -33.212   8.760  0.00  0.00    -0.245 OA
BRANCH  19  22
ATOM     21  C   LIG    1       28.244 -33.825   6.661  0.00  0.00    +0.280 C 
ATOM     22  O   LIG    1       27.638 -32.547   6.872  0.00  0.00    -0.465 OA
ENDBRANCH  19  22
ENDBRANCH   1  19
BRANCH   3  23
ATOM     23  C   LIG    1       25.783 -27.667   7.384  0.00  0.00    +0.338 C 
ATOM     24  O   LIG    1       26.658 -27.471   8.209  0.00  0.00    -0.245 OA
BRANCH  23  25
ATOM     25  O   LIG    1       25.230 -26.726   6.594  0.00  0.00    -0.461 OA
BRANCH  25  26
ATOM     26  C   LIG    1       26.002 -25.571   6.245  0.00  0.00    +0.235 C 
BRANCH  26  27
ATOM     27  C   LIG    1       25.105 -24.329   6.111  0.00  0.00    +0.021 C 
ATOM     28  C   LIG    1       25.682 -23.135   6.872  0.00  0.00    +0.010 C 
ATOM     29  C   LIG    1       23.673 -24.603   6.580  0.00  0.00    +0.010 C 
ENDBRANCH  26  27
ENDBRANCH  25  26
ENDBRANCH  23  25
ENDBRANCH   3  23
TORSDOF 8
ENDMDL
MODEL 3
REMARK VINA RESULT:      -7.4      8.155     11.532
REMARK  Name = *****
REMARK                            x       y       z     vdW  Elec       q    Type
REMARK                         _______ _______ _______ _____ _____    ______ ____
ROOT
ATOM      1  C   LIG    1       25.995 -30.781  13.256  0.00  0.00    +0.065 C 
ATOM      2  C   LIG    1       25.789 -29.681  12.200  0.00  0.00    +0.102 C 
ATOM      3  C   LIG    1       25.590 -30.302  10.809  0.00  0.00    +0.065 C 
ATOM      4  C   LIG    1       25.141 -31.578  10.691  0.00  0.00    +0.016 C 
ATOM      5  C   LIG    1       24.929 -32.317   9.395  0.00  0.00    +0.061 C 
ATOM      6  N   LIG    1       24.901 -32.325  11.838  0.00  0.00    -0.321 N 
ATOM      7  H   LIG    1       24.689 -33.311  11.686  0.00  0.00    +0.152 HD
ATOM      8  C   LIG    1       25.499 -32.026  13.057  0.00  0.00    +0.016 C 
ATOM      9  C   LIG    1       25.530 -33.148  14.056  0.00  0.00    +0.061 C 
ENDROOT
BRANCH   2  10
ATOM     10  C   LIG    1       24.631 -28.737  12.586  0.00  0.00    +0.042 A 
ATOM     11  C   LIG    1       24.792 -27.445  13.134  0.00  0.00    +0.277 A 
ATOM     12  C   LIG    1       23.688 -26.616  13.419  0.00  0.00    +0.084 A 
ATOM     13  C   LIG    1       22.394 -27.071  13.180  0.00  0.00    +0.007 A 
ATOM     14  C   LIG    1       22.201 -28.345  12.664  0.00  0.00    +0.001 A 
ATOM     15  C   LIG    1       23.299 -29.158  12.362  0.00  0.00    +0.011 A 
BRANCH  11  16
ATOM     16  N   LIG    1       26.097 -26.891  13.479  0.00  0.00    +0.080 N 
ATOM     17  O   LIG    1       26.760 -26.388  12.562  0.00  0.00    -0.576 OA
ATOM     18  O   LIG    1       26.406 -26.866  14.678  0.00  0.00    +0.042 OA
ENDBRANCH  11  16
ENDBRANCH   2  10
BRANCH   1  19
ATOM     19  C   LIG    1       26.864 -30.457  14.417  0.00  0.00    +0.337 C 
ATOM     20  O   LIG    1       26.464 -30.087  15.500  0.00  0.00    -0.245 OA
BRANCH  19  22
ATOM     21  C   LIG    1       28.968 -29.640  13.725  0.00  0.00    +0.280 C 
ATOM     22  O   LIG    1       28.138 -30.748  14.086  0.00  0.00    -0.465 OA
ENDBRANCH  19  22
ENDBRANCH   1  19
BRANCH   3  23
ATOM     23  C   LIG    1       26.007 -29.435   9.676  0.00  0.00    +0.338 C 
ATOM     24  O   LIG    1       27.145 -29.028   9.527  0.00  0.00    -0.245 OA
BRANCH  23  25
ATOM     25  O   LIG    1       24.982 -29.215   8.830  0.00  0.00    -0.461 OA
BRANCH  25  26
ATOM     26  C   LIG    1       25.226 -29.251   7.419  0.00  0.00    +0.235 C 
BRANCH  26  27
ATOM     27  C   LIG    1       24.830 -27.921   6.757  0.00  0.00    +0.021 C 
ATOM     28  C   LIG    1       24.517 -28.105   5.272  0.00  0.00    +0.010 C 
ATOM     29  C   LIG    1       25.910 -26.850   6.932  0.00  0.00    +0.010 C 
ENDBRANCH  26  27
ENDBRANCH  25  26
ENDBRANCH  23  25
ENDBRANCH   3  23
TORSDOF 8
ENDMDL
MODEL 4
REMARK VINA RESULT:      -7.3      7.604     11.370
REMARK  Name = *****
REMARK                            x       y       z     vdW  Elec       q    Type
REMARK                         _______ _______ _______ _____ _____    ______ ____
ROOT
ATOM      1  C   LIG    1       23.993 -31.741   9.834  0.00  0.00    +0.065 C 
ATOM      2  C   LIG    1       24.880 -30.829   8.969  0.00  0.00    +0.102 C 
ATOM      3  C   LIG    1       25.852 -30.030   9.852  0.00  0.00    +0.065 C 
ATOM      4  C   LIG    1       26.190 -30.492  11.082  0.00  0.00    +0.016 C 
ATOM      5  C   LIG    1       27.105 -29.800  12.059  0.00  0.00    +0.061 C 
ATOM      6  N   LIG    1       25.621 -31.673  11.548  0.00  0.00    -0.321 N 
ATOM      7  H   LIG    1       25.815 -31.901  12.523  0.00  0.00    +0.152 HD
ATOM      8  C   LIG    1       24.421 -32.164  11.048  0.00  0.00    +0.016 C 
ATOM      9  C   LIG    1       23.706 -33.147  11.931  0.00  0.00    +0.061 C 
ENDROOT
BRANCH   2  10
ATOM     10  C   LIG    1       25.615 -31.628   7.873  0.00  0.00    +0.042 A 
ATOM     11  C   LIG    1       25.129 -31.836   6.563  0.00  0.00    +0.277 A 
ATOM     12  C   LIG    1       25.876 -32.537   5.596  0.00  0.00    +0.084 A 
ATOM     13  C   LIG    1       27.122 -33.065   5.924  0.00  0.00    +0.007 A 
ATOM     14  C   LIG    1       27.618 -32.897   7.210  0.00  0.00    +0.001 A 
ATOM     15  C   LIG    1       26.884 -32.183   8.162  0.00  0.00    +0.011 A 
BRANCH  11  16
ATOM     16  N   LIG    1       23.813 -31.380   6.129  0.00  0.00    +0.080 N 
ATOM     17  O   LIG    1       23.625 -30.156   6.079  0.00  0.00    -0.576 OA
ATOM     18  O   LIG    1       23.011 -32.240   5.738  0.00  0.00    +0.042 OA
ENDBRANCH  11  16
ENDBRANCH   2  10
BRANCH   1  19
ATOM     19  C   LIG    1       22.619 -32.018   9.344  0.00  0.00    +0.337 C 
ATOM     20  O   LIG    1       22.260 -33.060   8.839  0.00  0.00    -0.245 OA
BRANCH  19  22
ATOM     21  C   LIG    1       20.718 -31.234  10.504  0.00  0.00    +0.280 C 
ATOM     22  O   LIG    1       21.838 -30.964   9.657  0.00  0.00    -0.465 OA
ENDBRANCH  19  22
ENDBRANCH   1  19
BRANCH   3  23
ATOM     23  C   LIG    1       26.281 -28.726   9.282  0.00  0.00    +0.338 C 
ATOM     24  O   LIG    1       27.137 -28.023   9.788  0.00  0.00    -0.245 OA
BRANCH  23  25
ATOM     25  O   LIG    1       25.642 -28.468   8.124  0.00  0.00    -0.461 OA
BRANCH  25  26
ATOM     26  C   LIG    1       25.981 -27.284   7.393  0.00  0.00    +0.235 C 
BRANCH  26  27
ATOM     27  C   LIG    1       25.137 -27.166   6.113  0.00  0.00    +0.021 C 
ATOM     28  C   LIG    1       26.015 -27.140   4.862  0.00  0.00    +0.010 C 
ATOM     29  C   LIG    1       24.229 -25.933   6.137  0.00  0.00    +0.010 C 
ENDBRANCH  26  27
ENDBRANCH  25  26
ENDBRANCH  23  25
ENDBRANCH   3  23
TORSDOF 8
ENDMDL
MODEL 5
REMARK VINA RESULT:      -7.2      7.432     11.206
REMARK  Name = *****
REMARK                            x       y       z     vdW  Elec       q    Type
REMARK                         _______ _______ _______ _____ _____    ______ ____
ROOT
ATOM      1  C   LIG    1       24.733 -31.599  12.189  0.00  0.00    +0.065 C 
ATOM      2  C   LIG    1       25.230 -30.245  11.652  0.00  0.00    +0.102 C 
ATOM      3  C   LIG    1       25.200 -30.231  10.117  0.00  0.00    +0.065 C 
ATOM      4  C   LIG    1       24.369 -31.069   9.444  0.00  0.00    +0.016 C 
ATOM      5  C   LIG    1       24.259 -31.179   7.946  0.00  0.00    +0.061 C 
ATOM      6  N   LIG    1       23.577 -31.961  10.158  0.00  0.00    -0.321 N 
ATOM      7  H   LIG    1       23.071 -32.646   9.597  0.00  0.00    +0.152 HD
ATOM      8  C   LIG    1       23.893 -32.363  11.450  0.00  0.00    +0.016 C 
ATOM      9  C   LIG    1       23.246 -33.641  11.907  0.00  0.00    +0.061 C 
ENDROOT
BRANCH   2  10
ATOM     10  C   LIG    1       24.435 -29.070  12.260  0.00  0.00    +0.042 A 
ATOM     11  C   LIG    1       25.011 -27.903  12.806  0.00  0.00    +0.277 A 
ATOM     12  C   LIG    1       24.222 -26.846  13.301  0.00  0.00    +0.084 A 
ATOM     13  C   LIG    1       22.833 -26.942  13.279  0.00  0.00    +0.007 A 
ATOM     14  C   LIG    1       22.235 -28.087  12.770  0.00  0.00    +0.001 A 
ATOM     15  C   LIG    1       23.021 -29.126  12.259  0.00  0.00    +0.011 A 
BRANCH  11  16
ATOM     16  N   LIG    1       26.453 -27.720  12.933  0.00  0.00    +0.080 N 
ATOM     17  O   LIG    1       27.028 -28.357  13.827  0.00  0.00    -0.576 OA
ATOM     18  O   LIG    1       27.018 -27.027  12.077  0.00  0.00    +0.042 OA
ENDBRANCH  11  16
ENDBRANCH   2  10
BRANCH   1  19
ATOM     19  C   LIG    1       25.315 -32.081  13.468  0.00  0.00    +0.337 C 
ATOM     20  O   LIG    1       26.391 -32.630  13.576  0.00  0.00    -0.245 OA
BRANCH  19  22
ATOM     21  C   LIG    1       25.070 -30.856  15.471  0.00  0.00    +0.280 C 
ATOM     22  O   LIG    1       24.498 -31.706  14.472  0.00  0.00    -0.465 OA
ENDBRANCH  19  22
ENDBRANCH   1  19
BRANCH   3  23
ATOM     23  C   LIG    1       26.189 -29.320   9.483  0.00  0.00    +0.338 C 
ATOM     24  O   LIG    1       27.377 -29.329   9.754  0.00  0.00    -0.245 OA
BRANCH  23  25
ATOM     25  O   LIG    1       25.606 -28.542   8.551  0.00  0.00    -0.461 OA
BRANCH  25  26
ATOM     26  C   LIG    1       26.372 -27.495   7.943  0.00  0.00    +0.235 C 
BRANCH  26  27
ATOM     27  C   LIG    1       25.748 -27.063   6.606  0.00  0.00    +0.021 C 
ATOM     28  C   LIG    1       25.497 -25.555   6.565  0.00  0.00    +0.010 C 
ATOM     29  C   LIG    1       24.448 -27.816   6.309  0.00  0.00    +0.010 C 
ENDBRANCH  26  27
ENDBRANCH  25  26
ENDBRANCH  23  25
ENDBRANCH   3  23
TORSDOF 8
ENDMDL
MODEL 6
REMARK VINA RESULT:      -7.1      8.676     11.621
REMARK  Name = *****
REMARK                            x       y       z     vdW  Elec       q    Type
REMARK                         _______ _______ _______ _____ _____    ______ ____
ROOT
ATOM      1  C   LIG    1       24.969 -31.554   8.169  0.00  0.00    +0.065 C 
ATOM      2  C   LIG    1       25.365 -30.859   9.483  0.00  0.00    +0.102 C 
ATOM      3  C   LIG    1       25.905 -29.448   9.204  0.00  0.00    +0.065 C 
ATOM      4  C   LIG    1       25.556 -28.799   8.064  0.00  0.00    +0.016 C 
ATOM      5  C   LIG    1       26.032 -27.430   7.653  0.00  0.00    +0.061 C 
ATOM      6  N   LIG    1       24.738 -29.437   7.139  0.00  0.00    -0.321 N 
ATOM      7  H   LIG    1       24.614 -28.952   6.251  0.00  0.00    +0.152 HD
ATOM      8  C   LIG    1       24.621 -30.821   7.083  0.00  0.00    +0.016 C 
ATOM      9  C   LIG    1       24.103 -31.375   5.786  0.00  0.00    +0.061 C 
ENDROOT
BRANCH   2  10
ATOM     10  C   LIG    1       24.197 -30.845  10.491  0.00  0.00    +0.042 A 
ATOM     11  C   LIG    1       24.279 -31.292  11.828  0.00  0.00    +0.277 A 
ATOM     12  C   LIG    1       23.183 -31.205  12.709  0.00  0.00    +0.084 A 
ATOM     13  C   LIG    1       21.969 -30.687  12.265  0.00  0.00    +0.007 A 
ATOM     14  C   LIG    1       21.849 -30.260  10.949  0.00  0.00    +0.001 A 
ATOM     15  C   LIG    1       22.945 -30.327  10.082  0.00  0.00    +0.011 A 
BRANCH  11  16
ATOM     16  N   LIG    1       25.481 -31.906  12.382  0.00  0.00    +0.080 N 
ATOM     17  O   LIG    1       25.634 -33.121  12.195  0.00  0.00    -0.576 OA
ATOM     18  O   LIG    1       26.315 -31.156  12.907  0.00  0.00    +0.042 OA
ENDBRANCH  11  16
ENDBRANCH   2  10
BRANCH   1  19
ATOM     19  C   LIG    1       25.114 -33.031   8.108  0.00  0.00    +0.337 C 
ATOM     20  O   LIG    1       24.244 -33.825   8.396  0.00  0.00    -0.245 OA
BRANCH  19  22
ATOM     21  C   LIG    1       27.321 -33.771   8.500  0.00  0.00    +0.280 C 
ATOM     22  O   LIG    1       26.322 -33.316   7.583  0.00  0.00    -0.465 OA
ENDBRANCH  19  22
ENDBRANCH   1  19
BRANCH   3  23
ATOM     23  C   LIG    1       26.870 -28.940  10.215  0.00  0.00    +0.338 C 
ATOM     24  O   LIG    1       28.017 -29.339  10.306  0.00  0.00    -0.245 OA
BRANCH  23  25
ATOM     25  O   LIG    1       26.321 -27.961  10.960  0.00  0.00    -0.461 OA
BRANCH  25  26
ATOM     26  C   LIG    1       26.963 -27.577  12.182  0.00  0.00    +0.235 C 
BRANCH  26  27
ATOM     27  C   LIG    1       25.928 -27.143  13.234  0.00  0.00    +0.021 C 
ATOM     28  C   LIG    1       24.550 -27.740  12.947  0.00  0.00    +0.010 C 
ATOM     29  C   LIG    1       25.824 -25.619  13.341  0.00  0.00    +0.010 C 
ENDBRANCH  26  27
ENDBRANCH  25  26
ENDBRANCH  23  25
ENDBRANCH   3  23
TORSDOF 8
ENDMDL
MODEL 7
REMARK VINA RESULT:      -7.1      9.797     12.012
REMARK  Name = *****
REMARK                            x       y       z     vdW  Elec       q    Type
REMARK                         _______ _______ _______ _____ _____    ______ ____
ROOT
ATOM      1  C   LIG    1       23.770 -31.574  10.511  0.00  0.00    +0.065 C 
ATOM      2  C   LIG    1       24.949 -30.747   9.968  0.00  0.00    +0.102 C 
ATOM      3  C   LIG    1       25.852 -30.278  11.119  0.00  0.00    +0.065 C 
ATOM      4  C   LIG    1       25.863 -30.956  12.295  0.00  0.00    +0.016 C 
ATOM      5  C   LIG    1       26.675 -30.592  13.511  0.00  0.00    +0.061 C 
ATOM      6  N   LIG    1       25.024 -32.053  12.458  0.00  0.00    -0.321 N 
ATOM      7  H   LIG    1       24.984 -32.441  13.400  0.00  0.00    +0.152 HD
ATOM      8  C   LIG    1       23.878 -32.229  11.692  0.00  0.00    +0.016 C 
ATOM      9  C   LIG    1       22.849 -33.160  12.270  0.00  0.00    +0.061 C 
ENDROOT
BRANCH   2  10
ATOM     10  C   LIG    1       25.736 -31.523   8.892  0.00  0.00    +0.042 A 
ATOM     11  C   LIG    1       25.650 -31.286   7.502  0.00  0.00    +0.277 A 
ATOM     12  C   LIG    1       26.435 -32.002   6.577  0.00  0.00    +0.084 A 
ATOM     13  C   LIG    1       27.312 -32.988   7.020  0.00  0.00    +0.007 A 
ATOM     14  C   LIG    1       27.403 -33.261   8.378  0.00  0.00    +0.001 A 
ATOM     15  C   LIG    1       26.638 -32.534   9.297  0.00  0.00    +0.011 A 
BRANCH  11  16
ATOM     16  N   LIG    1       24.724 -30.319   6.922  0.00  0.00    +0.080 N 
ATOM     17  O   LIG    1       25.095 -29.139   6.870  0.00  0.00    -0.576 OA
ATOM     18  O   LIG    1       23.677 -30.759   6.427  0.00  0.00    +0.042 OA
ENDBRANCH  11  16
ENDBRANCH   2  10
BRANCH   1  19
ATOM     19  C   LIG    1       22.489 -31.508   9.762  0.00  0.00    +0.337 C 
ATOM     20  O   LIG    1       22.130 -32.315   8.932  0.00  0.00    -0.245 OA
BRANCH  19  22
ATOM     21  C   LIG    1       20.420 -30.757  10.615  0.00  0.00    +0.280 C 
ATOM     22  O   LIG    1       21.771 -30.473  10.241  0.00  0.00    -0.465 OA
ENDBRANCH  19  22
ENDBRANCH   1  19
BRANCH   3  23
ATOM     23  C   LIG    1       26.597 -29.020  10.852  0.00  0.00    +0.338 C 
ATOM     24  O   LIG    1       27.635 -28.979  10.216  0.00  0.00    -0.245 OA
BRANCH  23  25
ATOM     25  O   LIG    1       25.947 -27.953  11.356  0.00  0.00    -0.461 OA
BRANCH  25  26
ATOM     26  C   LIG    1       26.616 -27.117  12.307  0.00  0.00    +0.235 C 
BRANCH  26  27
ATOM     27  C   LIG    1       25.674 -26.729  13.459  0.00  0.00    +0.021 C 
ATOM     28  C   LIG    1       24.310 -27.405  13.320  0.00  0.00    +0.010 C 
ATOM     29  C   LIG    1       25.495 -25.212  13.566  0.00  0.00    +0.010 C 
ENDBRANCH  26  27
ENDBRANCH  25  26
ENDBRANCH  23  25
ENDBRANCH   3  23
TORSDOF 8
ENDMDL
MODEL 8
REMARK VINA RESULT:      -6.9      8.764     11.802
REMARK  Name = *****
REMARK                            x       y       z     vdW  Elec       q    Type
REMARK                         _______ _______ _______ _____ _____    ______ ____
ROOT
ATOM      1  C   LIG    1       24.819 -31.556  13.173  0.00  0.00    +0.065 C 
ATOM      2  C   LIG    1       25.237 -30.779  11.912  0.00  0.00    +0.102 C 
ATOM      3  C   LIG    1       24.160 -30.901  10.824  0.00  0.00    +0.065 C 
ATOM      4  C   LIG    1       22.876 -31.183  11.166  0.00  0.00    +0.016 C 
ATOM      5  C   LIG    1       21.730 -31.358  10.204  0.00  0.00    +0.061 C 
ATOM      6  N   LIG    1       22.557 -31.396  12.503  0.00  0.00    -0.321 N 
ATOM      7  H   LIG    1       21.610 -31.727  12.682  0.00  0.00    +0.152 HD
ATOM      8  C   LIG    1       23.510 -31.779  13.440  0.00  0.00    +0.016 C 
ATOM      9  C   LIG    1       22.970 -32.415  14.689  0.00  0.00    +0.061 C 
ENDROOT
BRANCH   2  10
ATOM     10  C   LIG    1       25.571 -29.309  12.238  0.00  0.00    +0.042 A 
ATOM     11  C   LIG    1       26.773 -28.657  11.887  0.00  0.00    +0.277 A 
ATOM     12  C   LIG    1       26.992 -27.295  12.175  0.00  0.00    +0.084 A 
ATOM     13  C   LIG    1       26.017 -26.557  12.840  0.00  0.00    +0.007 A 
ATOM     14  C   LIG    1       24.832 -27.174  13.218  0.00  0.00    +0.001 A 
ATOM     15  C   LIG    1       24.609 -28.521  12.913  0.00  0.00    +0.011 A 
BRANCH  11  16
ATOM     16  N   LIG    1       27.885 -29.348  11.242  0.00  0.00    +0.080 N 
ATOM     17  O   LIG    1       28.762 -29.821  11.978  0.00  0.00    -0.576 OA
ATOM     18  O   LIG    1       27.824 -29.506  10.015  0.00  0.00    +0.042 OA
ENDBRANCH  11  16
ENDBRANCH   2  10
BRANCH   1  19
ATOM     19  C   LIG    1       25.902 -32.154  13.995  0.00  0.00    +0.337 C 
ATOM     20  O   LIG    1       26.438 -33.217  13.767  0.00  0.00    -0.245 OA
BRANCH  19  22
ATOM     21  C   LIG    1       27.632 -30.932  15.038  0.00  0.00    +0.280 C 
ATOM     22  O   LIG    1       26.245 -31.270  14.953  0.00  0.00    -0.465 OA
ENDBRANCH  19  22
ENDBRANCH   1  19
BRANCH   3  23
ATOM     23  C   LIG    1       24.664 -30.777   9.432  0.00  0.00    +0.338 C 
ATOM     24  O   LIG    1       25.179 -31.696   8.821  0.00  0.00    -0.245 OA
BRANCH  23  25
ATOM     25  O   LIG    1       24.427 -29.546   8.937  0.00  0.00    -0.461 OA
BRANCH  25  26
ATOM     26  C   LIG    1       25.268 -29.043   7.893  0.00  0.00    +0.235 C 
BRANCH  26  27
ATOM     27  C   LIG    1       24.505 -28.968   6.560  0.00  0.00    +0.021 C 
ATOM     28  C   LIG    1       25.163 -29.835   5.486  0.00  0.00    +0.010 C 
ATOM     29  C   LIG    1       24.371 -27.528   6.056  0.00  0.00    +0.010 C 
ENDBRANCH  26  27
ENDBRANCH  25  26
ENDBRANCH  23  25
ENDBRANCH   3  23
TORSDOF 8
ENDMDL
MODEL 9
REMARK VINA RESULT:      -6.9      6.649     10.577
REMARK  Name = *****
REMARK                            x       y       z     vdW  Elec       q    Type
REMARK                         _______ _______ _______ _____ _____    ______ ____
ROOT
ATOM      1  C   LIG    1       24.340 -30.468   9.401  0.00  0.00    +0.065 C 
ATOM      2  C   LIG    1       24.533 -30.426   7.875  0.00  0.00    +0.102 C 
ATOM      3  C   LIG    1       25.191 -29.104   7.453  0.00  0.00    +0.065 C 
ATOM      4  C   LIG    1       25.934 -28.398   8.344  0.00  0.00    +0.016 C 
ATOM      5  C   LIG    1       26.608 -27.078   8.073  0.00  0.00    +0.061 C 
ATOM      6  N   LIG    1       26.060 -28.865   9.647  0.00  0.00    -0.321 N 
ATOM      7  H   LIG    1       26.522 -28.231  10.299  0.00  0.00    +0.152 HD
ATOM      8  C   LIG    1       25.139 -29.737  10.214  0.00  0.00    +0.016 C 
ATOM      9  C   LIG    1       25.131 -29.783  11.716  0.00  0.00    +0.061 C 
ENDROOT
BRANCH   2  10
ATOM     10  C   LIG    1       25.320 -31.653   7.370  0.00  0.00    +0.042 A 
ATOM     11  C   LIG    1       24.773 -32.702   6.600  0.00  0.00    +0.277 A 
ATOM     12  C   LIG    1       25.562 -33.771   6.132  0.00  0.00    +0.084 A 
ATOM     13  C   LIG    1       26.919 -33.825   6.441  0.00  0.00    +0.007 A 
ATOM     14  C   LIG    1       27.483 -32.821   7.216  0.00  0.00    +0.001 A 
ATOM     15  C   LIG    1       26.702 -31.750   7.662  0.00  0.00    +0.011 A 
BRANCH  11  16
ATOM     16  N   LIG    1       23.354 -32.779   6.267  0.00  0.00    +0.080 N 
ATOM     17  O   LIG    1       22.670 -33.603   6.890  0.00  0.00    -0.576 OA
ATOM     18  O   LIG    1       22.911 -31.946   5.464  0.00  0.00    +0.042 OA
ENDBRANCH  11  16
ENDBRANCH   2  10
BRANCH   1  19
ATOM     19  C   LIG    1       23.172 -31.225   9.919  0.00  0.00    +0.337 C 
ATOM     20  O   LIG    1       22.062 -30.763  10.079  0.00  0.00    -0.245 OA
BRANCH  19  22
ATOM     21  C   LIG    1       22.526 -33.407  10.548  0.00  0.00    +0.280 C 
ATOM     22  O   LIG    1       23.536 -32.514  10.071  0.00  0.00    -0.465 OA
ENDBRANCH  19  22
ENDBRANCH   1  19
BRANCH   3  23
ATOM     23  C   LIG    1       24.867 -28.661   6.071  0.00  0.00    +0.338 C 
ATOM     24  O   LIG    1       25.286 -29.219   5.073  0.00  0.00    -0.245 OA
BRANCH  23  25
ATOM     25  O   LIG    1       24.020 -27.613   6.083  0.00  0.00    -0.461 OA
BRANCH  25  26
ATOM     26  C   LIG    1       24.411 -26.397   5.434  0.00  0.00    +0.235 C 
BRANCH  26  27
ATOM     27  C   LIG    1       24.483 -25.236   6.439  0.00  0.00    +0.021 C 
ATOM     28  C   LIG    1       23.170 -24.456   6.492  0.00  0.00    +0.010 C 
ATOM     29  C   LIG    1       25.642 -24.283   6.132  0.00  0.00    +0.010 C 
ENDBRANCH  26  27
ENDBRANCH  25  26
ENDBRANCH  23  25
ENDBRANCH   3  23
TORSDOF 8
ENDMDL
