MODEL 1
REMARK VINA RESULT:      -5.7      0.000      0.000
REMARK  Name = *****
REMARK                            x       y       z     vdW  Elec       q    Type
REMARK                         _______ _______ _______ _____ _____    ______ ____
ROOT
ATOM      1  C   LIG    1       23.685 -31.288  12.600  0.00  0.00    +0.012 C 
ATOM      2  C   LIG    1       23.686 -30.352  11.640  0.00  0.00    -0.050 C 
ATOM      3  C   LIG    1       24.805 -29.416  11.454  0.00  0.00    -0.031 C 
ATOM      4  C   LIG    1       25.519 -29.615  10.104  0.00  0.00    +0.015 C 
ATOM      5  C   LIG    1       26.203 -30.982  10.255  0.00  0.00    +0.021 C 
ATOM      6  C   LIG    1       26.602 -28.546   9.922  0.00  0.00    -0.012 C 
ATOM      7  C   LIG    1       27.390 -28.292  10.987  0.00  0.00    +0.047 C 
ATOM      8  C   LIG    1       26.503 -27.738  12.061  0.00  0.00    +0.179 C 
ATOM      9  O   LIG    1       26.842 -26.741  12.717  0.00  0.00    -0.288 OA
ATOM     10  C   LIG    1       24.407 -29.460   9.003  0.00  0.00    +0.007 C 
ATOM     11  C   LIG    1       23.263 -30.492   9.128  0.00  0.00    +0.002 C 
ATOM     12  C   LIG    1       23.485 -31.858   8.381  0.00  0.00    +0.006 C 
ATOM     13  C   LIG    1       24.631 -31.902   7.314  0.00  0.00    +0.029 C 
ATOM     14  C   LIG    1       24.004 -32.311   5.974  0.00  0.00    +0.019 C 
ATOM     15  C   LIG    1       25.489 -30.643   7.081  0.00  0.00    +0.015 C 
ATOM     16  C   LIG    1       25.545 -33.012   7.846  0.00  0.00    +0.140 C 
ATOM     17  O   LIG    1       26.692 -33.207   7.455  0.00  0.00    -0.297 OA
ATOM     18  C   LIG    1       24.925 -33.825   8.950  0.00  0.00    +0.075 C 
ATOM     19  C   LIG    1       23.504 -33.278   9.005  0.00  0.00    +0.012 C 
ATOM     20  C   LIG    1       24.836 -29.372   7.543  0.00  0.00    +0.006 C 
ATOM     21  C   LIG    1       25.247 -28.504  12.349  0.00  0.00    +0.055 C 
ATOM     22  C   LIG    1       22.651 -30.389  10.540  0.00  0.00    +0.039 C 
ENDROOT
TORSDOF 0
ENDMDL
MODEL 2
REMARK VINA RESULT:      -5.6      3.657      5.218
REMARK  Name = *****
REMARK                            x       y       z     vdW  Elec       q    Type
REMARK                         _______ _______ _______ _____ _____    ______ ____
ROOT
ATOM      1  C   LIG    1       21.689 -26.325  15.201  0.00  0.00    +0.012 C 
ATOM      2  C   LIG    1       22.131 -26.655  13.979  0.00  0.00    -0.050 C 
ATOM      3  C   LIG    1       23.560 -26.646  13.630  0.00  0.00    -0.031 C 
ATOM      4  C   LIG    1       24.091 -28.051  13.293  0.00  0.00    +0.015 C 
ATOM      5  C   LIG    1       24.045 -28.788  14.640  0.00  0.00    +0.021 C 
ATOM      6  C   LIG    1       25.550 -27.964  12.835  0.00  0.00    -0.012 C 
ATOM      7  C   LIG    1       26.368 -27.170  13.559  0.00  0.00    +0.047 C 
ATOM      8  C   LIG    1       25.852 -25.770  13.414  0.00  0.00    +0.179 C 
ATOM      9  O   LIG    1       26.625 -24.825  13.191  0.00  0.00    -0.288 OA
ATOM     10  C   LIG    1       23.183 -28.585  12.125  0.00  0.00    +0.007 C 
ATOM     11  C   LIG    1       21.687 -28.686  12.500  0.00  0.00    +0.002 C 
ATOM     12  C   LIG    1       21.233 -30.039  13.159  0.00  0.00    +0.006 C 
ATOM     13  C   LIG    1       22.218 -31.250  13.038  0.00  0.00    +0.029 C 
ATOM     14  C   LIG    1       21.470 -32.391  12.336  0.00  0.00    +0.019 C 
ATOM     15  C   LIG    1       23.570 -31.050  12.326  0.00  0.00    +0.015 C 
ATOM     16  C   LIG    1       22.498 -31.606  14.503  0.00  0.00    +0.140 C 
ATOM     17  O   LIG    1       23.414 -32.334  14.872  0.00  0.00    -0.297 OA
ATOM     18  C   LIG    1       21.569 -30.931  15.474  0.00  0.00    +0.075 C 
ATOM     19  C   LIG    1       20.577 -30.232  14.553  0.00  0.00    +0.012 C 
ATOM     20  C   LIG    1       23.599 -29.863  11.406  0.00  0.00    +0.006 C 
ATOM     21  C   LIG    1       24.383 -25.574  13.643  0.00  0.00    +0.055 C 
ATOM     22  C   LIG    1       21.200 -27.303  12.981  0.00  0.00    +0.039 C 
ENDROOT
TORSDOF 0
ENDMDL
MODEL 3
REMARK VINA RESULT:      -5.6      2.255      4.964
REMARK  Name = *****
REMARK                            x       y       z     vdW  Elec       q    Type
REMARK                         _______ _______ _______ _____ _____    ______ ____
ROOT
ATOM      1  C   LIG    1       24.515 -32.463   6.368  0.00  0.00    +0.012 C 
ATOM      2  C   LIG    1       25.491 -31.661   6.815  0.00  0.00    -0.050 C 
ATOM      3  C   LIG    1       25.487 -30.209   6.577  0.00  0.00    -0.031 C 
ATOM      4  C   LIG    1       25.363 -29.401   7.882  0.00  0.00    +0.015 C 
ATOM      5  C   LIG    1       23.933 -29.700   8.358  0.00  0.00    +0.021 C 
ATOM      6  C   LIG    1       25.473 -27.902   7.582  0.00  0.00    -0.012 C 
ATOM      7  C   LIG    1       24.777 -27.442   6.521  0.00  0.00    +0.047 C 
ATOM      8  C   LIG    1       25.352 -28.104   5.305  0.00  0.00    +0.179 C 
ATOM      9  O   LIG    1       25.595 -27.452   4.278  0.00  0.00    -0.288 OA
ATOM     10  C   LIG    1       26.559 -29.865   8.791  0.00  0.00    +0.007 C 
ATOM     11  C   LIG    1       26.533 -31.374   9.126  0.00  0.00    +0.002 C 
ATOM     12  C   LIG    1       25.710 -31.781  10.401  0.00  0.00    +0.006 C 
ATOM     13  C   LIG    1       25.319 -30.629  11.388  0.00  0.00    +0.029 C 
ATOM     14  C   LIG    1       25.900 -30.977  12.765  0.00  0.00    +0.019 C 
ATOM     15  C   LIG    1       25.720 -29.181  11.047  0.00  0.00    +0.015 C 
ATOM     16  C   LIG    1       23.788 -30.709  11.410  0.00  0.00    +0.140 C 
ATOM     17  O   LIG    1       23.059 -29.828  11.857  0.00  0.00    -0.297 OA
ATOM     18  C   LIG    1       23.241 -31.957  10.775  0.00  0.00    +0.075 C 
ATOM     19  C   LIG    1       24.503 -32.754  10.471  0.00  0.00    +0.012 C 
ATOM     20  C   LIG    1       26.852 -29.082  10.065  0.00  0.00    +0.006 C 
ATOM     21  C   LIG    1       25.525 -29.592   5.375  0.00  0.00    +0.055 C 
ATOM     22  C   LIG    1       26.506 -32.176   7.808  0.00  0.00    +0.039 C 
ENDROOT
TORSDOF 0
ENDMDL
MODEL 4
REMARK VINA RESULT:      -5.5      8.768     11.043
REMARK  Name = *****
REMARK                            x       y       z     vdW  Elec       q    Type
REMARK                         _______ _______ _______ _____ _____    ______ ____
ROOT
ATOM      1  C   LIG    1       22.116 -23.254   6.753  0.00  0.00    +0.012 C 
ATOM      2  C   LIG    1       22.866 -22.737   5.770  0.00  0.00    -0.050 C 
ATOM      3  C   LIG    1       22.645 -21.383   5.241  0.00  0.00    -0.031 C 
ATOM      4  C   LIG    1       23.835 -20.444   5.512  0.00  0.00    +0.015 C 
ATOM      5  C   LIG    1       23.804 -20.254   7.037  0.00  0.00    +0.021 C 
ATOM      6  C   LIG    1       23.593 -19.086   4.847  0.00  0.00    -0.012 C 
ATOM      7  C   LIG    1       22.362 -18.551   4.986  0.00  0.00    +0.047 C 
ATOM      8  C   LIG    1       21.407 -19.476   4.294  0.00  0.00    +0.179 C 
ATOM      9  O   LIG    1       20.522 -19.034   3.544  0.00  0.00    -0.288 OA
ATOM     10  C   LIG    1       25.091 -21.147   4.879  0.00  0.00    +0.007 C 
ATOM     11  C   LIG    1       25.393 -22.538   5.484  0.00  0.00    +0.002 C 
ATOM     12  C   LIG    1       26.319 -22.548   6.754  0.00  0.00    +0.006 C 
ATOM     13  C   LIG    1       27.121 -21.236   7.055  0.00  0.00    +0.029 C 
ATOM     14  C   LIG    1       28.612 -21.598   7.084  0.00  0.00    +0.019 C 
ATOM     15  C   LIG    1       26.938 -20.016   6.132  0.00  0.00    +0.015 C 
ATOM     16  C   LIG    1       26.629 -20.854   8.456  0.00  0.00    +0.140 C 
ATOM     17  O   LIG    1       26.809 -19.755   8.973  0.00  0.00    -0.297 OA
ATOM     18  C   LIG    1       25.844 -21.941   9.136  0.00  0.00    +0.075 C 
ATOM     19  C   LIG    1       25.977 -23.105   8.162  0.00  0.00    +0.012 C 
ATOM     20  C   LIG    1       26.391 -20.360   4.776  0.00  0.00    +0.006 C 
ATOM     21  C   LIG    1       21.526 -20.931   4.630  0.00  0.00    +0.055 C 
ATOM     22  C   LIG    1       24.140 -23.426   5.341  0.00  0.00    +0.039 C 
ENDROOT
TORSDOF 0
ENDMDL
MODEL 5
REMARK VINA RESULT:      -5.4      2.990      4.217
REMARK  Name = *****
REMARK                            x       y       z     vdW  Elec       q    Type
REMARK                         _______ _______ _______ _____ _____    ______ ____
ROOT
ATOM      1  C   LIG    1       21.979 -28.074  14.852  0.00  0.00    +0.012 C 
ATOM      2  C   LIG    1       22.575 -27.927  13.660  0.00  0.00    -0.050 C 
ATOM      3  C   LIG    1       23.800 -27.132  13.485  0.00  0.00    -0.031 C 
ATOM      4  C   LIG    1       25.000 -27.991  13.046  0.00  0.00    +0.015 C 
ATOM      5  C   LIG    1       25.295 -28.856  14.280  0.00  0.00    +0.021 C 
ATOM      6  C   LIG    1       26.214 -27.097  12.776  0.00  0.00    -0.012 C 
ATOM      7  C   LIG    1       26.467 -26.127  13.681  0.00  0.00    +0.047 C 
ATOM      8  C   LIG    1       25.301 -25.186  13.646  0.00  0.00    +0.179 C 
ATOM      9  O   LIG    1       25.474 -23.957  13.630  0.00  0.00    -0.288 OA
ATOM     10  C   LIG    1       24.550 -28.715  11.724  0.00  0.00    +0.007 C 
ATOM     11  C   LIG    1       23.314 -29.625  11.906  0.00  0.00    +0.002 C 
ATOM     12  C   LIG    1       23.610 -31.107  12.341  0.00  0.00    +0.006 C 
ATOM     13  C   LIG    1       25.087 -31.605  12.191  0.00  0.00    +0.029 C 
ATOM     14  C   LIG    1       25.073 -32.836  11.274  0.00  0.00    +0.019 C 
ATOM     15  C   LIG    1       26.160 -30.629  11.672  0.00  0.00    +0.015 C 
ATOM     16  C   LIG    1       25.456 -32.003  13.626  0.00  0.00    +0.140 C 
ATOM     17  O   LIG    1       26.604 -32.210  14.009  0.00  0.00    -0.297 OA
ATOM     18  C   LIG    1       24.276 -32.066  14.555  0.00  0.00    +0.075 C 
ATOM     19  C   LIG    1       23.101 -31.833  13.614  0.00  0.00    +0.012 C 
ATOM     20  C   LIG    1       25.599 -29.463  10.911  0.00  0.00    +0.006 C 
ATOM     21  C   LIG    1       23.940 -25.808  13.722  0.00  0.00    +0.055 C 
ATOM     22  C   LIG    1       22.158 -28.786  12.489  0.00  0.00    +0.039 C 
ENDROOT
TORSDOF 0
ENDMDL
MODEL 6
REMARK VINA RESULT:      -5.1      1.708      5.364
REMARK  Name = *****
REMARK                            x       y       z     vdW  Elec       q    Type
REMARK                         _______ _______ _______ _____ _____    ______ ____
ROOT
ATOM      1  C   LIG    1       25.380 -28.698   7.681  0.00  0.00    +0.012 C 
ATOM      2  C   LIG    1       24.887 -29.923   7.909  0.00  0.00    -0.050 C 
ATOM      3  C   LIG    1       25.656 -31.146   7.631  0.00  0.00    -0.031 C 
ATOM      4  C   LIG    1       25.975 -31.942   8.909  0.00  0.00    +0.015 C 
ATOM      5  C   LIG    1       26.970 -31.042   9.658  0.00  0.00    +0.021 C 
ATOM      6  C   LIG    1       26.681 -33.253   8.548  0.00  0.00    -0.012 C 
ATOM      7  C   LIG    1       27.662 -33.180   7.624  0.00  0.00    +0.047 C 
ATOM      8  C   LIG    1       27.021 -32.741   6.343  0.00  0.00    +0.179 C 
ATOM      9  O   LIG    1       27.295 -33.298   5.269  0.00  0.00    -0.288 OA
ATOM     10  C   LIG    1       24.588 -32.238   9.589  0.00  0.00    +0.007 C 
ATOM     11  C   LIG    1       23.800 -30.964   9.969  0.00  0.00    +0.002 C 
ATOM     12  C   LIG    1       24.105 -30.365  11.390  0.00  0.00    +0.006 C 
ATOM     13  C   LIG    1       24.872 -31.289  12.396  0.00  0.00    +0.029 C 
ATOM     14  C   LIG    1       23.997 -31.441  13.649  0.00  0.00    +0.019 C 
ATOM     15  C   LIG    1       25.311 -32.694  11.941  0.00  0.00    +0.015 C 
ATOM     16  C   LIG    1       26.132 -30.473  12.712  0.00  0.00    +0.140 C 
ATOM     17  O   LIG    1       27.129 -30.931  13.262  0.00  0.00    -0.297 OA
ATOM     18  C   LIG    1       26.063 -29.050  12.232  0.00  0.00    +0.075 C 
ATOM     19  C   LIG    1       24.632 -28.943  11.718  0.00  0.00    +0.012 C 
ATOM     20  C   LIG    1       24.544 -33.213  10.759  0.00  0.00    +0.006 C 
ATOM     21  C   LIG    1       26.114 -31.550   6.425  0.00  0.00    +0.055 C 
ATOM     22  C   LIG    1       23.616 -30.097   8.706  0.00  0.00    +0.039 C 
ENDROOT
TORSDOF 0
ENDMDL
MODEL 7
REMARK VINA RESULT:      -5.0      2.372      5.355
REMARK  Name = *****
REMARK                            x       y       z     vdW  Elec       q    Type
REMARK                         _______ _______ _______ _____ _____    ______ ____
ROOT
ATOM      1  C   LIG    1       28.091 -29.297  11.368  0.00  0.00    +0.012 C 
ATOM      2  C   LIG    1       26.857 -28.780  11.294  0.00  0.00    -0.050 C 
ATOM      3  C   LIG    1       25.933 -29.103  10.196  0.00  0.00    -0.031 C 
ATOM      4  C   LIG    1       24.686 -29.862  10.682  0.00  0.00    +0.015 C 
ATOM      5  C   LIG    1       25.239 -31.229  11.112  0.00  0.00    +0.021 C 
ATOM      6  C   LIG    1       23.714 -30.075   9.516  0.00  0.00    -0.012 C 
ATOM      7  C   LIG    1       24.249 -30.484   8.346  0.00  0.00    +0.047 C 
ATOM      8  C   LIG    1       25.154 -29.386   7.876  0.00  0.00    +0.179 C 
ATOM      9  O   LIG    1       25.139 -29.009   6.694  0.00  0.00    -0.288 OA
ATOM     10  C   LIG    1       24.028 -28.950  11.781  0.00  0.00    +0.007 C 
ATOM     11  C   LIG    1       24.953 -28.670  12.988  0.00  0.00    +0.002 C 
ATOM     12  C   LIG    1       24.896 -29.720  14.157  0.00  0.00    +0.006 C 
ATOM     13  C   LIG    1       23.683 -30.711  14.157  0.00  0.00    +0.029 C 
ATOM     14  C   LIG    1       22.942 -30.540  15.491  0.00  0.00    +0.019 C 
ATOM     15  C   LIG    1       22.649 -30.633  13.017  0.00  0.00    +0.015 C 
ATOM     16  C   LIG    1       24.367 -32.082  14.090  0.00  0.00    +0.140 C 
ATOM     17  O   LIG    1       23.787 -33.128  13.816  0.00  0.00    -0.297 OA
ATOM     18  C   LIG    1       25.849 -32.028  14.338  0.00  0.00    +0.075 C 
ATOM     19  C   LIG    1       26.068 -30.568  14.717  0.00  0.00    +0.012 C 
ATOM     20  C   LIG    1       22.642 -29.316  12.296  0.00  0.00    +0.006 C 
ATOM     21  C   LIG    1       26.125 -28.845   8.882  0.00  0.00    +0.055 C 
ATOM     22  C   LIG    1       26.267 -28.045  12.474  0.00  0.00    +0.039 C 
ENDROOT
TORSDOF 0
ENDMDL
MODEL 8
REMARK VINA RESULT:      -4.9      1.769      3.588
REMARK  Name = *****
REMARK                            x       y       z     vdW  Elec       q    Type
REMARK                         _______ _______ _______ _____ _____    ______ ____
ROOT
ATOM      1  C   LIG    1       26.566 -28.209   9.670  0.00  0.00    +0.012 C 
ATOM      2  C   LIG    1       26.298 -29.420  10.178  0.00  0.00    -0.050 C 
ATOM      3  C   LIG    1       25.064 -29.705  10.925  0.00  0.00    -0.031 C 
ATOM      4  C   LIG    1       24.164 -30.725  10.205  0.00  0.00    +0.015 C 
ATOM      5  C   LIG    1       23.675 -29.963   8.963  0.00  0.00    +0.021 C 
ATOM      6  C   LIG    1       22.951 -31.062  11.077  0.00  0.00    -0.012 C 
ATOM      7  C   LIG    1       22.326 -30.026  11.676  0.00  0.00    +0.047 C 
ATOM      8  C   LIG    1       23.310 -29.419  12.630  0.00  0.00    +0.179 C 
ATOM      9  O   LIG    1       22.972 -29.111  13.784  0.00  0.00    -0.288 OA
ATOM     10  C   LIG    1       25.052 -32.005   9.986  0.00  0.00    +0.007 C 
ATOM     11  C   LIG    1       26.311 -31.745   9.128  0.00  0.00    +0.002 C 
ATOM     12  C   LIG    1       26.127 -31.893   7.574  0.00  0.00    +0.006 C 
ATOM     13  C   LIG    1       24.832 -32.626   7.083  0.00  0.00    +0.029 C 
ATOM     14  C   LIG    1       25.270 -33.825   6.231  0.00  0.00    +0.019 C 
ATOM     15  C   LIG    1       23.809 -33.121   8.123  0.00  0.00    +0.015 C 
ATOM     16  C   LIG    1       24.152 -31.562   6.212  0.00  0.00    +0.140 C 
ATOM     17  O   LIG    1       22.986 -31.624   5.834  0.00  0.00    -0.297 OA
ATOM     18  C   LIG    1       25.036 -30.386   5.899  0.00  0.00    +0.075 C 
ATOM     19  C   LIG    1       26.374 -30.810   6.490  0.00  0.00    +0.012 C 
ATOM     20  C   LIG    1       24.380 -33.283   9.503  0.00  0.00    +0.006 C 
ATOM     21  C   LIG    1       24.676 -29.129  12.085  0.00  0.00    +0.055 C 
ATOM     22  C   LIG    1       27.134 -30.614   9.780  0.00  0.00    +0.039 C 
ENDROOT
TORSDOF 0
ENDMDL
MODEL 9
REMARK VINA RESULT:      -4.9      1.656      5.210
REMARK  Name = *****
REMARK                            x       y       z     vdW  Elec       q    Type
REMARK                         _______ _______ _______ _____ _____    ______ ____
ROOT
ATOM      1  C   LIG    1       23.263 -33.502   9.049  0.00  0.00    +0.012 C 
ATOM      2  C   LIG    1       24.413 -32.825   9.174  0.00  0.00    -0.050 C 
ATOM      3  C   LIG    1       24.766 -31.703   8.291  0.00  0.00    -0.031 C 
ATOM      4  C   LIG    1       24.864 -30.367   9.050  0.00  0.00    +0.015 C 
ATOM      5  C   LIG    1       23.411 -30.075   9.456  0.00  0.00    +0.021 C 
ATOM      6  C   LIG    1       25.337 -29.260   8.104  0.00  0.00    -0.012 C 
ATOM      7  C   LIG    1       24.763 -29.217   6.883  0.00  0.00    +0.047 C 
ATOM      8  C   LIG    1       25.140 -30.487   6.182  0.00  0.00    +0.179 C 
ATOM      9  O   LIG    1       25.524 -30.475   5.002  0.00  0.00    -0.288 OA
ATOM     10  C   LIG    1       25.920 -30.598  10.193  0.00  0.00    +0.007 C 
ATOM     11  C   LIG    1       25.525 -31.716  11.184  0.00  0.00    +0.002 C 
ATOM     12  C   LIG    1       24.644 -31.271  12.408  0.00  0.00    +0.006 C 
ATOM     13  C   LIG    1       24.564 -29.734  12.699  0.00  0.00    +0.029 C 
ATOM     14  C   LIG    1       25.058 -29.506  14.134  0.00  0.00    +0.019 C 
ATOM     15  C   LIG    1       25.306 -28.754  11.771  0.00  0.00    +0.015 C 
ATOM     16  C   LIG    1       23.061 -29.448  12.592  0.00  0.00    +0.140 C 
ATOM     17  O   LIG    1       22.579 -28.323  12.500  0.00  0.00    -0.297 OA
ATOM     18  C   LIG    1       22.213 -30.690  12.555  0.00  0.00    +0.075 C 
ATOM     19  C   LIG    1       23.234 -31.796  12.791  0.00  0.00    +0.012 C 
ATOM     20  C   LIG    1       26.414 -29.391  10.981  0.00  0.00    +0.006 C 
ATOM     21  C   LIG    1       24.940 -31.758   6.952  0.00  0.00    +0.055 C 
ATOM     22  C   LIG    1       25.282 -33.019  10.395  0.00  0.00    +0.039 C 
ENDROOT
TORSDOF 0
ENDMDL
