MODEL 1
REMARK VINA RESULT:      -4.8      0.000      0.000
REMARK  Name = *****
REMARK                            x       y       z     vdW  Elec       q    Type
REMARK                         _______ _______ _______ _____ _____    ______ ____
ROOT
ATOM      1  C   LIG    1       26.375 -21.006   6.228  0.00  0.00    +0.195 C 
ATOM      2  N   LIG    1       25.171 -21.504   6.686  0.00  0.00    -0.293 N 
ATOM      3  H   LIG    1       25.154 -22.250   7.363  0.00  0.00    +0.172 HD
ATOM      4  C   LIG    1       23.931 -21.094   6.226  0.00  0.00    +0.280 C 
ATOM      5  O   LIG    1       22.879 -21.569   6.684  0.00  0.00    -0.265 OA
ATOM      6  C   LIG    1       24.022 -20.089   5.194  0.00  0.00    +0.172 A 
ATOM      7  N   LIG    1       23.053 -19.496   4.424  0.00  0.00    -0.229 NA
ATOM      8  C   LIG    1       23.718 -18.681   3.630  0.00  0.00    +0.203 A 
ATOM      9  N   LIG    1       25.062 -18.685   3.899  0.00  0.00    -0.291 N 
ATOM     10  C   LIG    1       25.282 -19.638   4.859  0.00  0.00    +0.171 A 
ATOM     11  N   LIG    1       26.475 -20.054   5.340  0.00  0.00    -0.196 NA
ENDROOT
BRANCH   1  12
ATOM     12  N   LIG    1       27.493 -21.567   6.752  0.00  0.00    -0.329 N 
ATOM     13  H   LIG    1       28.082 -22.109   6.135  0.00  0.00    +0.145 HD
ATOM     14  H   LIG    1       27.324 -22.016   7.647  0.00  0.00    +0.145 HD
ENDBRANCH   1  12
BRANCH   9  15
ATOM     15  C   LIG    1       26.084 -17.831   3.314  0.00  0.00    +0.287 C 
BRANCH  15  16
ATOM     16  O   LIG    1       25.522 -16.568   2.936  0.00  0.00    -0.351 OA
BRANCH  16  17
ATOM     17  C   LIG    1       26.012 -15.458   3.729  0.00  0.00    +0.171 C 
BRANCH  17  18
ATOM     18  C   LIG    1       24.849 -14.458   3.875  0.00  0.00    +0.189 C 
BRANCH  18  19
ATOM     19  O   LIG    1       25.301 -13.222   4.427  0.00  0.00    -0.392 OA
ATOM     20  H   LIG    1       24.865 -13.144   5.299  0.00  0.00    +0.209 HD
ENDBRANCH  18  19
ENDBRANCH  17  18
BRANCH  17  21
ATOM     21  C   LIG    1       27.216 -14.732   3.093  0.00  0.00    +0.189 C 
BRANCH  21  22
ATOM     22  O   LIG    1       26.871 -14.130   1.845  0.00  0.00    -0.392 OA
ATOM     23  H   LIG    1       26.555 -13.230   2.044  0.00  0.00    +0.209 HD
ENDBRANCH  21  22
ENDBRANCH  17  21
ENDBRANCH  16  17
ENDBRANCH  15  16
ENDBRANCH   9  15
TORSDOF 8
ENDMDL
MODEL 2
REMARK VINA RESULT:      -4.1      0.780      1.361
REMARK  Name = *****
REMARK                            x       y       z     vdW  Elec       q    Type
REMARK                         _______ _______ _______ _____ _____    ______ ____
ROOT
ATOM      1  C   LIG    1       26.538 -20.827   6.104  0.00  0.00    +0.195 C 
ATOM      2  N   LIG    1       25.440 -21.356   6.752  0.00  0.00    -0.293 N 
ATOM      3  H   LIG    1       25.562 -22.030   7.490  0.00  0.00    +0.172 HD
ATOM      4  C   LIG    1       24.126 -21.076   6.417  0.00  0.00    +0.280 C 
ATOM      5  O   LIG    1       23.176 -21.572   7.045  0.00  0.00    -0.265 OA
ATOM      6  C   LIG    1       24.015 -20.173   5.296  0.00  0.00    +0.172 A 
ATOM      7  N   LIG    1       22.919 -19.725   4.604  0.00  0.00    -0.229 NA
ATOM      8  C   LIG    1       23.419 -18.949   3.663  0.00  0.00    +0.203 A 
ATOM      9  N   LIG    1       24.781 -18.838   3.760  0.00  0.00    -0.291 N 
ATOM     10  C   LIG    1       25.187 -19.675   4.766  0.00  0.00    +0.171 A 
ATOM     11  N   LIG    1       26.458 -19.962   5.128  0.00  0.00    -0.196 NA
ENDROOT
BRANCH   1  12
ATOM     12  N   LIG    1       27.751 -21.258   6.531  0.00  0.00    -0.329 N 
ATOM     13  H   LIG    1       28.104 -22.126   6.150  0.00  0.00    +0.145 HD
ATOM     14  H   LIG    1       27.861 -21.185   7.538  0.00  0.00    +0.145 HD
ENDBRANCH   1  12
BRANCH   9  15
ATOM     15  C   LIG    1       25.657 -17.980   2.977  0.00  0.00    +0.287 C 
BRANCH  15  16
ATOM     16  O   LIG    1       26.123 -16.884   3.773  0.00  0.00    -0.351 OA
BRANCH  16  17
ATOM     17  C   LIG    1       25.855 -15.587   3.183  0.00  0.00    +0.171 C 
BRANCH  17  18
ATOM     18  C   LIG    1       27.203 -14.844   3.094  0.00  0.00    +0.189 C 
BRANCH  18  19
ATOM     19  O   LIG    1       27.865 -14.830   4.359  0.00  0.00    -0.392 OA
ATOM     20  H   LIG    1       27.197 -15.119   5.012  0.00  0.00    +0.209 HD
ENDBRANCH  18  19
ENDBRANCH  17  18
BRANCH  17  21
ATOM     21  C   LIG    1       24.868 -14.730   4.002  0.00  0.00    +0.189 C 
BRANCH  21  22
ATOM     22  O   LIG    1       25.393 -13.429   4.268  0.00  0.00    -0.392 OA
ATOM     23  H   LIG    1       25.579 -13.391   5.225  0.00  0.00    +0.209 HD
ENDBRANCH  21  22
ENDBRANCH  17  21
ENDBRANCH  16  17
ENDBRANCH  15  16
ENDBRANCH   9  15
TORSDOF 8
ENDMDL
MODEL 3
REMARK VINA RESULT:      -4.1      2.995      6.382
REMARK  Name = *****
REMARK                            x       y       z     vdW  Elec       q    Type
REMARK                         _______ _______ _______ _____ _____    ______ ____
ROOT
ATOM      1  C   LIG    1       26.947 -13.814   3.194  0.00  0.00    +0.195 C 
ATOM      2  N   LIG    1       26.026 -12.818   3.453  0.00  0.00    -0.293 N 
ATOM      3  H   LIG    1       26.308 -11.851   3.445  0.00  0.00    +0.172 HD
ATOM      4  C   LIG    1       24.706 -13.046   3.803  0.00  0.00    +0.280 C 
ATOM      5  O   LIG    1       23.919 -12.110   4.013  0.00  0.00    -0.265 OA
ATOM      6  C   LIG    1       24.385 -14.451   3.887  0.00  0.00    +0.172 A 
ATOM      7  N   LIG    1       23.240 -15.093   4.284  0.00  0.00    -0.229 NA
ATOM      8  C   LIG    1       23.530 -16.375   4.186  0.00  0.00    +0.203 A 
ATOM      9  N   LIG    1       24.791 -16.579   3.690  0.00  0.00    -0.291 N 
ATOM     10  C   LIG    1       25.380 -15.349   3.556  0.00  0.00    +0.171 A 
ATOM     11  N   LIG    1       26.659 -15.088   3.204  0.00  0.00    -0.196 NA
ENDROOT
BRANCH   1  12
ATOM     12  N   LIG    1       28.211 -13.405   2.921  0.00  0.00    -0.329 N 
ATOM     13  H   LIG    1       28.399 -13.038   1.998  0.00  0.00    +0.145 HD
ATOM     14  H   LIG    1       28.914 -14.060   3.247  0.00  0.00    +0.145 HD
ENDBRANCH   1  12
BRANCH   9  15
ATOM     15  C   LIG    1       25.408 -17.847   3.335  0.00  0.00    +0.287 C 
BRANCH  15  16
ATOM     16  O   LIG    1       24.533 -18.935   3.658  0.00  0.00    -0.351 OA
BRANCH  16  17
ATOM     17  C   LIG    1       25.231 -20.176   3.932  0.00  0.00    +0.171 C 
BRANCH  17  18
ATOM     18  C   LIG    1       24.161 -21.278   4.060  0.00  0.00    +0.189 C 
BRANCH  18  19
ATOM     19  O   LIG    1       22.992 -20.784   4.714  0.00  0.00    -0.392 OA
ATOM     20  H   LIG    1       23.142 -19.826   4.840  0.00  0.00    +0.209 HD
ENDBRANCH  18  19
ENDBRANCH  17  18
BRANCH  17  21
ATOM     21  C   LIG    1       26.065 -20.139   5.230  0.00  0.00    +0.189 C 
BRANCH  21  22
ATOM     22  O   LIG    1       27.466 -20.178   4.960  0.00  0.00    -0.392 OA
ATOM     23  H   LIG    1       27.628 -19.561   4.223  0.00  0.00    +0.209 HD
ENDBRANCH  21  22
ENDBRANCH  17  21
ENDBRANCH  16  17
ENDBRANCH  15  16
ENDBRANCH   9  15
TORSDOF 8
ENDMDL
MODEL 4
REMARK VINA RESULT:      -3.9      2.886      6.811
REMARK  Name = *****
REMARK                            x       y       z     vdW  Elec       q    Type
REMARK                         _______ _______ _______ _____ _____    ______ ____
ROOT
ATOM      1  C   LIG    1       24.662 -13.306   3.777  0.00  0.00    +0.195 C 
ATOM      2  N   LIG    1       26.010 -13.038   3.645  0.00  0.00    -0.293 N 
ATOM      3  H   LIG    1       26.336 -12.086   3.598  0.00  0.00    +0.172 HD
ATOM      4  C   LIG    1       26.989 -14.006   3.500  0.00  0.00    +0.280 C 
ATOM      5  O   LIG    1       28.189 -13.705   3.398  0.00  0.00    -0.265 OA
ATOM      6  C   LIG    1       26.452 -15.346   3.486  0.00  0.00    +0.172 A 
ATOM      7  N   LIG    1       27.058 -16.558   3.274  0.00  0.00    -0.229 NA
ATOM      8  C   LIG    1       26.075 -17.434   3.345  0.00  0.00    +0.203 A 
ATOM      9  N   LIG    1       24.879 -16.839   3.649  0.00  0.00    -0.291 N 
ATOM     10  C   LIG    1       25.093 -15.485   3.676  0.00  0.00    +0.171 A 
ATOM     11  N   LIG    1       24.165 -14.513   3.828  0.00  0.00    -0.196 NA
ENDROOT
BRANCH   1  12
ATOM     12  N   LIG    1       23.841 -12.229   3.851  0.00  0.00    -0.329 N 
ATOM     13  H   LIG    1       23.862 -11.677   4.698  0.00  0.00    +0.145 HD
ATOM     14  H   LIG    1       22.902 -12.429   3.522  0.00  0.00    +0.145 HD
ENDBRANCH   1  12
BRANCH   9  15
ATOM     15  C   LIG    1       23.609 -17.493   3.925  0.00  0.00    +0.287 C 
BRANCH  15  16
ATOM     16  O   LIG    1       23.684 -18.886   3.595  0.00  0.00    -0.351 OA
BRANCH  16  17
ATOM     17  C   LIG    1       23.806 -19.747   4.754  0.00  0.00    +0.171 C 
BRANCH  17  18
ATOM     18  C   LIG    1       24.644 -20.967   4.325  0.00  0.00    +0.189 C 
BRANCH  18  19
ATOM     19  O   LIG    1       26.040 -20.664   4.347  0.00  0.00    -0.392 OA
ATOM     20  H   LIG    1       26.500 -21.525   4.311  0.00  0.00    +0.209 HD
ENDBRANCH  18  19
ENDBRANCH  17  18
BRANCH  17  21
ATOM     21  C   LIG    1       22.449 -20.243   5.297  0.00  0.00    +0.189 C 
BRANCH  21  22
ATOM     22  O   LIG    1       22.160 -21.572   4.863  0.00  0.00    -0.392 OA
ATOM     23  H   LIG    1       21.543 -21.953   5.514  0.00  0.00    +0.209 HD
ENDBRANCH  21  22
ENDBRANCH  17  21
ENDBRANCH  16  17
ENDBRANCH  15  16
ENDBRANCH   9  15
TORSDOF 8
ENDMDL
MODEL 5
REMARK VINA RESULT:      -3.8      1.625      2.281
REMARK  Name = *****
REMARK                            x       y       z     vdW  Elec       q    Type
REMARK                         _______ _______ _______ _____ _____    ______ ____
ROOT
ATOM      1  C   LIG    1       28.012 -20.050   5.788  0.00  0.00    +0.195 C 
ATOM      2  N   LIG    1       26.953 -20.932   5.871  0.00  0.00    -0.293 N 
ATOM      3  H   LIG    1       27.055 -21.803   6.367  0.00  0.00    +0.172 HD
ATOM      4  C   LIG    1       25.730 -20.744   5.251  0.00  0.00    +0.280 C 
ATOM      5  O   LIG    1       24.807 -21.566   5.371  0.00  0.00    -0.265 OA
ATOM      6  C   LIG    1       25.674 -19.523   4.483  0.00  0.00    +0.172 A 
ATOM      7  N   LIG    1       24.700 -19.019   3.659  0.00  0.00    -0.229 NA
ATOM      8  C   LIG    1       25.207 -17.891   3.203  0.00  0.00    +0.203 A 
ATOM      9  N   LIG    1       26.438 -17.625   3.744  0.00  0.00    -0.291 N 
ATOM     10  C   LIG    1       26.782 -18.702   4.519  0.00  0.00    +0.171 A 
ATOM     11  N   LIG    1       27.960 -18.912   5.149  0.00  0.00    -0.196 NA
ENDROOT
BRANCH   1  12
ATOM     12  N   LIG    1       29.155 -20.426   6.415  0.00  0.00    -0.329 N 
ATOM     13  H   LIG    1       29.511 -19.824   7.146  0.00  0.00    +0.145 HD
ATOM     14  H   LIG    1       29.870 -20.744   5.769  0.00  0.00    +0.145 HD
ENDBRANCH   1  12
BRANCH   9  15
ATOM     15  C   LIG    1       27.241 -16.424   3.571  0.00  0.00    +0.287 C 
BRANCH  15  16
ATOM     16  O   LIG    1       26.520 -15.449   2.807  0.00  0.00    -0.351 OA
BRANCH  16  17
ATOM     17  C   LIG    1       26.697 -14.093   3.289  0.00  0.00    +0.171 C 
BRANCH  17  18
ATOM     18  C   LIG    1       28.180 -13.945   3.685  0.00  0.00    +0.189 C 
BRANCH  18  19
ATOM     19  O   LIG    1       28.623 -12.598   3.518  0.00  0.00    -0.392 OA
ATOM     20  H   LIG    1       29.597 -12.628   3.593  0.00  0.00    +0.209 HD
ENDBRANCH  18  19
ENDBRANCH  17  18
BRANCH  17  21
ATOM     21  C   LIG    1       25.819 -13.756   4.512  0.00  0.00    +0.189 C 
BRANCH  21  22
ATOM     22  O   LIG    1       26.608 -13.480   5.669  0.00  0.00    -0.392 OA
ATOM     23  H   LIG    1       26.055 -13.688   6.444  0.00  0.00    +0.209 HD
ENDBRANCH  21  22
ENDBRANCH  17  21
ENDBRANCH  16  17
ENDBRANCH  15  16
ENDBRANCH   9  15
TORSDOF 8
ENDMDL
MODEL 6
REMARK VINA RESULT:      -3.8      1.237      3.128
REMARK  Name = *****
REMARK                            x       y       z     vdW  Elec       q    Type
REMARK                         _______ _______ _______ _____ _____    ______ ____
ROOT
ATOM      1  C   LIG    1       22.118 -18.810   4.115  0.00  0.00    +0.195 C 
ATOM      2  N   LIG    1       21.959 -19.884   4.968  0.00  0.00    -0.293 N 
ATOM      3  H   LIG    1       21.039 -20.159   5.272  0.00  0.00    +0.172 HD
ATOM      4  C   LIG    1       23.004 -20.606   5.518  0.00  0.00    +0.280 C 
ATOM      5  O   LIG    1       22.801 -21.572   6.271  0.00  0.00    -0.265 OA
ATOM      6  C   LIG    1       24.299 -20.109   5.116  0.00  0.00    +0.172 A 
ATOM      7  N   LIG    1       25.564 -20.474   5.501  0.00  0.00    -0.229 NA
ATOM      8  C   LIG    1       26.358 -19.659   4.835  0.00  0.00    +0.203 A 
ATOM      9  N   LIG    1       25.657 -18.829   3.999  0.00  0.00    -0.291 N 
ATOM     10  C   LIG    1       24.324 -19.061   4.220  0.00  0.00    +0.171 A 
ATOM     11  N   LIG    1       23.279 -18.385   3.692  0.00  0.00    -0.196 NA
ENDROOT
BRANCH   1  12
ATOM     12  N   LIG    1       20.981 -18.186   3.719  0.00  0.00    -0.329 N 
ATOM     13  H   LIG    1       20.589 -17.485   4.335  0.00  0.00    +0.145 HD
ATOM     14  H   LIG    1       20.289 -18.829   3.348  0.00  0.00    +0.145 HD
ENDBRANCH   1  12
BRANCH   9  15
ATOM     15  C   LIG    1       26.196 -17.888   3.030  0.00  0.00    +0.287 C 
BRANCH  15  16
ATOM     16  O   LIG    1       26.938 -16.857   3.694  0.00  0.00    -0.351 OA
BRANCH  16  17
ATOM     17  C   LIG    1       26.582 -15.520   3.260  0.00  0.00    +0.171 C 
BRANCH  17  18
ATOM     18  C   LIG    1       27.635 -14.560   3.848  0.00  0.00    +0.189 C 
BRANCH  18  19
ATOM     19  O   LIG    1       27.885 -13.469   2.962  0.00  0.00    -0.392 OA
ATOM     20  H   LIG    1       28.213 -13.869   2.132  0.00  0.00    +0.209 HD
ENDBRANCH  18  19
ENDBRANCH  17  18
BRANCH  17  21
ATOM     21  C   LIG    1       25.183 -15.072   3.732  0.00  0.00    +0.189 C 
BRANCH  21  22
ATOM     22  O   LIG    1       25.130 -13.665   3.968  0.00  0.00    -0.392 OA
ATOM     23  H   LIG    1       24.187 -13.423   4.015  0.00  0.00    +0.209 HD
ENDBRANCH  21  22
ENDBRANCH  17  21
ENDBRANCH  16  17
ENDBRANCH  15  16
ENDBRANCH   9  15
TORSDOF 8
ENDMDL
MODEL 7
REMARK VINA RESULT:      -3.7      2.721      6.497
REMARK  Name = *****
REMARK                            x       y       z     vdW  Elec       q    Type
REMARK                         _______ _______ _______ _____ _____    ______ ____
ROOT
ATOM      1  C   LIG    1       24.623 -13.661   4.011  0.00  0.00    +0.195 C 
ATOM      2  N   LIG    1       25.959 -13.349   3.854  0.00  0.00    -0.293 N 
ATOM      3  H   LIG    1       26.259 -12.387   3.858  0.00  0.00    +0.172 HD
ATOM      4  C   LIG    1       26.956 -14.279   3.618  0.00  0.00    +0.280 C 
ATOM      5  O   LIG    1       28.144 -13.941   3.498  0.00  0.00    -0.265 OA
ATOM      6  C   LIG    1       26.452 -15.629   3.534  0.00  0.00    +0.172 A 
ATOM      7  N   LIG    1       27.080 -16.810   3.227  0.00  0.00    -0.229 NA
ATOM      8  C   LIG    1       26.122 -17.714   3.272  0.00  0.00    +0.203 A 
ATOM      9  N   LIG    1       24.922 -17.171   3.650  0.00  0.00    -0.291 N 
ATOM     10  C   LIG    1       25.103 -15.817   3.757  0.00  0.00    +0.171 A 
ATOM     11  N   LIG    1       24.157 -14.882   3.999  0.00  0.00    -0.196 NA
ENDROOT
BRANCH   1  12
ATOM     12  N   LIG    1       23.778 -12.613   4.178  0.00  0.00    -0.329 N 
ATOM     13  H   LIG    1       23.042 -12.487   3.496  0.00  0.00    +0.145 HD
ATOM     14  H   LIG    1       24.262 -11.753   4.414  0.00  0.00    +0.145 HD
ENDBRANCH   1  12
BRANCH   9  15
ATOM     15  C   LIG    1       23.679 -17.875   3.923  0.00  0.00    +0.287 C 
BRANCH  15  16
ATOM     16  O   LIG    1       23.684 -19.160   3.288  0.00  0.00    -0.351 OA
BRANCH  16  17
ATOM     17  C   LIG    1       23.229 -20.232   4.152  0.00  0.00    +0.171 C 
BRANCH  17  18
ATOM     18  C   LIG    1       22.842 -19.592   5.500  0.00  0.00    +0.189 C 
BRANCH  18  19
ATOM     19  O   LIG    1       23.075 -20.495   6.581  0.00  0.00    -0.392 OA
ATOM     20  H   LIG    1       23.502 -19.965   7.283  0.00  0.00    +0.209 HD
ENDBRANCH  18  19
ENDBRANCH  17  18
BRANCH  17  21
ATOM     21  C   LIG    1       24.298 -21.315   4.404  0.00  0.00    +0.189 C 
BRANCH  21  22
ATOM     22  O   LIG    1       25.513 -20.753   4.901  0.00  0.00    -0.392 OA
ATOM     23  H   LIG    1       25.880 -21.393   5.538  0.00  0.00    +0.209 HD
ENDBRANCH  21  22
ENDBRANCH  17  21
ENDBRANCH  16  17
ENDBRANCH  15  16
ENDBRANCH   9  15
TORSDOF 8
ENDMDL
MODEL 8
REMARK VINA RESULT:      -3.2      1.325      2.987
REMARK  Name = *****
REMARK                            x       y       z     vdW  Elec       q    Type
REMARK                         _______ _______ _______ _____ _____    ______ ____
ROOT
ATOM      1  C   LIG    1       22.162 -18.624   4.118  0.00  0.00    +0.195 C 
ATOM      2  N   LIG    1       21.997 -19.764   4.881  0.00  0.00    -0.293 N 
ATOM      3  H   LIG    1       21.077 -20.048   5.177  0.00  0.00    +0.172 HD
ATOM      4  C   LIG    1       23.038 -20.548   5.348  0.00  0.00    +0.280 C 
ATOM      5  O   LIG    1       22.830 -21.570   6.020  0.00  0.00    -0.265 OA
ATOM      6  C   LIG    1       24.335 -20.041   4.966  0.00  0.00    +0.172 A 
ATOM      7  N   LIG    1       25.599 -20.458   5.295  0.00  0.00    -0.229 NA
ATOM      8  C   LIG    1       26.397 -19.603   4.686  0.00  0.00    +0.203 A 
ATOM      9  N   LIG    1       25.698 -18.693   3.937  0.00  0.00    -0.291 N 
ATOM     10  C   LIG    1       24.365 -18.921   4.161  0.00  0.00    +0.171 A 
ATOM     11  N   LIG    1       23.323 -18.185   3.711  0.00  0.00    -0.196 NA
ENDROOT
BRANCH   1  12
ATOM     12  N   LIG    1       21.030 -17.950   3.798  0.00  0.00    -0.329 N 
ATOM     13  H   LIG    1       20.144 -18.366   4.053  0.00  0.00    +0.145 HD
ATOM     14  H   LIG    1       21.046 -17.583   2.851  0.00  0.00    +0.145 HD
ENDBRANCH   1  12
BRANCH   9  15
ATOM     15  C   LIG    1       26.237 -17.683   3.040  0.00  0.00    +0.287 C 
BRANCH  15  16
ATOM     16  O   LIG    1       25.807 -16.377   3.444  0.00  0.00    -0.351 OA
BRANCH  16  17
ATOM     17  C   LIG    1       26.765 -15.334   3.137  0.00  0.00    +0.171 C 
BRANCH  17  18
ATOM     18  C   LIG    1       27.395 -14.891   4.472  0.00  0.00    +0.189 C 
BRANCH  18  19
ATOM     19  O   LIG    1       26.692 -13.778   5.026  0.00  0.00    -0.392 OA
ATOM     20  H   LIG    1       27.191 -13.521   5.827  0.00  0.00    +0.209 HD
ENDBRANCH  18  19
ENDBRANCH  17  18
BRANCH  17  21
ATOM     21  C   LIG    1       26.135 -14.103   2.452  0.00  0.00    +0.189 C 
BRANCH  21  22
ATOM     22  O   LIG    1       27.027 -12.989   2.442  0.00  0.00    -0.392 OA
ATOM     23  H   LIG    1       27.725 -13.192   1.792  0.00  0.00    +0.209 HD
ENDBRANCH  21  22
ENDBRANCH  17  21
ENDBRANCH  16  17
ENDBRANCH  15  16
ENDBRANCH   9  15
TORSDOF 8
ENDMDL
MODEL 9
REMARK VINA RESULT:      -2.5      1.847      2.386
REMARK  Name = *****
REMARK                            x       y       z     vdW  Elec       q    Type
REMARK                         _______ _______ _______ _____ _____    ______ ____
ROOT
ATOM      1  C   LIG    1       25.306 -20.079   4.368  0.00  0.00    +0.195 C 
ATOM      2  N   LIG    1       24.253 -20.907   4.705  0.00  0.00    -0.293 N 
ATOM      3  H   LIG    1       24.406 -21.893   4.840  0.00  0.00    +0.172 HD
ATOM      4  C   LIG    1       22.937 -20.491   4.816  0.00  0.00    +0.280 C 
ATOM      5  O   LIG    1       22.032 -21.279   5.135  0.00  0.00    -0.265 OA
ATOM      6  C   LIG    1       22.768 -19.088   4.524  0.00  0.00    +0.172 A 
ATOM      7  N   LIG    1       21.638 -18.316   4.430  0.00  0.00    -0.229 NA
ATOM      8  C   LIG    1       22.084 -17.118   4.108  0.00  0.00    +0.203 A 
ATOM      9  N   LIG    1       23.452 -17.079   4.048  0.00  0.00    -0.291 N 
ATOM     10  C   LIG    1       23.905 -18.357   4.248  0.00  0.00    +0.171 A 
ATOM     11  N   LIG    1       25.181 -18.795   4.161  0.00  0.00    -0.196 NA
ENDROOT
BRANCH   1  12
ATOM     12  N   LIG    1       26.520 -20.671   4.251  0.00  0.00    -0.329 N 
ATOM     13  H   LIG    1       27.141 -20.637   5.049  0.00  0.00    +0.145 HD
ATOM     14  H   LIG    1       26.980 -20.454   3.373  0.00  0.00    +0.145 HD
ENDBRANCH   1  12
BRANCH   9  15
ATOM     15  C   LIG    1       24.296 -15.912   3.843  0.00  0.00    +0.287 C 
BRANCH  15  16
ATOM     16  O   LIG    1       23.613 -14.723   4.259  0.00  0.00    -0.351 OA
BRANCH  16  17
ATOM     17  C   LIG    1       24.427 -13.527   4.167  0.00  0.00    +0.171 C 
BRANCH  17  18
ATOM     18  C   LIG    1       24.235 -12.958   2.748  0.00  0.00    +0.189 C 
BRANCH  18  19
ATOM     19  O   LIG    1       25.345 -13.281   1.910  0.00  0.00    -0.392 OA
ATOM     20  H   LIG    1       25.994 -13.727   2.489  0.00  0.00    +0.209 HD
ENDBRANCH  18  19
ENDBRANCH  17  18
BRANCH  17  21
ATOM     21  C   LIG    1       25.931 -13.789   4.397  0.00  0.00    +0.189 C 
BRANCH  21  22
ATOM     22  O   LIG    1       26.419 -13.091   5.543  0.00  0.00    -0.392 OA
ATOM     23  H   LIG    1       25.641 -12.855   6.081  0.00  0.00    +0.209 HD
ENDBRANCH  21  22
ENDBRANCH  17  21
ENDBRANCH  16  17
ENDBRANCH  15  16
ENDBRANCH   9  15
TORSDOF 8
ENDMDL
