MODEL 1
REMARK VINA RESULT:      -6.8      0.000      0.000
REMARK  Name = *****
REMARK                            x       y       z     vdW  Elec       q    Type
REMARK                         _______ _______ _______ _____ _____    ______ ____
ROOT
ATOM      1  C   LIG    1       25.135 -21.682   5.623  0.00  0.00    +0.163 C 
ATOM      2  N   LIG    1       25.584 -20.535   6.424  0.00  0.00    -0.270 N 
ATOM      3  C   LIG    1       27.009 -20.388   6.365  0.00  0.00    +0.331 C 
ATOM      4  N   LIG    1       27.538 -21.021   7.518  0.00  0.00    -0.132 N 
ATOM      5  C   LIG    1       26.411 -21.584   8.253  0.00  0.00    +0.127 C 
ATOM      6  C   LIG    1       26.140 -22.993   7.672  0.00  0.00    +0.029 C 
ATOM      7  O   LIG    1       27.630 -19.848   5.465  0.00  0.00    -0.250 OA
ATOM      8  C   LIG    1       25.280 -20.667   7.838  0.00  0.00    +0.135 C 
ATOM      9  C   LIG    1       25.188 -23.000   6.446  0.00  0.00    +0.034 C 
ENDROOT
BRANCH   1  13
ATOM     10  N   LIG    1       22.715 -22.093   5.736  0.00  0.00    -0.328 N 
ATOM     11  H   LIG    1       22.938 -22.796   6.431  0.00  0.00    +0.145 HD
ATOM     12  H   LIG    1       21.759 -21.964   5.436  0.00  0.00    +0.145 HD
ATOM     13  C   LIG    1       23.711 -21.407   5.098  0.00  0.00    +0.231 C 
ATOM     14  O   LIG    1       23.444 -20.559   4.254  0.00  0.00    -0.274 OA
ENDBRANCH   1  13
BRANCH   4  15
ATOM     15  O   LIG    1       28.252 -20.054   8.292  0.00  0.00    -0.096 OA
BRANCH  15  16
ATOM     16  S   LIG    1       29.868 -20.340   8.354  0.00  0.00    +0.227 S 
ATOM     17  O   LIG    1       30.095 -21.718   8.720  0.00  0.00    -0.116 OA
ATOM     18  O   LIG    1       30.494 -19.264   9.098  0.00  0.00    -0.116 OA
BRANCH  16  19
ATOM     19  O   LIG    1       30.372 -20.157   6.836  0.00  0.00    -0.230 OA
ATOM     20  H   LIG    1       31.256 -19.738   6.865  0.00  0.00    +0.247 HD
ENDBRANCH  16  19
ENDBRANCH  15  16
ENDBRANCH   4  15
TORSDOF 4
ENDMDL
MODEL 2
REMARK VINA RESULT:      -6.7      1.597      2.361
REMARK  Name = *****
REMARK                            x       y       z     vdW  Elec       q    Type
REMARK                         _______ _______ _______ _____ _____    ______ ____
ROOT
ATOM      1  C   LIG    1       24.485 -20.929   6.859  0.00  0.00    +0.163 C 
ATOM      2  N   LIG    1       25.559 -21.602   7.602  0.00  0.00    -0.270 N 
ATOM      3  C   LIG    1       26.294 -20.671   8.407  0.00  0.00    +0.331 C 
ATOM      4  N   LIG    1       27.444 -20.302   7.666  0.00  0.00    -0.132 N 
ATOM      5  C   LIG    1       27.371 -20.996   6.386  0.00  0.00    +0.127 C 
ATOM      6  C   LIG    1       26.537 -20.111   5.428  0.00  0.00    +0.029 C 
ATOM      7  O   LIG    1       25.956 -20.261   9.505  0.00  0.00    -0.250 OA
ATOM      8  C   LIG    1       26.554 -22.220   6.743  0.00  0.00    +0.135 C 
ATOM      9  C   LIG    1       25.006 -20.355   5.512  0.00  0.00    +0.034 C 
ENDROOT
BRANCH   1  13
ATOM     10  N   LIG    1       22.558 -21.677   5.529  0.00  0.00    -0.328 N 
ATOM     11  H   LIG    1       22.706 -20.841   4.976  0.00  0.00    +0.145 HD
ATOM     12  H   LIG    1       21.777 -22.286   5.327  0.00  0.00    +0.145 HD
ATOM     13  C   LIG    1       23.326 -21.922   6.634  0.00  0.00    +0.231 C 
ATOM     14  O   LIG    1       23.147 -22.931   7.306  0.00  0.00    -0.274 OA
ENDBRANCH   1  13
BRANCH   4  15
ATOM     15  O   LIG    1       28.611 -20.666   8.406  0.00  0.00    -0.096 OA
BRANCH  15  16
ATOM     16  S   LIG    1       29.862 -19.623   8.199  0.00  0.00    +0.227 S 
ATOM     17  O   LIG    1       30.197 -19.023   9.469  0.00  0.00    -0.116 OA
ATOM     18  O   LIG    1       29.579 -18.795   7.043  0.00  0.00    -0.116 OA
BRANCH  16  19
ATOM     19  O   LIG    1       31.101 -20.553   7.765  0.00  0.00    -0.230 OA
ATOM     20  H   LIG    1       31.785 -19.973   7.374  0.00  0.00    +0.247 HD
ENDBRANCH  16  19
ENDBRANCH  15  16
ENDBRANCH   4  15
TORSDOF 4
ENDMDL
MODEL 3
REMARK VINA RESULT:      -6.5      1.711      2.538
REMARK  Name = *****
REMARK                            x       y       z     vdW  Elec       q    Type
REMARK                         _______ _______ _______ _____ _____    ______ ____
ROOT
ATOM      1  C   LIG    1       25.023 -20.929   6.717  0.00  0.00    +0.163 C 
ATOM      2  N   LIG    1       26.061 -21.538   7.560  0.00  0.00    -0.270 N 
ATOM      3  C   LIG    1       26.650 -20.569   8.437  0.00  0.00    +0.331 C 
ATOM      4  N   LIG    1       27.841 -20.117   7.814  0.00  0.00    -0.132 N 
ATOM      5  C   LIG    1       27.939 -20.802   6.530  0.00  0.00    +0.127 C 
ATOM      6  C   LIG    1       27.146 -19.963   5.499  0.00  0.00    +0.029 C 
ATOM      7  O   LIG    1       26.180 -20.193   9.498  0.00  0.00    -0.250 OA
ATOM      8  C   LIG    1       27.174 -22.081   6.801  0.00  0.00    +0.135 C 
ATOM      9  C   LIG    1       25.634 -20.308   5.430  0.00  0.00    +0.034 C 
ENDROOT
BRANCH   1  13
ATOM     10  N   LIG    1       24.064 -22.537   5.125  0.00  0.00    -0.328 N 
ATOM     11  H   LIG    1       24.740 -22.176   4.463  0.00  0.00    +0.145 HD
ATOM     12  H   LIG    1       23.394 -23.235   4.835  0.00  0.00    +0.145 HD
ATOM     13  C   LIG    1       23.960 -21.993   6.376  0.00  0.00    +0.231 C 
ATOM     14  O   LIG    1       23.141 -22.427   7.178  0.00  0.00    -0.274 OA
ENDBRANCH   1  13
BRANCH   4  15
ATOM     15  O   LIG    1       28.951 -20.412   8.664  0.00  0.00    -0.096 OA
BRANCH  15  16
ATOM     16  S   LIG    1       30.256 -19.457   8.379  0.00  0.00    +0.227 S 
ATOM     17  O   LIG    1       29.815 -18.203   7.817  0.00  0.00    -0.116 OA
ATOM     18  O   LIG    1       31.267 -20.253   7.711  0.00  0.00    -0.116 OA
BRANCH  16  19
ATOM     19  O   LIG    1       30.858 -19.144   9.839  0.00  0.00    -0.230 OA
ATOM     20  H   LIG    1       31.260 -19.968  10.178  0.00  0.00    +0.247 HD
ENDBRANCH  16  19
ENDBRANCH  15  16
ENDBRANCH   4  15
TORSDOF 4
ENDMDL
MODEL 4
REMARK VINA RESULT:      -6.4      2.060      2.796
REMARK  Name = *****
REMARK                            x       y       z     vdW  Elec       q    Type
REMARK                         _______ _______ _______ _____ _____    ______ ____
ROOT
ATOM      1  C   LIG    1       24.104 -22.915   7.171  0.00  0.00    +0.163 C 
ATOM      2  N   LIG    1       25.155 -22.650   6.179  0.00  0.00    -0.270 N 
ATOM      3  C   LIG    1       26.334 -22.124   6.802  0.00  0.00    +0.331 C 
ATOM      4  N   LIG    1       26.274 -20.713   6.676  0.00  0.00    -0.132 N 
ATOM      5  C   LIG    1       25.020 -20.396   6.001  0.00  0.00    +0.127 C 
ATOM      6  C   LIG    1       23.925 -20.291   7.089  0.00  0.00    +0.029 C 
ATOM      7  O   LIG    1       27.195 -22.782   7.359  0.00  0.00    -0.250 OA
ATOM      8  C   LIG    1       24.776 -21.653   5.192  0.00  0.00    +0.135 C 
ATOM      9  C   LIG    1       23.252 -21.644   7.443  0.00  0.00    +0.034 C 
ENDROOT
BRANCH   1  13
ATOM     10  N   LIG    1       21.931 -23.754   6.386  0.00  0.00    -0.328 N 
ATOM     11  H   LIG    1       21.581 -22.823   6.584  0.00  0.00    +0.145 HD
ATOM     12  H   LIG    1       21.300 -24.474   6.065  0.00  0.00    +0.145 HD
ATOM     13  C   LIG    1       23.226 -24.083   6.678  0.00  0.00    +0.231 C 
ATOM     14  O   LIG    1       23.650 -25.209   6.444  0.00  0.00    -0.274 OA
ENDBRANCH   1  13
BRANCH   4  15
ATOM     15  O   LIG    1       27.410 -20.264   5.934  0.00  0.00    -0.096 OA
BRANCH  15  16
ATOM     16  S   LIG    1       28.685 -19.858   6.885  0.00  0.00    +0.227 S 
ATOM     17  O   LIG    1       28.236 -19.717   8.250  0.00  0.00    -0.116 OA
ATOM     18  O   LIG    1       29.418 -18.789   6.234  0.00  0.00    -0.116 OA
BRANCH  16  19
ATOM     19  O   LIG    1       29.659 -21.138   6.828  0.00  0.00    -0.230 OA
ATOM     20  H   LIG    1       29.138 -21.893   6.489  0.00  0.00    +0.247 HD
ENDBRANCH  16  19
ENDBRANCH  15  16
ENDBRANCH   4  15
TORSDOF 4
ENDMDL
MODEL 5
REMARK VINA RESULT:      -6.2      3.996      4.858
REMARK  Name = *****
REMARK                            x       y       z     vdW  Elec       q    Type
REMARK                         _______ _______ _______ _____ _____    ______ ____
ROOT
ATOM      1  C   LIG    1       23.790 -21.078   4.886  0.00  0.00    +0.163 C 
ATOM      2  N   LIG    1       25.051 -21.789   5.135  0.00  0.00    -0.270 N 
ATOM      3  C   LIG    1       24.850 -23.208   5.160  0.00  0.00    +0.331 C 
ATOM      4  N   LIG    1       24.716 -23.583   6.521  0.00  0.00    -0.132 N 
ATOM      5  C   LIG    1       24.802 -22.361   7.312  0.00  0.00    +0.127 C 
ATOM      6  C   LIG    1       23.376 -21.763   7.393  0.00  0.00    +0.029 C 
ATOM      7  O   LIG    1       24.776 -23.931   4.181  0.00  0.00    -0.250 OA
ATOM      8  C   LIG    1       25.646 -21.473   6.422  0.00  0.00    +0.135 C 
ATOM      9  C   LIG    1       23.014 -20.827   6.209  0.00  0.00    +0.034 C 
ENDROOT
BRANCH   1  13
ATOM     10  N   LIG    1       25.293 -19.711   3.503  0.00  0.00    -0.328 N 
ATOM     11  H   LIG    1       25.955 -20.472   3.597  0.00  0.00    +0.145 HD
ATOM     12  H   LIG    1       25.556 -18.870   3.010  0.00  0.00    +0.145 HD
ATOM     13  C   LIG    1       24.091 -19.754   4.154  0.00  0.00    +0.231 C 
ATOM     14  O   LIG    1       23.290 -18.833   4.045  0.00  0.00    -0.274 OA
ENDBRANCH   1  13
BRANCH   4  15
ATOM     15  O   LIG    1       25.752 -24.509   6.852  0.00  0.00    -0.096 OA
BRANCH  15  16
ATOM     16  S   LIG    1       25.375 -26.063   6.480  0.00  0.00    +0.227 S 
ATOM     17  O   LIG    1       23.945 -26.181   6.317  0.00  0.00    -0.116 OA
ATOM     18  O   LIG    1       26.090 -26.937   7.390  0.00  0.00    -0.116 OA
BRANCH  16  19
ATOM     19  O   LIG    1       26.045 -26.311   5.037  0.00  0.00    -0.230 OA
ATOM     20  H   LIG    1       26.999 -26.111   5.115  0.00  0.00    +0.247 HD
ENDBRANCH  16  19
ENDBRANCH  15  16
ENDBRANCH   4  15
TORSDOF 4
ENDMDL
MODEL 6
REMARK VINA RESULT:      -6.2      2.959      5.733
REMARK  Name = *****
REMARK                            x       y       z     vdW  Elec       q    Type
REMARK                         _______ _______ _______ _____ _____    ______ ____
ROOT
ATOM      1  C   LIG    1       28.618 -21.479   7.156  0.00  0.00    +0.163 C 
ATOM      2  N   LIG    1       27.428 -21.659   7.999  0.00  0.00    -0.270 N 
ATOM      3  C   LIG    1       26.468 -22.514   7.364  0.00  0.00    +0.331 C 
ATOM      4  N   LIG    1       25.523 -21.672   6.725  0.00  0.00    -0.132 N 
ATOM      5  C   LIG    1       25.950 -20.297   6.954  0.00  0.00    +0.127 C 
ATOM      6  C   LIG    1       26.951 -19.933   5.831  0.00  0.00    +0.029 C 
ATOM      7  O   LIG    1       26.499 -23.733   7.357  0.00  0.00    -0.250 OA
ATOM      8  C   LIG    1       26.713 -20.421   8.256  0.00  0.00    +0.135 C 
ATOM      9  C   LIG    1       28.422 -20.314   6.146  0.00  0.00    +0.034 C 
ENDROOT
BRANCH   1  13
ATOM     10  N   LIG    1       30.740 -20.317   7.588  0.00  0.00    -0.328 N 
ATOM     11  H   LIG    1       30.625 -19.915   6.665  0.00  0.00    +0.145 HD
ATOM     12  H   LIG    1       31.570 -20.117   8.127  0.00  0.00    +0.145 HD
ATOM     13  C   LIG    1       29.845 -21.237   8.059  0.00  0.00    +0.231 C 
ATOM     14  O   LIG    1       29.984 -21.728   9.174  0.00  0.00    -0.274 OA
ENDBRANCH   1  13
BRANCH   4  15
ATOM     15  O   LIG    1       24.228 -21.929   7.273  0.00  0.00    -0.096 OA
BRANCH  15  16
ATOM     16  S   LIG    1       23.207 -22.652   6.209  0.00  0.00    +0.227 S 
ATOM     17  O   LIG    1       22.411 -21.643   5.551  0.00  0.00    -0.116 OA
ATOM     18  O   LIG    1       22.575 -23.774   6.875  0.00  0.00    -0.116 OA
BRANCH  16  19
ATOM     19  O   LIG    1       24.171 -23.304   5.097  0.00  0.00    -0.230 OA
ATOM     20  H   LIG    1       24.575 -24.105   5.487  0.00  0.00    +0.247 HD
ENDBRANCH  16  19
ENDBRANCH  15  16
ENDBRANCH   4  15
TORSDOF 4
ENDMDL
MODEL 7
REMARK VINA RESULT:      -6.2      2.473      5.605
REMARK  Name = *****
REMARK                            x       y       z     vdW  Elec       q    Type
REMARK                         _______ _______ _______ _____ _____    ______ ____
ROOT
ATOM      1  C   LIG    1       27.851 -20.297   7.470  0.00  0.00    +0.163 C 
ATOM      2  N   LIG    1       27.211 -21.200   6.504  0.00  0.00    -0.270 N 
ATOM      3  C   LIG    1       26.169 -20.532   5.781  0.00  0.00    +0.331 C 
ATOM      4  N   LIG    1       24.949 -20.846   6.432  0.00  0.00    -0.132 N 
ATOM      5  C   LIG    1       25.278 -21.683   7.580  0.00  0.00    +0.127 C 
ATOM      6  C   LIG    1       25.601 -20.737   8.762  0.00  0.00    +0.029 C 
ATOM      7  O   LIG    1       26.328 -19.807   4.814  0.00  0.00    -0.250 OA
ATOM      8  C   LIG    1       26.563 -22.342   7.126  0.00  0.00    +0.135 C 
ATOM      9  C   LIG    1       27.084 -20.282   8.821  0.00  0.00    +0.034 C 
ENDROOT
BRANCH   1  13
ATOM     10  N   LIG    1       30.214 -20.133   6.812  0.00  0.00    -0.328 N 
ATOM     11  H   LIG    1       29.888 -19.540   6.057  0.00  0.00    +0.145 HD
ATOM     12  H   LIG    1       31.192 -20.374   6.881  0.00  0.00    +0.145 HD
ATOM     13  C   LIG    1       29.321 -20.722   7.664  0.00  0.00    +0.231 C 
ATOM     14  O   LIG    1       29.711 -21.443   8.576  0.00  0.00    -0.274 OA
ENDBRANCH   1  13
BRANCH   4  15
ATOM     15  O   LIG    1       24.089 -21.518   5.508  0.00  0.00    -0.096 OA
BRANCH  15  16
ATOM     16  S   LIG    1       22.921 -20.546   4.887  0.00  0.00    +0.227 S 
ATOM     17  O   LIG    1       23.285 -20.163   3.543  0.00  0.00    -0.116 OA
ATOM     18  O   LIG    1       22.588 -19.541   5.877  0.00  0.00    -0.116 OA
BRANCH  16  19
ATOM     19  O   LIG    1       21.620 -21.489   4.782  0.00  0.00    -0.230 OA
ATOM     20  H   LIG    1       21.847 -22.354   5.178  0.00  0.00    +0.247 HD
ENDBRANCH  16  19
ENDBRANCH  15  16
ENDBRANCH   4  15
TORSDOF 4
ENDMDL
MODEL 8
REMARK VINA RESULT:      -5.9      3.124      4.807
REMARK  Name = *****
REMARK                            x       y       z     vdW  Elec       q    Type
REMARK                         _______ _______ _______ _____ _____    ______ ____
ROOT
ATOM      1  C   LIG    1       28.252 -19.826   7.236  0.00  0.00    +0.163 C 
ATOM      2  N   LIG    1       29.295 -20.111   8.231  0.00  0.00    -0.270 N 
ATOM      3  C   LIG    1       29.685 -18.921   8.929  0.00  0.00    +0.331 C 
ATOM      4  N   LIG    1       30.850 -18.430   8.287  0.00  0.00    -0.132 N 
ATOM      5  C   LIG    1       31.133 -19.322   7.169  0.00  0.00    +0.127 C 
ATOM      6  C   LIG    1       30.316 -18.813   5.956  0.00  0.00    +0.029 C 
ATOM      7  O   LIG    1       29.092 -18.425   9.871  0.00  0.00    -0.250 OA
ATOM      8  C   LIG    1       30.523 -20.623   7.648  0.00  0.00    +0.135 C 
ATOM      9  C   LIG    1       28.872 -19.377   5.883  0.00  0.00    +0.034 C 
ENDROOT
BRANCH   1  13
ATOM     10  N   LIG    1       26.594 -21.085   5.930  0.00  0.00    -0.328 N 
ATOM     11  H   LIG    1       26.557 -20.272   5.327  0.00  0.00    +0.145 HD
ATOM     12  H   LIG    1       25.985 -21.872   5.757  0.00  0.00    +0.145 HD
ATOM     13  C   LIG    1       27.366 -21.076   7.059  0.00  0.00    +0.231 C 
ATOM     14  O   LIG    1       27.410 -22.057   7.792  0.00  0.00    -0.274 OA
ENDBRANCH   1  13
BRANCH   4  15
ATOM     15  O   LIG    1       31.922 -18.398   9.232  0.00  0.00    -0.096 OA
BRANCH  15  16
ATOM     16  S   LIG    1       32.219 -16.896   9.825  0.00  0.00    +0.227 S 
ATOM     17  O   LIG    1       32.640 -16.032   8.747  0.00  0.00    -0.116 OA
ATOM     18  O   LIG    1       33.025 -17.030  11.023  0.00  0.00    -0.116 OA
BRANCH  16  19
ATOM     19  O   LIG    1       30.786 -16.368  10.332  0.00  0.00    -0.230 OA
ATOM     20  H   LIG    1       30.720 -15.419  10.103  0.00  0.00    +0.247 HD
ENDBRANCH  16  19
ENDBRANCH  15  16
ENDBRANCH   4  15
TORSDOF 4
ENDMDL
MODEL 9
REMARK VINA RESULT:      -5.6      5.309      6.546
REMARK  Name = *****
REMARK                            x       y       z     vdW  Elec       q    Type
REMARK                         _______ _______ _______ _____ _____    ______ ____
ROOT
ATOM      1  C   LIG    1       24.412 -28.078   5.663  0.00  0.00    +0.163 C 
ATOM      2  N   LIG    1       24.647 -27.152   6.778  0.00  0.00    -0.270 N 
ATOM      3  C   LIG    1       24.326 -25.804   6.410  0.00  0.00    +0.331 C 
ATOM      4  N   LIG    1       25.540 -25.180   6.026  0.00  0.00    -0.132 N 
ATOM      5  C   LIG    1       26.591 -26.186   6.133  0.00  0.00    +0.127 C 
ATOM      6  C   LIG    1       26.629 -26.958   4.793  0.00  0.00    +0.029 C 
ATOM      7  O   LIG    1       23.208 -25.319   6.401  0.00  0.00    -0.250 OA
ATOM      8  C   LIG    1       26.036 -27.103   7.202  0.00  0.00    +0.135 C 
ATOM      9  C   LIG    1       25.651 -28.162   4.729  0.00  0.00    +0.034 C 
ENDROOT
BRANCH   1  13
ATOM     10  N   LIG    1       24.231 -30.512   5.367  0.00  0.00    -0.328 N 
ATOM     11  H   LIG    1       24.505 -30.343   4.405  0.00  0.00    +0.145 HD
ATOM     12  H   LIG    1       24.000 -31.447   5.670  0.00  0.00    +0.145 HD
ATOM     13  C   LIG    1       24.040 -29.465   6.226  0.00  0.00    +0.231 C 
ATOM     14  O   LIG    1       23.705 -29.666   7.388  0.00  0.00    -0.274 OA
ENDBRANCH   1  13
BRANCH   4  15
ATOM     15  O   LIG    1       25.779 -24.062   6.883  0.00  0.00    -0.096 OA
BRANCH  15  16
ATOM     16  S   LIG    1       25.194 -22.650   6.284  0.00  0.00    +0.227 S 
ATOM     17  O   LIG    1       26.264 -21.684   6.209  0.00  0.00    -0.116 OA
ATOM     18  O   LIG    1       23.961 -22.336   6.979  0.00  0.00    -0.116 OA
BRANCH  16  19
ATOM     19  O   LIG    1       24.755 -22.999   4.775  0.00  0.00    -0.230 OA
ATOM     20  H   LIG    1       24.112 -22.319   4.488  0.00  0.00    +0.247 HD
ENDBRANCH  16  19
ENDBRANCH  15  16
ENDBRANCH   4  15
TORSDOF 4
ENDMDL
