MODEL 1
REMARK VINA RESULT:       0.3      0.000      0.000
REMARK  Name = *****
REMARK                            x       y       z     vdW  Elec       q    Type
REMARK                         _______ _______ _______ _____ _____    ______ ____
ROOT
ATOM      1  C   LIG    1       26.348 -27.171  13.073  0.00  0.00    +0.162 A 
ATOM      2  C   LIG    1       25.140 -27.841  12.850  0.00  0.00    +0.170 A 
ATOM      3  O   LIG    1       24.268 -28.028  13.902  0.00  0.00    -0.449 OA
ATOM      4  C   LIG    1       23.003 -28.512  13.652  0.00  0.00    +0.170 A 
ATOM      5  C   LIG    1       21.927 -27.622  13.619  0.00  0.00    +0.162 A 
ATOM      6  C   LIG    1       20.637 -28.132  13.470  0.00  0.00    +0.053 A 
ATOM      7  C   LIG    1       20.412 -29.523  13.374  0.00  0.00    -0.030 A 
ATOM      8  C   LIG    1       18.983 -30.011  13.423  0.00  0.00    +0.086 C 
ATOM      9  C   LIG    1       18.767 -31.526  13.378  0.00  0.00    +0.138 C 
ATOM     10  N   LIG    1       19.933 -32.329  13.968  0.00  0.00    +0.245 N 
ATOM     11  C   LIG    1       21.277 -31.918  13.243  0.00  0.00    +0.102 C 
ATOM     12  C   LIG    1       21.266 -32.387  11.748  0.00  0.00    +0.094 C 
ATOM     13  C   LIG    1       22.504 -32.227  10.887  0.00  0.00    -0.042 A 
ATOM     14  C   LIG    1       22.334 -31.933   9.521  0.00  0.00    +0.007 A 
ATOM     15  C   LIG    1       23.425 -31.825   8.654  0.00  0.00    +0.046 A 
ATOM     16  C   LIG    1       24.718 -32.004   9.142  0.00  0.00    +0.129 A 
ATOM     17  O   LIG    1       25.887 -31.740   8.438  0.00  0.00    -0.452 OA
ATOM     18  C   LIG    1       25.778 -31.273   7.139  0.00  0.00    +0.182 A 
ATOM     19  C   LIG    1       25.737 -29.881   6.826  0.00  0.00    +0.050 A 
ATOM     20  C   LIG    1       26.028 -28.725   7.840  0.00  0.00    +0.105 C 
ATOM     21  N   LIG    1       25.622 -27.250   7.313  0.00  0.00    +0.245 N 
ATOM     22  C   LIG    1       24.663 -27.347   6.124  0.00  0.00    +0.138 C 
ATOM     23  C   LIG    1       25.245 -28.176   5.000  0.00  0.00    +0.086 C 
ATOM     24  C   LIG    1       24.907 -26.349   8.332  0.00  0.00    +0.193 C 
ATOM     25  C   LIG    1       26.905 -26.512   6.905  0.00  0.00    +0.193 C 
ATOM     26  C   LIG    1       25.495 -29.001   9.265  0.00  0.00    +0.095 C 
ATOM     27  C   LIG    1       25.810 -28.217  10.514  0.00  0.00    -0.038 A 
ATOM     28  C   LIG    1       27.021 -27.578  10.758  0.00  0.00    +0.007 A 
ATOM     29  C   LIG    1       25.502 -29.578   5.467  0.00  0.00    -0.027 A 
ATOM     30  C   LIG    1       25.454 -30.589   4.482  0.00  0.00    +0.054 A 
ATOM     31  C   LIG    1       25.607 -31.936   4.802  0.00  0.00    +0.166 A 
ATOM     32  C   LIG    1       25.762 -32.288   6.142  0.00  0.00    +0.205 A 
ATOM     33  C   LIG    1       24.895 -32.365  10.483  0.00  0.00    +0.046 A 
ATOM     34  C   LIG    1       23.798 -32.488  11.347  0.00  0.00    +0.007 A 
ATOM     35  C   LIG    1       19.634 -33.825  13.817  0.00  0.00    +0.193 C 
ATOM     36  C   LIG    1       20.057 -32.070  15.480  0.00  0.00    +0.193 C 
ATOM     37  C   LIG    1       21.501 -30.416  13.375  0.00  0.00    +0.008 A 
ATOM     38  C   LIG    1       22.794 -29.896  13.555  0.00  0.00    +0.059 A 
ATOM     39  C   LIG    1       24.881 -28.333  11.565  0.00  0.00    +0.053 A 
ATOM     40  C   LIG    1       27.265 -27.026  12.017  0.00  0.00    +0.050 A 
ENDROOT
BRANCH   1  42
ATOM     41  C   LIG    1       27.542 -25.386  14.116  0.00  0.00    +0.277 C 
ATOM     42  O   LIG    1       26.778 -26.578  14.231  0.00  0.00    -0.491 OA
ENDBRANCH   1  42
BRANCH   5  43
ATOM     43  O   LIG    1       22.227 -26.291  13.710  0.00  0.00    -0.491 OA
ATOM     44  C   LIG    1       22.594 -25.815  15.000  0.00  0.00    +0.277 C 
ENDBRANCH   5  43
BRANCH  31  45
ATOM     45  O   LIG    1       25.492 -32.922   3.861  0.00  0.00    -0.491 OA
ATOM     46  C   LIG    1       26.226 -32.734   2.653  0.00  0.00    +0.277 C 
ENDBRANCH  31  45
BRANCH  32  47
ATOM     47  O   LIG    1       25.855 -33.573   6.624  0.00  0.00    -0.488 OA
ATOM     48  C   LIG    1       26.825 -33.825   7.636  0.00  0.00    +0.277 C 
ENDBRANCH  32  47
TORSDOF 4
ENDMDL
MODEL 2
REMARK VINA RESULT:       1.9      2.524      7.620
REMARK  Name = *****
REMARK                            x       y       z     vdW  Elec       q    Type
REMARK                         _______ _______ _______ _____ _____    ______ ____
ROOT
ATOM      1  C   LIG    1       24.264 -31.331   9.216  0.00  0.00    +0.162 A 
ATOM      2  C   LIG    1       23.502 -31.118  10.371  0.00  0.00    +0.170 A 
ATOM      3  O   LIG    1       22.277 -31.741  10.495  0.00  0.00    -0.449 OA
ATOM      4  C   LIG    1       21.614 -31.690  11.701  0.00  0.00    +0.170 A 
ATOM      5  C   LIG    1       21.662 -32.797  12.551  0.00  0.00    +0.162 A 
ATOM      6  C   LIG    1       20.902 -32.779  13.722  0.00  0.00    +0.053 A 
ATOM      7  C   LIG    1       20.083 -31.674  14.039  0.00  0.00    -0.030 A 
ATOM      8  C   LIG    1       19.138 -31.811  15.210  0.00  0.00    +0.086 C 
ATOM      9  C   LIG    1       18.217 -30.622  15.499  0.00  0.00    +0.138 C 
ATOM     10  N   LIG    1       17.872 -29.797  14.252  0.00  0.00    +0.245 N 
ATOM     11  C   LIG    1       19.206 -29.331  13.541  0.00  0.00    +0.102 C 
ATOM     12  C   LIG    1       19.975 -28.296  14.430  0.00  0.00    +0.094 C 
ATOM     13  C   LIG    1       21.215 -27.603  13.899  0.00  0.00    -0.042 A 
ATOM     14  C   LIG    1       22.255 -27.309  14.801  0.00  0.00    +0.007 A 
ATOM     15  C   LIG    1       23.404 -26.623  14.396  0.00  0.00    +0.046 A 
ATOM     16  C   LIG    1       23.539 -26.221  13.069  0.00  0.00    +0.129 A 
ATOM     17  O   LIG    1       24.697 -25.708  12.497  0.00  0.00    -0.452 OA
ATOM     18  C   LIG    1       25.815 -25.563  13.302  0.00  0.00    +0.182 A 
ATOM     19  C   LIG    1       26.801 -26.587  13.436  0.00  0.00    +0.050 A 
ATOM     20  C   LIG    1       26.878 -27.878  12.553  0.00  0.00    +0.105 C 
ATOM     21  N   LIG    1       27.897 -29.008  13.102  0.00  0.00    +0.245 N 
ATOM     22  C   LIG    1       28.242 -28.755  14.573  0.00  0.00    +0.138 C 
ATOM     23  C   LIG    1       28.814 -27.370  14.784  0.00  0.00    +0.086 C 
ATOM     24  C   LIG    1       27.381 -30.454  13.055  0.00  0.00    +0.193 C 
ATOM     25  C   LIG    1       29.169 -28.973  12.243  0.00  0.00    +0.193 C 
ATOM     26  C   LIG    1       25.495 -28.466  12.191  0.00  0.00    +0.095 C 
ATOM     27  C   LIG    1       25.211 -29.545  11.176  0.00  0.00    -0.038 A 
ATOM     28  C   LIG    1       25.942 -29.739  10.009  0.00  0.00    +0.007 A 
ATOM     29  C   LIG    1       27.811 -26.327  14.386  0.00  0.00    -0.027 A 
ATOM     30  C   LIG    1       27.904 -25.081  15.045  0.00  0.00    +0.054 A 
ATOM     31  C   LIG    1       26.989 -24.057  14.814  0.00  0.00    +0.166 A 
ATOM     32  C   LIG    1       25.927 -24.298  13.942  0.00  0.00    +0.205 A 
ATOM     33  C   LIG    1       22.482 -26.447  12.179  0.00  0.00    +0.046 A 
ATOM     34  C   LIG    1       21.323 -27.121  12.591  0.00  0.00    +0.007 A 
ATOM     35  C   LIG    1       16.999 -28.608  14.668  0.00  0.00    +0.193 C 
ATOM     36  C   LIG    1       17.024 -30.627  13.272  0.00  0.00    +0.193 C 
ATOM     37  C   LIG    1       20.063 -30.545  13.198  0.00  0.00    +0.008 A 
ATOM     38  C   LIG    1       20.807 -30.584  12.006  0.00  0.00    +0.059 A 
ATOM     39  C   LIG    1       24.001 -30.245  11.344  0.00  0.00    +0.053 A 
ATOM     40  C   LIG    1       25.487 -30.656   9.059  0.00  0.00    +0.050 A 
ENDROOT
BRANCH   1  42
ATOM     41  C   LIG    1       24.170 -31.665   6.854  0.00  0.00    +0.277 C 
ATOM     42  O   LIG    1       23.985 -32.169   8.169  0.00  0.00    -0.491 OA
ENDBRANCH   1  42
BRANCH   5  43
ATOM     43  O   LIG    1       22.484 -33.825  12.178  0.00  0.00    -0.491 OA
ATOM     44  C   LIG    1       23.857 -33.692  12.528  0.00  0.00    +0.277 C 
ENDBRANCH   5  43
BRANCH  31  45
ATOM     45  O   LIG    1       27.034 -22.875  15.500  0.00  0.00    -0.491 OA
ATOM     46  C   LIG    1       25.848 -22.083  15.476  0.00  0.00    +0.277 C 
ENDBRANCH  31  45
BRANCH  32  47
ATOM     47  O   LIG    1       24.908 -23.417  13.663  0.00  0.00    -0.488 OA
ATOM     48  C   LIG    1       25.096 -22.520  12.572  0.00  0.00    +0.277 C 
ENDBRANCH  32  47
TORSDOF 4
ENDMDL
