MODEL 1
REMARK VINA RESULT:      66.6      0.000      0.000
REMARK  Name = *****
REMARK                            x       y       z     vdW  Elec       q    Type
REMARK                         _______ _______ _______ _____ _____    ______ ____
ROOT
ATOM      1  C   LIG    1       27.109 -16.115   3.394  0.00  0.00    +0.007 C 
ENDROOT
BRANCH   1   2
ATOM      2  C   LIG    1       27.996 -14.874   3.171  0.00  0.00    +0.041 C 
BRANCH   2   3
ATOM      3  C   LIG    1       27.701 -14.177   1.815  0.00  0.00    +0.232 C 
BRANCH   3   4
ATOM      4  O   LIG    1       26.446 -13.473   1.982  0.00  0.00    -0.465 OA
BRANCH   4   5
ATOM      5  C   LIG    1       26.545 -12.087   2.148  0.00  0.00    +0.312 C 
ATOM      6  O   LIG    1       27.488 -11.460   2.267  0.00  0.00    -0.251 OA
BRANCH   5   7
ATOM      7  C   LIG    1       25.095 -11.574   2.288  0.00  0.00    +0.171 C 
BRANCH   7   8
ATOM      8  C   LIG    1       24.099 -12.664   1.944  0.00  0.00    +0.145 C 
BRANCH   8   9
ATOM      9  N   LIG    1       23.611 -13.657   3.103  0.00  0.00    +0.247 N 
ATOM     10  C   LIG    1       24.724 -14.730   3.460  0.00  0.00    +0.102 C 
ATOM     11  C   LIG    1       25.745 -14.139   4.413  0.00  0.00    +0.008 A 
ATOM     12  C   LIG    1       25.272 -13.457   5.524  0.00  0.00    -0.030 A 
ATOM     13  C   LIG    1       26.133 -12.878   6.433  0.00  0.00    +0.053 A 
ATOM     14  C   LIG    1       27.492 -12.776   6.162  0.00  0.00    +0.162 A 
ATOM     15  C   LIG    1       27.974 -13.314   4.946  0.00  0.00    +0.162 A 
ATOM     16  C   LIG    1       23.808 -13.319   5.715  0.00  0.00    +0.086 C 
ATOM     17  C   LIG    1       27.118 -14.111   4.160  0.00  0.00    +0.059 A 
ATOM     18  C   LIG    1       23.184 -12.852   4.384  0.00  0.00    +0.138 C 
ATOM     19  C   LIG    1       22.385 -14.295   2.399  0.00  0.00    +0.193 C 
BRANCH  14  20
ATOM     20  O   LIG    1       28.339 -12.154   7.046  0.00  0.00    -0.491 OA
ATOM     21  C   LIG    1       29.457 -11.456   6.466  0.00  0.00    +0.277 C 
ENDBRANCH  14  20
BRANCH  15  22
ATOM     22  O   LIG    1       29.264 -13.050   4.548  0.00  0.00    -0.491 OA
ATOM     23  C   LIG    1       29.424 -12.504   3.229  0.00  0.00    +0.277 C 
ENDBRANCH  15  22
BRANCH  10  24
ATOM     24  C   LIG    1       24.192 -16.165   3.881  0.00  0.00    +0.095 C 
BRANCH  24  25
ATOM     25  C   LIG    1       24.952 -17.237   4.655  0.00  0.00    -0.038 A 
ATOM     26  C   LIG    1       26.296 -17.498   4.424  0.00  0.00    +0.053 A 
ATOM     27  C   LIG    1       27.141 -18.374   5.130  0.00  0.00    +0.162 A 
ATOM     28  C   LIG    1       26.605 -19.012   6.256  0.00  0.00    +0.162 A 
ATOM     29  C   LIG    1       25.241 -18.789   6.502  0.00  0.00    +0.050 A 
ATOM     30  C   LIG    1       24.423 -17.959   5.706  0.00  0.00    +0.007 A 
BRANCH  28  31
ATOM     31  O   LIG    1       27.353 -19.839   7.060  0.00  0.00    -0.491 OA
ATOM     32  C   LIG    1       27.228 -21.270   6.892  0.00  0.00    +0.277 C 
ENDBRANCH  28  31
BRANCH  27  33
ATOM     33  O   LIG    1       28.431 -18.547   4.655  0.00  0.00    -0.491 OA
ATOM     34  C   LIG    1       29.469 -17.927   5.453  0.00  0.00    +0.277 C 
ENDBRANCH  27  33
ENDBRANCH  24  25
ENDBRANCH  10  24
ENDBRANCH   8   9
ENDBRANCH   7   8
ENDBRANCH   5   7
ENDBRANCH   4   5
ENDBRANCH   3   4
ENDBRANCH   2   3
ENDBRANCH   1   2
BRANCH   1  35
ATOM     35  C   LIG    1       27.733 -17.418   3.900  0.00  0.00    +0.041 C 
BRANCH  35  36
ATOM     36  C   LIG    1       27.391 -18.655   3.068  0.00  0.00    +0.232 C 
BRANCH  36  37
ATOM     37  O   LIG    1       26.265 -18.260   2.181  0.00  0.00    -0.465 OA
BRANCH  37  38
ATOM     38  C   LIG    1       25.278 -19.137   2.333  0.00  0.00    +0.312 C 
ATOM     39  O   LIG    1       25.680 -20.178   2.975  0.00  0.00    -0.251 OA
BRANCH  38  40
ATOM     40  C   LIG    1       23.689 -18.627   1.822  0.00  0.00    +0.171 C 
BRANCH  40  41
ATOM     41  C   LIG    1       22.368 -18.256   2.586  0.00  0.00    +0.145 C 
BRANCH  41  43
ATOM     42  C   LIG    1       22.195 -20.167   4.781  0.00  0.00    +0.102 C 
ATOM     43  N   LIG    1       21.627 -19.499   3.389  0.00  0.00    +0.247 N 
ATOM     44  C   LIG    1       20.205 -19.061   3.563  0.00  0.00    +0.193 C 
ATOM     45  C   LIG    1       21.625 -20.709   2.373  0.00  0.00    +0.138 C 
ATOM     46  C   LIG    1       22.908 -21.569   2.339  0.00  0.00    +0.086 C 
ATOM     47  C   LIG    1       23.965 -21.260   3.365  0.00  0.00    -0.030 A 
ATOM     48  C   LIG    1       25.314 -21.562   3.109  0.00  0.00    +0.053 A 
ATOM     49  C   LIG    1       26.326 -21.230   4.030  0.00  0.00    +0.162 A 
ATOM     50  C   LIG    1       25.949 -20.794   5.324  0.00  0.00    +0.162 A 
ATOM     51  C   LIG    1       24.593 -20.532   5.560  0.00  0.00    +0.059 A 
ATOM     52  C   LIG    1       23.612 -20.663   4.579  0.00  0.00    +0.008 A 
BRANCH  50  53
ATOM     53  O   LIG    1       26.887 -20.534   6.301  0.00  0.00    -0.491 OA
ATOM     54  C   LIG    1       28.288 -20.605   5.952  0.00  0.00    +0.277 C 
ENDBRANCH  50  53
BRANCH  49  55
ATOM     55  O   LIG    1       27.659 -21.326   3.685  0.00  0.00    -0.491 OA
ATOM     56  C   LIG    1       28.591 -21.571   4.759  0.00  0.00    +0.277 C 
ENDBRANCH  49  55
BRANCH  42  57
ATOM     57  C   LIG    1       21.752 -19.499   6.194  0.00  0.00    +0.095 C 
BRANCH  57  61
ATOM     58  C   LIG    1       21.563 -15.194   6.108  0.00  0.00    +0.162 A 
ATOM     59  C   LIG    1       20.710 -16.070   5.487  0.00  0.00    +0.162 A 
ATOM     60  C   LIG    1       20.599 -17.302   6.127  0.00  0.00    +0.053 A 
ATOM     61  C   LIG    1       21.742 -17.994   6.397  0.00  0.00    -0.038 A 
ATOM     62  C   LIG    1       22.750 -17.181   6.888  0.00  0.00    +0.007 A 
ATOM     63  C   LIG    1       22.587 -15.774   6.852  0.00  0.00    +0.050 A 
BRANCH  58  65
ATOM     64  C   LIG    1       20.696 -13.239   7.036  0.00  0.00    +0.277 C 
ATOM     65  O   LIG    1       21.361 -13.851   5.941  0.00  0.00    -0.491 OA
ENDBRANCH  58  65
BRANCH  59  66
ATOM     66  O   LIG    1       20.193 -15.688   4.265  0.00  0.00    -0.491 OA
ATOM     67  C   LIG    1       20.844 -15.585   2.902  0.00  0.00    +0.277 C 
ENDBRANCH  59  66
ENDBRANCH  57  61
ENDBRANCH  42  57
ENDBRANCH  41  43
ENDBRANCH  40  41
ENDBRANCH  38  40
ENDBRANCH  37  38
ENDBRANCH  36  37
ENDBRANCH  35  36
ENDBRANCH   1  35
TORSDOF 26
ENDMDL
