MODEL 1
REMARK VINA RESULT:      -0.9      0.000      0.000
REMARK  Name = *****
REMARK                            x       y       z     vdW  Elec       q    Type
REMARK                         _______ _______ _______ _____ _____    ______ ____
ROOT
ATOM      1  N   LIG    1       22.049 -20.863   4.561  0.00  0.00    -0.298 NA
ATOM      2  C   LIG    1       22.488 -20.875   5.965  0.00  0.00    +0.090 C 
ATOM      3  C   LIG    1       23.811 -20.129   6.216  0.00  0.00    +0.069 C 
ATOM      4  C   LIG    1       24.884 -20.388   5.160  0.00  0.00    +0.027 C 
ATOM      5  C   LIG    1       24.501 -21.057   4.056  0.00  0.00    +0.010 C 
ATOM      6  C   LIG    1       23.095 -21.502   3.754  0.00  0.00    +0.113 C 
ENDROOT
BRANCH   4   7
ATOM      7  N   LIG    1       26.185 -19.932   5.419  0.00  0.00    -0.265 N 
ATOM      8  C   LIG    1       26.915 -18.810   4.901  0.00  0.00    +0.074 A 
ATOM      9  C   LIG    1       28.192 -18.815   5.470  0.00  0.00    +0.067 A 
ATOM     10  C   LIG    1       29.168 -17.877   5.197  0.00  0.00    +0.028 A 
ATOM     11  C   LIG    1       28.844 -16.866   4.297  0.00  0.00    +0.002 A 
ATOM     12  C   LIG    1       27.569 -16.825   3.714  0.00  0.00    +0.002 A 
ATOM     13  N   LIG    1       28.289 -19.884   6.336  0.00  0.00    -0.306 N 
ATOM     14  H   LIG    1       29.081 -20.141   6.903  0.00  0.00    +0.171 HD
ATOM     15  C   LIG    1       26.598 -17.794   4.017  0.00  0.00    +0.028 A 
ATOM     16  C   LIG    1       27.084 -20.587   6.352  0.00  0.00    +0.332 C 
ATOM     17  O   LIG    1       26.908 -21.569   7.062  0.00  0.00    -0.246 OA
ENDBRANCH   4   7
BRANCH   1  18
ATOM     18  C   LIG    1       21.725 -19.517   4.048  0.00  0.00    +0.085 C 
BRANCH  18  19
ATOM     19  C   LIG    1       22.218 -18.357   4.928  0.00  0.00    +0.023 C 
BRANCH  19  20
ATOM     20  C   LIG    1       22.975 -17.301   4.124  0.00  0.00    +0.081 C 
BRANCH  20  22
ATOM     21  O   LIG    1       22.189 -15.646   5.708  0.00  0.00    -0.292 OA
ATOM     22  C   LIG    1       22.895 -15.914   4.739  0.00  0.00    +0.163 C 
BRANCH  22  23
ATOM     23  C   LIG    1       23.763 -14.847   4.154  0.00  0.00    +0.018 A 
ATOM     24  C   LIG    1       25.024 -14.613   4.722  0.00  0.00    +0.014 A 
ATOM     25  C   LIG    1       25.871 -13.647   4.173  0.00  0.00    +0.039 A 
ATOM     26  C   LIG    1       25.450 -12.909   3.071  0.00  0.00    +0.123 A 
ATOM     27  F   LIG    1       26.262 -11.986   2.543  0.00  0.00    -0.205 F 
ATOM     28  C   LIG    1       24.194 -13.117   2.510  0.00  0.00    +0.039 A 
ATOM     29  C   LIG    1       23.349 -14.089   3.049  0.00  0.00    +0.014 A 
ENDBRANCH  22  23
ENDBRANCH  20  22
ENDBRANCH  19  20
ENDBRANCH  18  19
ENDBRANCH   1  18
TORSDOF 6
ENDMDL
MODEL 2
REMARK VINA RESULT:      -0.5      2.969      6.077
REMARK  Name = *****
REMARK                            x       y       z     vdW  Elec       q    Type
REMARK                         _______ _______ _______ _____ _____    ______ ____
ROOT
ATOM      1  N   LIG    1       22.255 -18.455   4.532  0.00  0.00    -0.298 NA
ATOM      2  C   LIG    1       22.891 -18.135   3.245  0.00  0.00    +0.090 C 
ATOM      3  C   LIG    1       23.982 -17.054   3.334  0.00  0.00    +0.069 C 
ATOM      4  C   LIG    1       23.618 -15.872   4.229  0.00  0.00    +0.027 C 
ATOM      5  C   LIG    1       22.505 -15.996   4.977  0.00  0.00    +0.010 C 
ATOM      6  C   LIG    1       21.640 -17.227   5.050  0.00  0.00    +0.113 C 
ENDROOT
BRANCH   4   7
ATOM      7  N   LIG    1       24.448 -14.742   4.198  0.00  0.00    -0.265 N 
ATOM      8  C   LIG    1       25.868 -14.616   4.033  0.00  0.00    +0.074 A 
ATOM      9  C   LIG    1       26.201 -13.260   4.099  0.00  0.00    +0.067 A 
ATOM     10  C   LIG    1       27.486 -12.768   3.982  0.00  0.00    +0.028 A 
ATOM     11  C   LIG    1       28.505 -13.695   3.783  0.00  0.00    +0.002 A 
ATOM     12  C   LIG    1       28.207 -15.063   3.703  0.00  0.00    +0.002 A 
ATOM     13  N   LIG    1       25.047 -12.527   4.283  0.00  0.00    -0.306 N 
ATOM     14  H   LIG    1       24.964 -11.526   4.354  0.00  0.00    +0.171 HD
ATOM     15  C   LIG    1       26.888 -15.529   3.822  0.00  0.00    +0.028 A 
ATOM     16  C   LIG    1       23.948 -13.386   4.333  0.00  0.00    +0.332 C 
ATOM     17  O   LIG    1       22.803 -12.976   4.467  0.00  0.00    -0.246 OA
ENDBRANCH   4   7
BRANCH   1  18
ATOM     18  C   LIG    1       23.174 -19.052   5.521  0.00  0.00    +0.085 C 
BRANCH  18  19
ATOM     19  C   LIG    1       22.590 -20.236   6.309  0.00  0.00    +0.023 C 
BRANCH  19  20
ATOM     20  C   LIG    1       23.264 -21.560   5.949  0.00  0.00    +0.081 C 
BRANCH  20  22
ATOM     21  O   LIG    1       24.239 -21.564   3.732  0.00  0.00    -0.292 OA
ATOM     22  C   LIG    1       24.389 -21.400   4.940  0.00  0.00    +0.163 C 
BRANCH  22  23
ATOM     23  C   LIG    1       25.726 -20.975   5.457  0.00  0.00    +0.018 A 
ATOM     24  C   LIG    1       26.412 -19.948   4.793  0.00  0.00    +0.014 A 
ATOM     25  C   LIG    1       27.647 -19.505   5.275  0.00  0.00    +0.039 A 
ATOM     26  C   LIG    1       28.197 -20.101   6.405  0.00  0.00    +0.123 A 
ATOM     27  F   LIG    1       29.378 -19.675   6.870  0.00  0.00    -0.205 F 
ATOM     28  C   LIG    1       27.536 -21.135   7.062  0.00  0.00    +0.039 A 
ATOM     29  C   LIG    1       26.297 -21.572   6.590  0.00  0.00    +0.014 A 
ENDBRANCH  22  23
ENDBRANCH  20  22
ENDBRANCH  19  20
ENDBRANCH  18  19
ENDBRANCH   1  18
TORSDOF 6
ENDMDL
MODEL 3
REMARK VINA RESULT:       0.4      2.189      5.458
REMARK  Name = *****
REMARK                            x       y       z     vdW  Elec       q    Type
REMARK                         _______ _______ _______ _____ _____    ______ ____
ROOT
ATOM      1  N   LIG    1       22.925 -20.130   4.393  0.00  0.00    -0.298 NA
ATOM      2  C   LIG    1       23.966 -19.622   3.487  0.00  0.00    +0.090 C 
ATOM      3  C   LIG    1       24.463 -18.207   3.831  0.00  0.00    +0.069 C 
ATOM      4  C   LIG    1       23.352 -17.231   4.214  0.00  0.00    +0.027 C 
ATOM      5  C   LIG    1       22.123 -17.751   4.398  0.00  0.00    +0.010 C 
ATOM      6  C   LIG    1       21.780 -19.215   4.326  0.00  0.00    +0.113 C 
ENDROOT
BRANCH   4   7
ATOM      7  N   LIG    1       23.680 -15.872   4.328  0.00  0.00    -0.265 N 
ATOM      8  C   LIG    1       24.755 -15.108   3.763  0.00  0.00    +0.074 A 
ATOM      9  C   LIG    1       24.639 -13.788   4.209  0.00  0.00    +0.067 A 
ATOM     10  C   LIG    1       25.509 -12.771   3.864  0.00  0.00    +0.028 A 
ATOM     11  C   LIG    1       26.561 -13.097   3.014  0.00  0.00    +0.002 A 
ATOM     12  C   LIG    1       26.703 -14.409   2.539  0.00  0.00    +0.002 A 
ATOM     13  N   LIG    1       23.527 -13.688   5.019  0.00  0.00    -0.306 N 
ATOM     14  H   LIG    1       23.177 -12.861   5.476  0.00  0.00    +0.171 HD
ATOM     15  C   LIG    1       25.798 -15.418   2.907  0.00  0.00    +0.028 A 
ATOM     16  C   LIG    1       22.898 -14.930   5.110  0.00  0.00    +0.332 C 
ATOM     17  O   LIG    1       21.872 -15.099   5.754  0.00  0.00    -0.246 OA
ENDBRANCH   4   7
BRANCH   1  18
ATOM     18  C   LIG    1       23.382 -20.315   5.785  0.00  0.00    +0.085 C 
BRANCH  18  19
ATOM     19  C   LIG    1       24.301 -21.527   6.005  0.00  0.00    +0.023 C 
BRANCH  19  20
ATOM     20  C   LIG    1       25.605 -21.417   5.215  0.00  0.00    +0.081 C 
BRANCH  20  22
ATOM     21  O   LIG    1       27.164 -21.570   7.062  0.00  0.00    -0.292 OA
ATOM     22  C   LIG    1       26.780 -20.963   6.065  0.00  0.00    +0.163 C 
BRANCH  22  23
ATOM     23  C   LIG    1       27.523 -19.743   5.624  0.00  0.00    +0.018 A 
ATOM     24  C   LIG    1       26.996 -18.973   4.577  0.00  0.00    +0.014 A 
ATOM     25  C   LIG    1       27.650 -17.807   4.168  0.00  0.00    +0.039 A 
ATOM     26  C   LIG    1       28.832 -17.426   4.794  0.00  0.00    +0.123 A 
ATOM     27  F   LIG    1       29.457 -16.309   4.405  0.00  0.00    -0.205 F 
ATOM     28  C   LIG    1       29.376 -18.192   5.821  0.00  0.00    +0.039 A 
ATOM     29  C   LIG    1       28.720 -19.351   6.239  0.00  0.00    +0.014 A 
ENDBRANCH  22  23
ENDBRANCH  20  22
ENDBRANCH  19  20
ENDBRANCH  18  19
ENDBRANCH   1  18
TORSDOF 6
ENDMDL
MODEL 4
REMARK VINA RESULT:       0.7      2.192      4.994
REMARK  Name = *****
REMARK                            x       y       z     vdW  Elec       q    Type
REMARK                         _______ _______ _______ _____ _____    ______ ____
ROOT
ATOM      1  N   LIG    1       28.108 -16.445   3.946  0.00  0.00    -0.298 NA
ATOM      2  C   LIG    1       27.179 -17.065   2.990  0.00  0.00    +0.090 C 
ATOM      3  C   LIG    1       26.078 -17.917   3.645  0.00  0.00    +0.069 C 
ATOM      4  C   LIG    1       26.570 -18.800   4.791  0.00  0.00    +0.027 C 
ATOM      5  C   LIG    1       27.829 -18.592   5.220  0.00  0.00    +0.010 C 
ATOM      6  C   LIG    1       28.755 -17.520   4.709  0.00  0.00    +0.113 C 
ENDROOT
BRANCH   4   7
ATOM      7  N   LIG    1       25.692 -19.768   5.299  0.00  0.00    -0.265 N 
ATOM      8  C   LIG    1       24.291 -19.984   5.079  0.00  0.00    +0.074 A 
ATOM      9  C   LIG    1       23.887 -21.080   5.847  0.00  0.00    +0.067 A 
ATOM     10  C   LIG    1       22.597 -21.572   5.882  0.00  0.00    +0.028 A 
ATOM     11  C   LIG    1       21.649 -20.925   5.095  0.00  0.00    +0.002 A 
ATOM     12  C   LIG    1       22.020 -19.828   4.304  0.00  0.00    +0.002 A 
ATOM     13  N   LIG    1       24.980 -21.572   6.529  0.00  0.00    -0.306 N 
ATOM     14  H   LIG    1       25.007 -22.364   7.150  0.00  0.00    +0.171 HD
ATOM     15  C   LIG    1       23.343 -19.356   4.289  0.00  0.00    +0.028 A 
ATOM     16  C   LIG    1       26.110 -20.815   6.215  0.00  0.00    +0.332 C 
ATOM     17  O   LIG    1       27.215 -21.066   6.676  0.00  0.00    -0.246 OA
ENDBRANCH   4   7
BRANCH   1  18
ATOM     18  C   LIG    1       27.474 -15.460   4.843  0.00  0.00    +0.085 C 
BRANCH  18  19
ATOM     19  C   LIG    1       27.721 -13.991   4.462  0.00  0.00    +0.023 C 
BRANCH  19  20
ATOM     20  C   LIG    1       27.433 -13.719   2.987  0.00  0.00    +0.081 C 
BRANCH  20  22
ATOM     21  O   LIG    1       25.739 -12.420   1.841  0.00  0.00    -0.292 OA
ATOM     22  C   LIG    1       26.023 -13.208   2.740  0.00  0.00    +0.163 C 
BRANCH  22  23
ATOM     23  C   LIG    1       24.932 -13.740   3.613  0.00  0.00    +0.018 A 
ATOM     24  C   LIG    1       24.340 -14.967   3.284  0.00  0.00    +0.014 A 
ATOM     25  C   LIG    1       23.344 -15.506   4.102  0.00  0.00    +0.039 A 
ATOM     26  C   LIG    1       22.933 -14.810   5.234  0.00  0.00    +0.123 A 
ATOM     27  F   LIG    1       21.981 -15.327   6.020  0.00  0.00    -0.205 F 
ATOM     28  C   LIG    1       23.498 -13.581   5.562  0.00  0.00    +0.039 A 
ATOM     29  C   LIG    1       24.502 -13.045   4.753  0.00  0.00    +0.014 A 
ENDBRANCH  22  23
ENDBRANCH  20  22
ENDBRANCH  19  20
ENDBRANCH  18  19
ENDBRANCH   1  18
TORSDOF 6
ENDMDL
MODEL 5
REMARK VINA RESULT:       0.9      1.779      4.627
REMARK  Name = *****
REMARK                            x       y       z     vdW  Elec       q    Type
REMARK                         _______ _______ _______ _____ _____    ______ ____
ROOT
ATOM      1  N   LIG    1       28.719 -19.946   5.840  0.00  0.00    -0.298 NA
ATOM      2  C   LIG    1       28.134 -20.439   4.585  0.00  0.00    +0.090 C 
ATOM      3  C   LIG    1       26.674 -20.009   4.360  0.00  0.00    +0.069 C 
ATOM      4  C   LIG    1       25.796 -20.101   5.607  0.00  0.00    +0.027 C 
ATOM      5  C   LIG    1       26.423 -20.347   6.774  0.00  0.00    +0.010 C 
ATOM      6  C   LIG    1       27.913 -20.467   6.951  0.00  0.00    +0.113 C 
ENDROOT
BRANCH   4   7
ATOM      7  N   LIG    1       24.411 -19.943   5.451  0.00  0.00    -0.265 N 
ATOM      8  C   LIG    1       23.648 -19.093   4.582  0.00  0.00    +0.074 A 
ATOM      9  C   LIG    1       22.291 -19.306   4.839  0.00  0.00    +0.067 A 
ATOM     10  C   LIG    1       21.264 -18.652   4.185  0.00  0.00    +0.028 A 
ATOM     11  C   LIG    1       21.620 -17.726   3.209  0.00  0.00    +0.002 A 
ATOM     12  C   LIG    1       22.973 -17.493   2.919  0.00  0.00    +0.002 A 
ATOM     13  N   LIG    1       22.169 -20.266   5.821  0.00  0.00    -0.306 N 
ATOM     14  H   LIG    1       21.317 -20.640   6.207  0.00  0.00    +0.171 HD
ATOM     15  C   LIG    1       23.992 -18.179   3.601  0.00  0.00    +0.028 A 
ATOM     16  C   LIG    1       23.436 -20.699   6.216  0.00  0.00    +0.332 C 
ATOM     17  O   LIG    1       23.597 -21.568   7.062  0.00  0.00    -0.246 OA
ENDBRANCH   4   7
BRANCH   1  18
ATOM     18  C   LIG    1       28.837 -18.476   5.908  0.00  0.00    +0.085 C 
BRANCH  18  19
ATOM     19  C   LIG    1       28.782 -17.763   4.547  0.00  0.00    +0.023 C 
BRANCH  19  20
ATOM     20  C   LIG    1       27.981 -16.463   4.607  0.00  0.00    +0.081 C 
BRANCH  20  22
ATOM     21  O   LIG    1       26.518 -17.368   2.902  0.00  0.00    -0.292 OA
ATOM     22  C   LIG    1       26.870 -16.400   3.572  0.00  0.00    +0.163 C 
BRANCH  22  23
ATOM     23  C   LIG    1       26.150 -15.101   3.408  0.00  0.00    +0.018 A 
ATOM     24  C   LIG    1       26.723 -14.106   2.602  0.00  0.00    +0.014 A 
ATOM     25  C   LIG    1       26.054 -12.895   2.402  0.00  0.00    +0.039 A 
ATOM     26  C   LIG    1       24.827 -12.677   3.019  0.00  0.00    +0.123 A 
ATOM     27  F   LIG    1       24.185 -11.520   2.825  0.00  0.00    -0.205 F 
ATOM     28  C   LIG    1       24.256 -13.648   3.838  0.00  0.00    +0.039 A 
ATOM     29  C   LIG    1       24.916 -14.863   4.031  0.00  0.00    +0.014 A 
ENDBRANCH  22  23
ENDBRANCH  20  22
ENDBRANCH  19  20
ENDBRANCH  18  19
ENDBRANCH   1  18
TORSDOF 6
ENDMDL
MODEL 6
REMARK VINA RESULT:       1.2      3.066      6.772
REMARK  Name = *****
REMARK                            x       y       z     vdW  Elec       q    Type
REMARK                         _______ _______ _______ _____ _____    ______ ____
ROOT
ATOM      1  N   LIG    1       25.445 -12.627   3.240  0.00  0.00    -0.298 NA
ATOM      2  C   LIG    1       24.332 -12.424   4.180  0.00  0.00    +0.090 C 
ATOM      3  C   LIG    1       23.869 -13.705   4.894  0.00  0.00    +0.069 C 
ATOM      4  C   LIG    1       23.782 -14.930   3.984  0.00  0.00    +0.027 C 
ATOM      5  C   LIG    1       24.296 -14.805   2.746  0.00  0.00    +0.010 C 
ATOM      6  C   LIG    1       25.006 -13.586   2.219  0.00  0.00    +0.113 C 
ENDROOT
BRANCH   4   7
ATOM      7  N   LIG    1       23.163 -16.082   4.490  0.00  0.00    -0.265 N 
ATOM      8  C   LIG    1       23.356 -17.471   4.185  0.00  0.00    +0.074 A 
ATOM      9  C   LIG    1       22.464 -18.220   4.958  0.00  0.00    +0.067 A 
ATOM     10  C   LIG    1       22.370 -19.598   4.921  0.00  0.00    +0.028 A 
ATOM     11  C   LIG    1       23.227 -20.270   4.054  0.00  0.00    +0.002 A 
ATOM     12  C   LIG    1       24.141 -19.551   3.269  0.00  0.00    +0.002 A 
ATOM     13  N   LIG    1       21.730 -17.361   5.748  0.00  0.00    -0.306 N 
ATOM     14  H   LIG    1       21.020 -17.605   6.420  0.00  0.00    +0.171 HD
ATOM     15  C   LIG    1       24.212 -18.150   3.335  0.00  0.00    +0.028 A 
ATOM     16  C   LIG    1       22.131 -16.045   5.511  0.00  0.00    +0.332 C 
ATOM     17  O   LIG    1       21.645 -15.095   6.108  0.00  0.00    -0.246 OA
ENDBRANCH   4   7
BRANCH   1  18
ATOM     18  C   LIG    1       26.698 -13.069   3.884  0.00  0.00    +0.085 C 
BRANCH  18  19
ATOM     19  C   LIG    1       27.487 -14.128   3.097  0.00  0.00    +0.023 C 
BRANCH  19  20
ATOM     20  C   LIG    1       28.022 -15.239   3.999  0.00  0.00    +0.081 C 
BRANCH  20  22
ATOM     21  O   LIG    1       26.424 -16.733   2.960  0.00  0.00    -0.292 OA
ATOM     22  C   LIG    1       27.321 -16.570   3.783  0.00  0.00    +0.163 C 
BRANCH  22  23
ATOM     23  C   LIG    1       27.793 -17.739   4.587  0.00  0.00    +0.018 A 
ATOM     24  C   LIG    1       27.001 -18.896   4.628  0.00  0.00    +0.014 A 
ATOM     25  C   LIG    1       27.434 -20.016   5.342  0.00  0.00    +0.039 A 
ATOM     26  C   LIG    1       28.645 -19.970   6.024  0.00  0.00    +0.123 A 
ATOM     27  F   LIG    1       29.062 -21.044   6.705  0.00  0.00    -0.205 F 
ATOM     28  C   LIG    1       29.431 -18.822   6.009  0.00  0.00    +0.039 A 
ATOM     29  C   LIG    1       29.007 -17.705   5.288  0.00  0.00    +0.014 A 
ENDBRANCH  22  23
ENDBRANCH  20  22
ENDBRANCH  19  20
ENDBRANCH  18  19
ENDBRANCH   1  18
TORSDOF 6
ENDMDL
MODEL 7
REMARK VINA RESULT:       1.5      2.800      5.504
REMARK  Name = *****
REMARK                            x       y       z     vdW  Elec       q    Type
REMARK                         _______ _______ _______ _____ _____    ______ ____
ROOT
ATOM      1  N   LIG    1       26.578 -13.683   3.446  0.00  0.00    -0.298 NA
ATOM      2  C   LIG    1       26.246 -14.702   2.438  0.00  0.00    +0.090 C 
ATOM      3  C   LIG    1       26.110 -16.126   3.004  0.00  0.00    +0.069 C 
ATOM      4  C   LIG    1       27.184 -16.498   4.024  0.00  0.00    +0.027 C 
ATOM      5  C   LIG    1       27.986 -15.504   4.452  0.00  0.00    +0.010 C 
ATOM      6  C   LIG    1       27.859 -14.056   4.059  0.00  0.00    +0.113 C 
ENDROOT
BRANCH   4   7
ATOM      7  N   LIG    1       27.274 -17.838   4.427  0.00  0.00    -0.265 N 
ATOM      8  C   LIG    1       26.366 -18.938   4.264  0.00  0.00    +0.074 A 
ATOM      9  C   LIG    1       26.926 -20.065   4.872  0.00  0.00    +0.067 A 
ATOM     10  C   LIG    1       26.324 -21.307   4.910  0.00  0.00    +0.028 A 
ATOM     11  C   LIG    1       25.081 -21.430   4.297  0.00  0.00    +0.002 A 
ATOM     12  C   LIG    1       24.493 -20.322   3.669  0.00  0.00    +0.002 A 
ATOM     13  N   LIG    1       28.155 -19.724   5.397  0.00  0.00    -0.306 N 
ATOM     14  H   LIG    1       28.801 -20.326   5.881  0.00  0.00    +0.171 HD
ATOM     15  C   LIG    1       25.135 -19.073   3.645  0.00  0.00    +0.028 A 
ATOM     16  C   LIG    1       28.420 -18.378   5.137  0.00  0.00    +0.332 C 
ATOM     17  O   LIG    1       29.462 -17.838   5.481  0.00  0.00    -0.246 OA
ENDBRANCH   4   7
BRANCH   1  18
ATOM     18  C   LIG    1       25.532 -13.490   4.469  0.00  0.00    +0.085 C 
BRANCH  18  19
ATOM     19  C   LIG    1       24.093 -13.675   3.959  0.00  0.00    +0.023 C 
BRANCH  19  20
ATOM     20  C   LIG    1       23.725 -15.148   3.786  0.00  0.00    +0.081 C 
BRANCH  20  22
ATOM     21  O   LIG    1       22.319 -14.938   5.747  0.00  0.00    -0.292 OA
ATOM     22  C   LIG    1       22.773 -15.653   4.857  0.00  0.00    +0.163 C 
BRANCH  22  23
ATOM     23  C   LIG    1       22.340 -17.082   4.779  0.00  0.00    +0.018 A 
ATOM     24  C   LIG    1       21.506 -17.479   3.724  0.00  0.00    +0.014 A 
ATOM     25  C   LIG    1       21.115 -18.816   3.605  0.00  0.00    +0.039 A 
ATOM     26  C   LIG    1       21.545 -19.744   4.548  0.00  0.00    +0.123 A 
ATOM     27  F   LIG    1       21.174 -21.025   4.433  0.00  0.00    -0.205 F 
ATOM     28  C   LIG    1       22.357 -19.359   5.611  0.00  0.00    +0.039 A 
ATOM     29  C   LIG    1       22.758 -18.027   5.727  0.00  0.00    +0.014 A 
ENDBRANCH  22  23
ENDBRANCH  20  22
ENDBRANCH  19  20
ENDBRANCH  18  19
ENDBRANCH   1  18
TORSDOF 6
ENDMDL
MODEL 8
REMARK VINA RESULT:       1.7      2.005      5.100
REMARK  Name = *****
REMARK                            x       y       z     vdW  Elec       q    Type
REMARK                         _______ _______ _______ _____ _____    ______ ____
ROOT
ATOM      1  N   LIG    1       29.140 -19.490   6.148  0.00  0.00    -0.298 NA
ATOM      2  C   LIG    1       29.023 -20.146   4.837  0.00  0.00    +0.090 C 
ATOM      3  C   LIG    1       27.621 -20.052   4.210  0.00  0.00    +0.069 C 
ATOM      4  C   LIG    1       26.478 -20.285   5.197  0.00  0.00    +0.027 C 
ATOM      5  C   LIG    1       26.805 -20.345   6.502  0.00  0.00    +0.010 C 
ATOM      6  C   LIG    1       28.187 -20.131   7.062  0.00  0.00    +0.113 C 
ENDROOT
BRANCH   4   7
ATOM      7  N   LIG    1       25.183 -20.438   4.681  0.00  0.00    -0.265 N 
ATOM      8  C   LIG    1       23.959 -20.850   5.304  0.00  0.00    +0.074 A 
ATOM      9  C   LIG    1       22.951 -20.856   4.336  0.00  0.00    +0.067 A 
ATOM     10  C   LIG    1       21.637 -21.206   4.582  0.00  0.00    +0.028 A 
ATOM     11  C   LIG    1       21.311 -21.572   5.885  0.00  0.00    +0.002 A 
ATOM     12  C   LIG    1       22.295 -21.569   6.885  0.00  0.00    +0.002 A 
ATOM     13  N   LIG    1       23.488 -20.448   3.132  0.00  0.00    -0.306 N 
ATOM     14  H   LIG    1       23.006 -20.339   2.255  0.00  0.00    +0.171 HD
ATOM     15  C   LIG    1       23.621 -21.204   6.600  0.00  0.00    +0.028 A 
ATOM     16  C   LIG    1       24.844 -20.165   3.295  0.00  0.00    +0.332 C 
ATOM     17  O   LIG    1       25.544 -19.761   2.376  0.00  0.00    -0.246 OA
ENDBRANCH   4   7
BRANCH   1  18
ATOM     18  C   LIG    1       28.940 -18.028   6.105  0.00  0.00    +0.085 C 
BRANCH  18  19
ATOM     19  C   LIG    1       28.750 -17.446   4.694  0.00  0.00    +0.023 C 
BRANCH  19  20
ATOM     20  C   LIG    1       27.895 -16.180   4.700  0.00  0.00    +0.081 C 
BRANCH  20  22
ATOM     21  O   LIG    1       26.402 -17.254   3.124  0.00  0.00    -0.292 OA
ATOM     22  C   LIG    1       26.757 -16.225   3.694  0.00  0.00    +0.163 C 
BRANCH  22  23
ATOM     23  C   LIG    1       26.013 -14.955   3.434  0.00  0.00    +0.018 A 
ATOM     24  C   LIG    1       26.686 -13.892   2.814  0.00  0.00    +0.014 A 
ATOM     25  C   LIG    1       26.005 -12.706   2.526  0.00  0.00    +0.039 A 
ATOM     26  C   LIG    1       24.664 -12.581   2.872  0.00  0.00    +0.123 A 
ATOM     27  F   LIG    1       24.011 -11.447   2.593  0.00  0.00    -0.205 F 
ATOM     28  C   LIG    1       23.989 -13.621   3.505  0.00  0.00    +0.039 A 
ATOM     29  C   LIG    1       24.663 -14.811   3.785  0.00  0.00    +0.014 A 
ENDBRANCH  22  23
ENDBRANCH  20  22
ENDBRANCH  19  20
ENDBRANCH  18  19
ENDBRANCH   1  18
TORSDOF 6
ENDMDL
MODEL 9
REMARK VINA RESULT:       1.8      3.055      6.520
REMARK  Name = *****
REMARK                            x       y       z     vdW  Elec       q    Type
REMARK                         _______ _______ _______ _____ _____    ______ ____
ROOT
ATOM      1  N   LIG    1       23.953 -13.928   4.545  0.00  0.00    -0.298 NA
ATOM      2  C   LIG    1       22.972 -14.287   5.580  0.00  0.00    +0.090 C 
ATOM      3  C   LIG    1       22.716 -15.799   5.706  0.00  0.00    +0.069 C 
ATOM      4  C   LIG    1       22.596 -16.526   4.368  0.00  0.00    +0.027 C 
ATOM      5  C   LIG    1       22.917 -15.824   3.264  0.00  0.00    +0.010 C 
ATOM      6  C   LIG    1       23.448 -14.415   3.255  0.00  0.00    +0.113 C 
ENDROOT
BRANCH   4   7
ATOM      7  N   LIG    1       22.146 -17.854   4.379  0.00  0.00    -0.265 N 
ATOM      8  C   LIG    1       22.611 -19.005   5.099  0.00  0.00    +0.074 A 
ATOM      9  C   LIG    1       21.825 -20.101   4.733  0.00  0.00    +0.067 A 
ATOM     10  C   LIG    1       21.993 -21.379   5.231  0.00  0.00    +0.028 A 
ATOM     11  C   LIG    1       23.012 -21.570   6.158  0.00  0.00    +0.002 A 
ATOM     12  C   LIG    1       23.815 -20.491   6.556  0.00  0.00    +0.002 A 
ATOM     13  N   LIG    1       20.875 -19.684   3.824  0.00  0.00    -0.306 N 
ATOM     14  H   LIG    1       20.158 -20.243   3.390  0.00  0.00    +0.171 HD
ATOM     15  C   LIG    1       23.614 -19.203   6.032  0.00  0.00    +0.028 A 
ATOM     16  C   LIG    1       21.019 -18.316   3.588  0.00  0.00    +0.332 C 
ATOM     17  O   LIG    1       20.278 -17.700   2.833  0.00  0.00    -0.246 OA
ENDBRANCH   4   7
BRANCH   1  18
ATOM     18  C   LIG    1       25.315 -14.431   4.811  0.00  0.00    +0.085 C 
BRANCH  18  19
ATOM     19  C   LIG    1       26.217 -14.532   3.570  0.00  0.00    +0.023 C 
BRANCH  19  20
ATOM     20  C   LIG    1       27.338 -15.554   3.751  0.00  0.00    +0.081 C 
BRANCH  20  22
ATOM     21  O   LIG    1       25.934 -17.369   2.976  0.00  0.00    -0.292 OA
ATOM     22  C   LIG    1       26.847 -16.992   3.706  0.00  0.00    +0.163 C 
BRANCH  22  23
ATOM     23  C   LIG    1       27.553 -17.991   4.564  0.00  0.00    +0.018 A 
ATOM     24  C   LIG    1       26.925 -19.217   4.831  0.00  0.00    +0.014 A 
ATOM     25  C   LIG    1       27.578 -20.184   5.600  0.00  0.00    +0.039 A 
ATOM     26  C   LIG    1       28.843 -19.918   6.111  0.00  0.00    +0.123 A 
ATOM     27  F   LIG    1       29.470 -20.845   6.845  0.00  0.00    -0.205 F 
ATOM     28  C   LIG    1       29.469 -18.698   5.871  0.00  0.00    +0.039 A 
ATOM     29  C   LIG    1       28.826 -17.734   5.094  0.00  0.00    +0.014 A 
ENDBRANCH  22  23
ENDBRANCH  20  22
ENDBRANCH  19  20
ENDBRANCH  18  19
ENDBRANCH   1  18
TORSDOF 6
ENDMDL
