MODEL 1
REMARK VINA RESULT:      -6.7      0.000      0.000
REMARK  Name = *****
REMARK                            x       y       z     vdW  Elec       q    Type
REMARK                         _______ _______ _______ _____ _____    ______ ____
ROOT
ATOM      1  O   LIG    1       22.607 -18.778   5.295  0.00  0.00    -0.367 OA
ENDROOT
BRANCH   1   7
ATOM      2  C   LIG    1       27.100 -20.359   6.094  0.00  0.00    +0.388 A 
ATOM      3  N   LIG    1       26.174 -20.702   7.062  0.00  0.00    -0.128 NA
ATOM      4  C   LIG    1       25.028 -20.732   6.426  0.00  0.00    +0.304 A 
ATOM      5  O   LIG    1       23.856 -20.951   7.011  0.00  0.00    -0.461 OA
ATOM      6  C   LIG    1       22.741 -21.123   6.129  0.00  0.00    +0.265 C 
ATOM      7  C   LIG    1       22.751 -20.164   4.920  0.00  0.00    +0.176 C 
ATOM      8  C   LIG    1       24.074 -20.358   4.170  0.00  0.00    +0.161 C 
ATOM      9  N   LIG    1       25.180 -20.441   5.098  0.00  0.00    -0.292 N 
ATOM     10  C   LIG    1       26.503 -20.219   4.853  0.00  0.00    +0.197 A 
BRANCH   2  12
ATOM     11  O   LIG    1       29.093 -21.114   6.921  0.00  0.00    +0.043 OA
ATOM     12  N   LIG    1       28.494 -20.158   6.416  0.00  0.00    +0.102 N 
ATOM     13  O   LIG    1       28.991 -19.046   6.163  0.00  0.00    -0.575 OA
ENDBRANCH   2  12
ENDBRANCH   1   7
BRANCH   1  14
ATOM     14  C   LIG    1       22.351 -17.923   4.174  0.00  0.00    +0.195 C 
BRANCH  14  15
ATOM     15  C   LIG    1       23.369 -16.813   4.073  0.00  0.00    -0.022 A 
ATOM     16  C   LIG    1       23.032 -15.510   4.459  0.00  0.00    +0.009 A 
ATOM     17  C   LIG    1       23.948 -14.458   4.325  0.00  0.00    +0.046 A 
ATOM     18  C   LIG    1       25.209 -14.687   3.780  0.00  0.00    +0.130 A 
ATOM     19  C   LIG    1       25.551 -15.987   3.395  0.00  0.00    +0.046 A 
ATOM     20  C   LIG    1       24.639 -17.040   3.528  0.00  0.00    +0.009 A 
BRANCH  18  21
ATOM     21  O   LIG    1       26.200 -13.769   3.612  0.00  0.00    -0.406 OA
BRANCH  21  22
ATOM     22  C   LIG    1       27.339 -13.768   4.461  0.00  0.00    +0.575 C 
ATOM     23  F   LIG    1       27.948 -14.972   4.349  0.00  0.00    -0.133 F 
ATOM     24  F   LIG    1       26.947 -13.617   5.744  0.00  0.00    -0.133 F 
ATOM     25  F   LIG    1       28.254 -12.822   4.169  0.00  0.00    -0.133 F 
ENDBRANCH  21  22
ENDBRANCH  18  21
ENDBRANCH  14  15
ENDBRANCH   1  14
TORSDOF 6
ENDMDL
MODEL 2
REMARK VINA RESULT:      -4.3      1.603      1.843
REMARK  Name = *****
REMARK                            x       y       z     vdW  Elec       q    Type
REMARK                         _______ _______ _______ _____ _____    ______ ____
ROOT
ATOM      1  O   LIG    1       22.778 -19.344   5.254  0.00  0.00    -0.367 OA
ENDROOT
BRANCH   1   7
ATOM      2  C   LIG    1       27.583 -19.607   5.661  0.00  0.00    +0.388 A 
ATOM      3  N   LIG    1       26.871 -20.218   6.677  0.00  0.00    -0.128 NA
ATOM      4  C   LIG    1       25.732 -20.557   6.124  0.00  0.00    +0.304 A 
ATOM      5  O   LIG    1       24.719 -21.111   6.781  0.00  0.00    -0.461 OA
ATOM      6  C   LIG    1       23.630 -21.572   5.974  0.00  0.00    +0.265 C 
ATOM      7  C   LIG    1       23.274 -20.624   4.810  0.00  0.00    +0.176 C 
ATOM      8  C   LIG    1       24.533 -20.421   3.960  0.00  0.00    +0.161 C 
ATOM      9  N   LIG    1       25.689 -20.207   4.802  0.00  0.00    -0.292 N 
ATOM     10  C   LIG    1       26.872 -19.616   4.473  0.00  0.00    +0.197 A 
BRANCH   2  12
ATOM     11  O   LIG    1       29.475 -18.572   4.905  0.00  0.00    +0.043 OA
ATOM     12  N   LIG    1       28.886 -19.027   5.891  0.00  0.00    +0.102 N 
ATOM     13  O   LIG    1       29.320 -19.024   7.056  0.00  0.00    -0.575 OA
ENDBRANCH   2  12
ENDBRANCH   1   7
BRANCH   1  14
ATOM     14  C   LIG    1       22.327 -18.518   4.173  0.00  0.00    +0.195 C 
BRANCH  14  15
ATOM     15  C   LIG    1       22.972 -17.153   4.204  0.00  0.00    -0.022 A 
ATOM     16  C   LIG    1       22.384 -16.113   4.934  0.00  0.00    +0.009 A 
ATOM     17  C   LIG    1       22.942 -14.827   4.934  0.00  0.00    +0.046 A 
ATOM     18  C   LIG    1       24.084 -14.554   4.185  0.00  0.00    +0.130 A 
ATOM     19  C   LIG    1       24.675 -15.591   3.456  0.00  0.00    +0.046 A 
ATOM     20  C   LIG    1       24.121 -16.876   3.454  0.00  0.00    +0.009 A 
BRANCH  18  21
ATOM     21  O   LIG    1       24.740 -13.364   4.109  0.00  0.00    -0.406 OA
BRANCH  21  22
ATOM     22  C   LIG    1       25.078 -12.801   2.849  0.00  0.00    +0.575 C 
ATOM     23  F   LIG    1       24.189 -13.253   1.935  0.00  0.00    -0.133 F 
ATOM     24  F   LIG    1       26.307 -13.222   2.480  0.00  0.00    -0.133 F 
ATOM     25  F   LIG    1       25.048 -11.454   2.813  0.00  0.00    -0.133 F 
ENDBRANCH  21  22
ENDBRANCH  18  21
ENDBRANCH  14  15
ENDBRANCH   1  14
TORSDOF 6
ENDMDL
