MODEL 1
REMARK VINA RESULT:      20.5      0.000      0.000
REMARK  Name = *****
REMARK                            x       y       z     vdW  Elec       q    Type
REMARK                         _______ _______ _______ _____ _____    ______ ____
ROOT
ATOM      1  C   LIG    1       23.974 -14.702   4.117  0.00  0.00    +0.183 C 
ATOM      2  C   LIG    1       23.552 -16.250   3.789  0.00  0.00    +0.021 C 
ATOM      3  C   LIG    1       22.190 -16.210   3.017  0.00  0.00    +0.016 C 
ATOM      4  C   LIG    1       23.241 -16.926   5.167  0.00  0.00    +0.003 C 
ATOM      5  C   LIG    1       24.111 -18.127   5.607  0.00  0.00    -0.000 C 
ATOM      6  C   LIG    1       24.527 -19.091   4.477  0.00  0.00    +0.035 C 
ATOM      7  C   LIG    1       25.249 -18.303   3.374  0.00  0.00    +0.120 C 
ATOM      8  C   LIG    1       23.472 -20.156   3.978  0.00  0.00    +0.013 C 
ATOM      9  C   LIG    1       24.275 -21.337   3.350  0.00  0.00    +0.020 C 
ATOM     10  C   LIG    1       22.600 -20.698   5.136  0.00  0.00    -0.056 C 
ATOM     11  C   LIG    1       21.608 -21.569   4.825  0.00  0.00    +0.051 C 
ATOM     12  C   LIG    1       20.626 -20.898   3.892  0.00  0.00    +0.179 C 
ATOM     13  O   LIG    1       19.429 -21.146   3.925  0.00  0.00    -0.288 OA
ATOM     14  C   LIG    1       21.211 -20.000   2.857  0.00  0.00    +0.047 C 
ATOM     15  C   LIG    1       22.295 -19.769   6.294  0.00  0.00    +0.032 C 
ATOM     16  C   LIG    1       22.520 -19.687   2.883  0.00  0.00    -0.012 C 
ATOM     17  C   LIG    1       23.486 -18.940   6.752  0.00  0.00    +0.008 C 
ATOM     18  C   LIG    1       23.251 -15.788   6.208  0.00  0.00    +0.009 C 
ATOM     19  C   LIG    1       24.563 -17.016   2.863  0.00  0.00    +0.043 C 
ATOM     20  C   LIG    1       23.221 -14.467   5.440  0.00  0.00    +0.057 C 
ENDROOT
BRANCH   1  21
ATOM     21  C   LIG    1       25.488 -14.621   4.410  0.00  0.00    +0.214 C 
ATOM     22  O   LIG    1       25.805 -14.193   5.522  0.00  0.00    -0.289 OA
BRANCH  21  23
ATOM     23  C   LIG    1       26.554 -14.941   3.346  0.00  0.00    +0.310 C 
BRANCH  23  24
ATOM     24  O   LIG    1       27.859 -14.433   3.708  0.00  0.00    -0.457 OA
BRANCH  24  25
ATOM     25  C   LIG    1       28.105 -13.115   3.444  0.00  0.00    +0.307 C 
ATOM     26  O   LIG    1       27.660 -12.492   2.490  0.00  0.00    -0.251 OA
BRANCH  25  27
ATOM     27  C   LIG    1       28.945 -12.506   4.550  0.00  0.00    +0.117 C 
ATOM     28  C   LIG    1       28.327 -12.868   5.879  0.00  0.00    +0.015 C 
ENDBRANCH  25  27
ENDBRANCH  24  25
ENDBRANCH  23  24
ENDBRANCH  21  23
ENDBRANCH   1  21
BRANCH   7  29
ATOM     29  O   LIG    1       26.571 -18.009   3.841  0.00  0.00    -0.391 OA
ATOM     30  H   LIG    1       26.575 -18.141   4.813  0.00  0.00    +0.210 HD
ENDBRANCH   7  29
BRANCH   1  31
ATOM     31  O   LIG    1       23.467 -13.901   3.026  0.00  0.00    -0.419 OA
BRANCH  31  32
ATOM     32  C   LIG    1       24.210 -12.855   2.526  0.00  0.00    +0.511 C 
ATOM     33  O   LIG    1       25.269 -12.952   1.990  0.00  0.00    -0.203 OA
BRANCH  32  34
ATOM     34  O   LIG    1       23.558 -11.719   2.901  0.00  0.00    -0.434 OA
BRANCH  34  36
ATOM     35  C   LIG    1       24.759 -11.556   5.055  0.00  0.00    +0.048 C 
ATOM     36  C   LIG    1       23.419 -11.453   4.338  0.00  0.00    +0.232 C 
ENDBRANCH  34  36
ENDBRANCH  32  34
ENDBRANCH  31  32
ENDBRANCH   1  31
TORSDOF 10
ENDMDL
MODEL 2
REMARK VINA RESULT:      21.8      2.556      6.926
REMARK  Name = *****
REMARK                            x       y       z     vdW  Elec       q    Type
REMARK                         _______ _______ _______ _____ _____    ______ ____
ROOT
ATOM      1  C   LIG    1       25.124 -19.270   4.341  0.00  0.00    +0.183 C 
ATOM      2  C   LIG    1       25.159 -17.640   4.497  0.00  0.00    +0.021 C 
ATOM      3  C   LIG    1       23.676 -17.146   4.581  0.00  0.00    +0.016 C 
ATOM      4  C   LIG    1       25.721 -17.078   3.148  0.00  0.00    +0.003 C 
ATOM      5  C   LIG    1       27.048 -16.284   3.181  0.00  0.00    -0.000 C 
ATOM      6  C   LIG    1       27.241 -15.370   4.409  0.00  0.00    +0.035 C 
ATOM      7  C   LIG    1       27.103 -16.203   5.692  0.00  0.00    +0.120 C 
ATOM      8  C   LIG    1       26.509 -13.970   4.421  0.00  0.00    +0.013 C 
ATOM      9  C   LIG    1       27.315 -13.039   5.380  0.00  0.00    +0.020 C 
ATOM     10  C   LIG    1       26.461 -13.327   3.014  0.00  0.00    -0.056 C 
ATOM     11  C   LIG    1       25.796 -12.152   2.880  0.00  0.00    +0.051 C 
ATOM     12  C   LIG    1       24.346 -12.351   3.255  0.00  0.00    +0.179 C 
ATOM     13  O   LIG    1       23.443 -11.740   2.701  0.00  0.00    -0.288 OA
ATOM     14  C   LIG    1       24.084 -13.253   4.412  0.00  0.00    +0.047 C 
ATOM     15  C   LIG    1       26.385 -14.246   1.812  0.00  0.00    +0.032 C 
ATOM     16  C   LIG    1       25.083 -13.969   4.961  0.00  0.00    -0.012 C 
ATOM     17  C   LIG    1       27.294 -15.462   1.905  0.00  0.00    +0.008 C 
ATOM     18  C   LIG    1       25.786 -18.280   2.184  0.00  0.00    +0.009 C 
ATOM     19  C   LIG    1       25.870 -17.129   5.802  0.00  0.00    +0.043 C 
ATOM     20  C   LIG    1       24.981 -19.415   2.814  0.00  0.00    +0.057 C 
ENDROOT
BRANCH   1  21
ATOM     21  C   LIG    1       26.487 -19.867   4.750  0.00  0.00    +0.214 C 
ATOM     22  O   LIG    1       27.463 -19.500   4.091  0.00  0.00    -0.289 OA
BRANCH  21  23
ATOM     23  C   LIG    1       26.623 -20.947   5.840  0.00  0.00    +0.310 C 
BRANCH  23  24
ATOM     24  O   LIG    1       27.329 -20.462   7.006  0.00  0.00    -0.457 OA
BRANCH  24  25
ATOM     25  C   LIG    1       28.695 -20.523   6.970  0.00  0.00    +0.307 C 
ATOM     26  O   LIG    1       29.358 -21.547   7.054  0.00  0.00    -0.251 OA
BRANCH  25  27
ATOM     27  C   LIG    1       29.275 -19.142   6.728  0.00  0.00    +0.117 C 
ATOM     28  C   LIG    1       29.432 -18.941   5.240  0.00  0.00    +0.015 C 
ENDBRANCH  25  27
ENDBRANCH  24  25
ENDBRANCH  23  24
ENDBRANCH  21  23
ENDBRANCH   1  21
BRANCH   7  29
ATOM     29  O   LIG    1       28.308 -16.961   5.853  0.00  0.00    -0.391 OA
ATOM     30  H   LIG    1       28.052 -17.863   6.140  0.00  0.00    +0.210 HD
ENDBRANCH   7  29
BRANCH   1  31
ATOM     31  O   LIG    1       23.958 -19.724   5.065  0.00  0.00    -0.419 OA
BRANCH  31  32
ATOM     32  C   LIG    1       22.901 -20.299   4.395  0.00  0.00    +0.511 C 
ATOM     33  O   LIG    1       22.982 -21.201   3.621  0.00  0.00    -0.203 OA
BRANCH  32  34
ATOM     34  O   LIG    1       21.810 -19.538   4.690  0.00  0.00    -0.434 OA
BRANCH  34  36
ATOM     35  C   LIG    1       20.117 -18.402   3.295  0.00  0.00    +0.048 C 
ATOM     36  C   LIG    1       21.539 -18.373   3.840  0.00  0.00    +0.232 C 
ENDBRANCH  34  36
ENDBRANCH  32  34
ENDBRANCH  31  32
ENDBRANCH   1  31
TORSDOF 10
ENDMDL
MODEL 3
REMARK VINA RESULT:      22.0      1.896      4.346
REMARK  Name = *****
REMARK                            x       y       z     vdW  Elec       q    Type
REMARK                         _______ _______ _______ _____ _____    ______ ____
ROOT
ATOM      1  C   LIG    1       25.591 -14.396   3.878  0.00  0.00    +0.183 C 
ATOM      2  C   LIG    1       25.277 -15.852   4.556  0.00  0.00    +0.021 C 
ATOM      3  C   LIG    1       26.151 -15.964   5.850  0.00  0.00    +0.016 C 
ATOM      4  C   LIG    1       25.836 -16.931   3.569  0.00  0.00    +0.003 C 
ATOM      5  C   LIG    1       24.842 -17.935   2.938  0.00  0.00    -0.000 C 
ATOM      6  C   LIG    1       23.709 -18.415   3.869  0.00  0.00    +0.035 C 
ATOM      7  C   LIG    1       22.945 -17.199   4.413  0.00  0.00    +0.120 C 
ATOM      8  C   LIG    1       24.038 -19.544   4.924  0.00  0.00    +0.013 C 
ATOM      9  C   LIG    1       22.693 -20.259   5.264  0.00  0.00    +0.020 C 
ATOM     10  C   LIG    1       25.038 -20.587   4.368  0.00  0.00    -0.056 C 
ATOM     11  C   LIG    1       25.454 -21.570   5.204  0.00  0.00    +0.051 C 
ATOM     12  C   LIG    1       26.165 -20.955   6.387  0.00  0.00    +0.179 C 
ATOM     13  O   LIG    1       27.110 -21.507   6.934  0.00  0.00    -0.288 OA
ATOM     14  C   LIG    1       25.584 -19.690   6.920  0.00  0.00    +0.047 C 
ATOM     15  C   LIG    1       26.074 -20.117   3.367  0.00  0.00    +0.032 C 
ATOM     16  C   LIG    1       24.590 -19.065   6.262  0.00  0.00    -0.012 C 
ATOM     17  C   LIG    1       25.530 -19.161   2.317  0.00  0.00    +0.008 C 
ATOM     18  C   LIG    1       26.634 -16.154   2.501  0.00  0.00    +0.009 C 
ATOM     19  C   LIG    1       23.786 -16.048   5.011  0.00  0.00    +0.043 C 
ATOM     20  C   LIG    1       26.828 -14.732   3.022  0.00  0.00    +0.057 C 
ENDROOT
BRANCH   1  21
ATOM     21  C   LIG    1       24.445 -14.003   2.922  0.00  0.00    +0.214 C 
ATOM     22  O   LIG    1       24.781 -13.573   1.815  0.00  0.00    -0.289 OA
BRANCH  21  23
ATOM     23  C   LIG    1       22.965 -14.030   3.349  0.00  0.00    +0.310 C 
BRANCH  23  24
ATOM     24  O   LIG    1       22.744 -13.337   4.599  0.00  0.00    -0.457 OA
BRANCH  24  25
ATOM     25  C   LIG    1       23.161 -12.037   4.668  0.00  0.00    +0.307 C 
ATOM     26  O   LIG    1       23.466 -11.448   5.696  0.00  0.00    -0.251 OA
BRANCH  25  27
ATOM     27  C   LIG    1       23.271 -11.447   3.275  0.00  0.00    +0.117 C 
ATOM     28  C   LIG    1       24.694 -11.606   2.797  0.00  0.00    +0.015 C 
ENDBRANCH  25  27
ENDBRANCH  24  25
ENDBRANCH  23  24
ENDBRANCH  21  23
ENDBRANCH   1  21
BRANCH   7  29
ATOM     29  O   LIG    1       22.105 -16.706   3.364  0.00  0.00    -0.391 OA
ATOM     30  H   LIG    1       22.631 -16.062   2.844  0.00  0.00    +0.210 HD
ENDBRANCH   7  29
BRANCH   1  31
ATOM     31  O   LIG    1       25.883 -13.493   4.968  0.00  0.00    -0.419 OA
BRANCH  31  32
ATOM     32  C   LIG    1       27.187 -13.223   5.318  0.00  0.00    +0.511 C 
ATOM     33  O   LIG    1       27.827 -13.826   6.122  0.00  0.00    -0.203 OA
BRANCH  32  34
ATOM     34  O   LIG    1       27.517 -12.067   4.676  0.00  0.00    -0.434 OA
BRANCH  34  36
ATOM     35  C   LIG    1       29.416 -13.269   3.648  0.00  0.00    +0.048 C 
ATOM     36  C   LIG    1       28.378 -12.165   3.492  0.00  0.00    +0.232 C 
ENDBRANCH  34  36
ENDBRANCH  32  34
ENDBRANCH  31  32
ENDBRANCH   1  31
TORSDOF 10
ENDMDL
MODEL 4
REMARK VINA RESULT:      22.7      1.745      3.613
REMARK  Name = *****
REMARK                            x       y       z     vdW  Elec       q    Type
REMARK                         _______ _______ _______ _____ _____    ______ ____
ROOT
ATOM      1  C   LIG    1       24.465 -14.307   4.135  0.00  0.00    +0.183 C 
ATOM      2  C   LIG    1       24.039 -15.804   4.644  0.00  0.00    +0.021 C 
ATOM      3  C   LIG    1       24.603 -15.983   6.094  0.00  0.00    +0.016 C 
ATOM      4  C   LIG    1       24.832 -16.817   3.750  0.00  0.00    +0.003 C 
ATOM      5  C   LIG    1       24.028 -17.792   2.857  0.00  0.00    -0.000 C 
ATOM      6  C   LIG    1       22.726 -18.338   3.480  0.00  0.00    +0.035 C 
ATOM      7  C   LIG    1       21.832 -17.163   3.904  0.00  0.00    +0.120 C 
ATOM      8  C   LIG    1       22.835 -19.523   4.518  0.00  0.00    +0.013 C 
ATOM      9  C   LIG    1       21.465 -20.271   4.506  0.00  0.00    +0.020 C 
ATOM     10  C   LIG    1       23.958 -20.521   4.146  0.00  0.00    -0.056 C 
ATOM     11  C   LIG    1       24.198 -21.548   4.999  0.00  0.00    +0.051 C 
ATOM     12  C   LIG    1       24.611 -20.996   6.344  0.00  0.00    +0.179 C 
ATOM     13  O   LIG    1       25.421 -21.570   7.059  0.00  0.00    -0.288 OA
ATOM     14  C   LIG    1       23.896 -19.771   6.801  0.00  0.00    +0.047 C 
ATOM     15  C   LIG    1       25.182 -19.983   3.433  0.00  0.00    +0.032 C 
ATOM     16  C   LIG    1       23.061 -19.118   5.971  0.00  0.00    -0.012 C 
ATOM     17  C   LIG    1       24.866 -18.972   2.341  0.00  0.00    +0.008 C 
ATOM     18  C   LIG    1       25.830 -15.971   2.935  0.00  0.00    +0.009 C 
ATOM     19  C   LIG    1       22.489 -16.042   4.739  0.00  0.00    +0.043 C 
ATOM     20  C   LIG    1       25.870 -14.579   3.564  0.00  0.00    +0.057 C 
ENDROOT
BRANCH   1  21
ATOM     21  C   LIG    1       23.554 -13.870   2.968  0.00  0.00    +0.214 C 
ATOM     22  O   LIG    1       22.589 -14.600   2.726  0.00  0.00    -0.289 OA
BRANCH  21  23
ATOM     23  C   LIG    1       23.879 -12.658   2.074  0.00  0.00    +0.310 C 
BRANCH  23  24
ATOM     24  O   LIG    1       25.148 -12.052   2.414  0.00  0.00    -0.457 OA
BRANCH  24  25
ATOM     25  C   LIG    1       26.250 -12.860   2.375  0.00  0.00    +0.307 C 
ATOM     26  O   LIG    1       26.309 -13.945   1.815  0.00  0.00    -0.251 OA
BRANCH  25  27
ATOM     27  C   LIG    1       27.422 -12.181   3.057  0.00  0.00    +0.117 C 
ATOM     28  C   LIG    1       28.663 -13.005   2.814  0.00  0.00    +0.015 C 
ENDBRANCH  25  27
ENDBRANCH  24  25
ENDBRANCH  23  24
ENDBRANCH  21  23
ENDBRANCH   1  21
BRANCH   7  29
ATOM     29  O   LIG    1       21.237 -16.618   2.721  0.00  0.00    -0.391 OA
ATOM     30  H   LIG    1       20.437 -16.122   2.995  0.00  0.00    +0.210 HD
ENDBRANCH   7  29
BRANCH   1  31
ATOM     31  O   LIG    1       24.483 -13.467   5.311  0.00  0.00    -0.419 OA
BRANCH  31  32
ATOM     32  C   LIG    1       25.680 -13.061   5.859  0.00  0.00    +0.511 C 
ATOM     33  O   LIG    1       25.897 -11.990   6.331  0.00  0.00    -0.203 OA
BRANCH  32  34
ATOM     34  O   LIG    1       26.565 -14.068   5.614  0.00  0.00    -0.434 OA
BRANCH  34  36
ATOM     35  C   LIG    1       28.285 -12.344   6.033  0.00  0.00    +0.048 C 
ATOM     36  C   LIG    1       27.976 -13.832   5.940  0.00  0.00    +0.232 C 
ENDBRANCH  34  36
ENDBRANCH  32  34
ENDBRANCH  31  32
ENDBRANCH   1  31
TORSDOF 10
ENDMDL
MODEL 5
REMARK VINA RESULT:      22.8      1.770      7.609
REMARK  Name = *****
REMARK                            x       y       z     vdW  Elec       q    Type
REMARK                         _______ _______ _______ _____ _____    ______ ____
ROOT
ATOM      1  C   LIG    1       23.386 -18.009   4.105  0.00  0.00    +0.183 C 
ATOM      2  C   LIG    1       24.290 -16.712   3.679  0.00  0.00    +0.021 C 
ATOM      3  C   LIG    1       25.787 -17.170   3.662  0.00  0.00    +0.016 C 
ATOM      4  C   LIG    1       24.171 -15.684   4.855  0.00  0.00    +0.003 C 
ATOM      5  C   LIG    1       23.540 -14.302   4.560  0.00  0.00    -0.000 C 
ATOM      6  C   LIG    1       23.889 -13.696   3.185  0.00  0.00    +0.035 C 
ATOM      7  C   LIG    1       23.506 -14.689   2.078  0.00  0.00    +0.120 C 
ATOM      8  C   LIG    1       25.291 -12.990   3.015  0.00  0.00    +0.013 C 
ATOM      9  C   LIG    1       25.152 -11.971   1.841  0.00  0.00    +0.020 C 
ATOM     10  C   LIG    1       25.720 -12.230   4.294  0.00  0.00    -0.056 C 
ATOM     11  C   LIG    1       26.940 -11.638   4.297  0.00  0.00    +0.051 C 
ATOM     12  C   LIG    1       28.008 -12.690   4.105  0.00  0.00    +0.179 C 
ATOM     13  O   LIG    1       29.106 -12.604   4.637  0.00  0.00    -0.288 OA
ATOM     14  C   LIG    1       27.689 -13.784   3.144  0.00  0.00    +0.047 C 
ATOM     15  C   LIG    1       25.271 -12.780   5.632  0.00  0.00    +0.032 C 
ATOM     16  C   LIG    1       26.453 -13.899   2.625  0.00  0.00    -0.012 C 
ATOM     17  C   LIG    1       23.828 -13.260   5.652  0.00  0.00    +0.008 C 
ATOM     18  C   LIG    1       23.442 -16.426   5.993  0.00  0.00    +0.009 C 
ATOM     19  C   LIG    1       23.983 -16.150   2.245  0.00  0.00    +0.043 C 
ATOM     20  C   LIG    1       23.441 -17.913   5.642  0.00  0.00    +0.057 C 
ENDROOT
BRANCH   1  21
ATOM     21  C   LIG    1       21.921 -17.796   3.668  0.00  0.00    +0.214 C 
ATOM     22  O   LIG    1       21.581 -16.630   3.450  0.00  0.00    -0.289 OA
BRANCH  21  23
ATOM     23  C   LIG    1       20.900 -18.947   3.611  0.00  0.00    +0.310 C 
BRANCH  23  24
ATOM     24  O   LIG    1       21.021 -19.843   4.740  0.00  0.00    -0.457 OA
BRANCH  24  25
ATOM     25  C   LIG    1       21.735 -20.993   4.543  0.00  0.00    +0.307 C 
ATOM     26  O   LIG    1       22.033 -21.458   3.452  0.00  0.00    -0.251 OA
BRANCH  25  27
ATOM     27  C   LIG    1       22.178 -21.570   5.873  0.00  0.00    +0.117 C 
ATOM     28  C   LIG    1       22.681 -20.444   6.743  0.00  0.00    +0.015 C 
ENDBRANCH  25  27
ENDBRANCH  24  25
ENDBRANCH  23  24
ENDBRANCH  21  23
ENDBRANCH   1  21
BRANCH   7  29
ATOM     29  O   LIG    1       22.083 -14.646   1.926  0.00  0.00    -0.391 OA
ATOM     30  H   LIG    1       21.704 -14.357   2.783  0.00  0.00    +0.210 HD
ENDBRANCH   7  29
BRANCH   1  31
ATOM     31  O   LIG    1       24.070 -19.171   3.585  0.00  0.00    -0.419 OA
BRANCH  31  32
ATOM     32  C   LIG    1       25.215 -19.636   4.192  0.00  0.00    +0.511 C 
ATOM     33  O   LIG    1       26.232 -19.027   4.311  0.00  0.00    -0.203 OA
BRANCH  32  34
ATOM     34  O   LIG    1       24.981 -20.947   4.482  0.00  0.00    -0.434 OA
BRANCH  34  36
ATOM     35  C   LIG    1       26.177 -20.491   6.596  0.00  0.00    +0.048 C 
ATOM     36  C   LIG    1       25.728 -21.546   5.593  0.00  0.00    +0.232 C 
ENDBRANCH  34  36
ENDBRANCH  32  34
ENDBRANCH  31  32
ENDBRANCH   1  31
TORSDOF 10
ENDMDL
