MODEL 1
REMARK VINA RESULT:      -6.6      0.000      0.000
REMARK  Name = *****
REMARK                            x       y       z     vdW  Elec       q    Type
REMARK                         _______ _______ _______ _____ _____    ______ ____
ROOT
ATOM      1  C   LIG    1       25.439 -30.933   5.558  0.00  0.00    +0.010 C 
ATOM      2  C   LIG    1       24.557 -30.200   6.590  0.00  0.00    +0.021 C 
ATOM      3  C   LIG    1       25.232 -30.040   7.994  0.00  0.00    +0.097 C 
ATOM      4  C   LIG    1       26.330 -28.965   7.855  0.00  0.00    +0.038 C 
ATOM      5  C   LIG    1       25.826 -27.646   7.288  0.00  0.00    +0.086 C 
ATOM      6  N   LIG    1       25.116 -27.753   6.007  0.00  0.00    -0.299 NA
ATOM      7  C   LIG    1       24.115 -28.838   5.995  0.00  0.00    +0.089 C 
ENDROOT
BRANCH   3   8
ATOM      8  C   LIG    1       25.803 -31.397   8.495  0.00  0.00    -0.030 A 
ATOM      9  C   LIG    1       27.045 -31.896   8.062  0.00  0.00    +0.005 A 
ATOM     10  C   LIG    1       27.563 -33.094   8.558  0.00  0.00    +0.000 A 
ATOM     11  C   LIG    1       26.848 -33.825   9.497  0.00  0.00    +0.000 A 
ATOM     12  C   LIG    1       25.613 -33.359   9.940  0.00  0.00    +0.000 A 
ATOM     13  C   LIG    1       25.094 -32.156   9.447  0.00  0.00    +0.005 A 
ENDBRANCH   3   8
BRANCH   6  14
ATOM     14  C   LIG    1       24.486 -26.441   5.644  0.00  0.00    +0.057 C 
ATOM     15  C   LIG    1       25.415 -25.581   4.760  0.00  0.00    +0.021 C 
ATOM     16  C   LIG    1       24.896 -24.163   4.496  0.00  0.00    +0.028 C 
ATOM     17  C   LIG    1       24.560 -23.365   5.781  0.00  0.00    +0.082 C 
ATOM     18  C   LIG    1       23.568 -24.236   6.597  0.00  0.00    +0.028 C 
ATOM     19  C   LIG    1       24.062 -25.649   6.898  0.00  0.00    +0.021 C 
BRANCH  17  20
ATOM     20  C   LIG    1       23.958 -21.988   5.412  0.00  0.00    -0.027 A 
ATOM     21  C   LIG    1       24.379 -21.310   4.247  0.00  0.00    +0.008 A 
ATOM     22  C   LIG    1       23.857 -20.055   3.910  0.00  0.00    +0.039 A 
ATOM     23  C   LIG    1       22.910 -19.460   4.731  0.00  0.00    +0.123 A 
ATOM     24  F   LIG    1       22.408 -18.260   4.410  0.00  0.00    -0.205 F 
ATOM     25  C   LIG    1       22.474 -20.095   5.881  0.00  0.00    +0.039 A 
ATOM     26  C   LIG    1       22.995 -21.346   6.219  0.00  0.00    +0.008 A 
ENDBRANCH  17  20
BRANCH  17  27
ATOM     27  C   LIG    1       25.795 -23.159   6.591  0.00  0.00    +0.074 C 
ATOM     28  N   LIG    1       26.750 -23.026   7.249  0.00  0.00    -0.196 NA
ENDBRANCH  17  27
ENDBRANCH   6  14
BRANCH   3  29
ATOM     29  C   LIG    1       24.200 -29.496   9.033  0.00  0.00    +0.316 C 
ATOM     30  O   LIG    1       24.479 -28.808  10.005  0.00  0.00    -0.250 OA
BRANCH  29  31
ATOM     31  O   LIG    1       22.918 -29.896   8.845  0.00  0.00    -0.480 OA
ATOM     32  H   LIG    1       22.243 -29.300   9.223  0.00  0.00    +0.295 HD
ENDBRANCH  29  31
ENDBRANCH   3  29
TORSDOF 6
ENDMDL
MODEL 2
REMARK VINA RESULT:      -6.3      3.937     10.204
REMARK  Name = *****
REMARK                            x       y       z     vdW  Elec       q    Type
REMARK                         _______ _______ _______ _____ _____    ______ ____
ROOT
ATOM      1  C   LIG    1       25.199 -20.372   6.969  0.00  0.00    +0.010 C 
ATOM      2  C   LIG    1       23.881 -21.120   6.676  0.00  0.00    +0.021 C 
ATOM      3  C   LIG    1       23.391 -20.976   5.195  0.00  0.00    +0.097 C 
ATOM      4  C   LIG    1       24.322 -21.840   4.319  0.00  0.00    +0.038 C 
ATOM      5  C   LIG    1       24.418 -23.290   4.771  0.00  0.00    +0.086 C 
ATOM      6  N   LIG    1       24.799 -23.475   6.177  0.00  0.00    -0.299 NA
ATOM      7  C   LIG    1       24.043 -22.603   7.098  0.00  0.00    +0.089 C 
ENDROOT
BRANCH   3   8
ATOM      8  C   LIG    1       23.388 -19.486   4.752  0.00  0.00    -0.030 A 
ATOM      9  C   LIG    1       22.341 -18.606   5.083  0.00  0.00    +0.005 A 
ATOM     10  C   LIG    1       22.376 -17.259   4.716  0.00  0.00    +0.000 A 
ATOM     11  C   LIG    1       23.459 -16.761   4.005  0.00  0.00    +0.000 A 
ATOM     12  C   LIG    1       24.507 -17.610   3.658  0.00  0.00    +0.000 A 
ATOM     13  C   LIG    1       24.475 -18.959   4.028  0.00  0.00    +0.005 A 
ENDBRANCH   3   8
BRANCH   6  14
ATOM     14  C   LIG    1       24.662 -24.916   6.573  0.00  0.00    +0.057 C 
ATOM     15  C   LIG    1       25.986 -25.493   7.117  0.00  0.00    +0.021 C 
ATOM     16  C   LIG    1       25.954 -27.003   7.380  0.00  0.00    +0.028 C 
ATOM     17  C   LIG    1       25.515 -27.846   6.157  0.00  0.00    +0.082 C 
ATOM     18  C   LIG    1       24.146 -27.277   5.695  0.00  0.00    +0.028 C 
ATOM     19  C   LIG    1       24.147 -25.779   5.402  0.00  0.00    +0.021 C 
BRANCH  17  20
ATOM     20  C   LIG    1       25.422 -29.342   6.546  0.00  0.00    -0.027 A 
ATOM     21  C   LIG    1       25.258 -29.723   7.895  0.00  0.00    +0.008 A 
ATOM     22  C   LIG    1       25.192 -31.072   8.264  0.00  0.00    +0.039 A 
ATOM     23  C   LIG    1       25.289 -32.058   7.293  0.00  0.00    +0.123 A 
ATOM     24  F   LIG    1       25.224 -33.349   7.643  0.00  0.00    -0.205 F 
ATOM     25  C   LIG    1       25.450 -31.721   5.960  0.00  0.00    +0.039 A 
ATOM     26  C   LIG    1       25.518 -30.375   5.590  0.00  0.00    +0.008 A 
ENDBRANCH  17  20
BRANCH  17  27
ATOM     27  C   LIG    1       26.499 -27.688   5.048  0.00  0.00    +0.074 C 
ATOM     28  N   LIG    1       27.271 -27.527   4.187  0.00  0.00    -0.196 NA
ENDBRANCH  17  27
ENDBRANCH   6  14
BRANCH   3  29
ATOM     29  C   LIG    1       21.954 -21.567   5.041  0.00  0.00    +0.316 C 
ATOM     30  O   LIG    1       21.072 -21.095   4.337  0.00  0.00    -0.250 OA
BRANCH  29  31
ATOM     31  O   LIG    1       21.681 -22.646   5.815  0.00  0.00    -0.480 OA
ATOM     32  H   LIG    1       21.880 -22.531   6.764  0.00  0.00    +0.295 HD
ENDBRANCH  29  31
ENDBRANCH   3  29
TORSDOF 6
ENDMDL
MODEL 3
REMARK VINA RESULT:      -6.3      2.090      2.819
REMARK  Name = *****
REMARK                            x       y       z     vdW  Elec       q    Type
REMARK                         _______ _______ _______ _____ _____    ______ ____
ROOT
ATOM      1  C   LIG    1       25.910 -29.075   9.410  0.00  0.00    +0.010 C 
ATOM      2  C   LIG    1       26.270 -29.119   7.911  0.00  0.00    +0.021 C 
ATOM      3  C   LIG    1       25.255 -29.937   7.043  0.00  0.00    +0.097 C 
ATOM      4  C   LIG    1       23.968 -29.093   6.926  0.00  0.00    +0.038 C 
ATOM      5  C   LIG    1       24.204 -27.688   6.391  0.00  0.00    +0.086 C 
ATOM      6  N   LIG    1       25.207 -26.907   7.125  0.00  0.00    -0.299 NA
ATOM      7  C   LIG    1       26.444 -27.667   7.394  0.00  0.00    +0.089 C 
ENDROOT
BRANCH   3   8
ATOM      8  C   LIG    1       24.983 -31.333   7.672  0.00  0.00    -0.030 A 
ATOM      9  C   LIG    1       26.023 -32.201   8.051  0.00  0.00    +0.005 A 
ATOM     10  C   LIG    1       25.761 -33.432   8.657  0.00  0.00    +0.000 A 
ATOM     11  C   LIG    1       24.451 -33.825   8.895  0.00  0.00    +0.000 A 
ATOM     12  C   LIG    1       23.402 -32.989   8.525  0.00  0.00    +0.000 A 
ATOM     13  C   LIG    1       23.662 -31.754   7.921  0.00  0.00    +0.005 A 
ENDBRANCH   3   8
BRANCH   6  14
ATOM     14  C   LIG    1       25.512 -25.629   6.399  0.00  0.00    +0.057 C 
ATOM     15  C   LIG    1       25.765 -24.459   7.374  0.00  0.00    +0.021 C 
ATOM     16  C   LIG    1       25.915 -23.094   6.691  0.00  0.00    +0.028 C 
ATOM     17  C   LIG    1       24.732 -22.718   5.765  0.00  0.00    +0.082 C 
ATOM     18  C   LIG    1       24.568 -23.889   4.759  0.00  0.00    +0.028 C 
ATOM     19  C   LIG    1       24.392 -25.262   5.404  0.00  0.00    +0.021 C 
BRANCH  17  20
ATOM     20  C   LIG    1       25.019 -21.374   5.052  0.00  0.00    -0.027 A 
ATOM     21  C   LIG    1       24.091 -20.839   4.132  0.00  0.00    +0.008 A 
ATOM     22  C   LIG    1       24.345 -19.635   3.465  0.00  0.00    +0.039 A 
ATOM     23  C   LIG    1       25.527 -18.949   3.707  0.00  0.00    +0.123 A 
ATOM     24  F   LIG    1       25.771 -17.795   3.072  0.00  0.00    -0.205 F 
ATOM     25  C   LIG    1       26.459 -19.444   4.603  0.00  0.00    +0.039 A 
ATOM     26  C   LIG    1       26.208 -20.647   5.267  0.00  0.00    +0.008 A 
ENDBRANCH  17  20
BRANCH  17  27
ATOM     27  C   LIG    1       23.478 -22.594   6.563  0.00  0.00    +0.074 C 
ATOM     28  N   LIG    1       22.513 -22.518   7.215  0.00  0.00    -0.196 NA
ENDBRANCH  17  27
ENDBRANCH   6  14
BRANCH   3  29
ATOM     29  C   LIG    1       25.805 -30.120   5.593  0.00  0.00    +0.316 C 
ATOM     30  O   LIG    1       25.897 -31.189   5.006  0.00  0.00    -0.250 OA
BRANCH  29  31
ATOM     31  O   LIG    1       26.270 -28.993   5.000  0.00  0.00    -0.480 OA
ATOM     32  H   LIG    1       25.663 -28.228   5.037  0.00  0.00    +0.295 HD
ENDBRANCH  29  31
ENDBRANCH   3  29
TORSDOF 6
ENDMDL
MODEL 4
REMARK VINA RESULT:      -5.5      3.930     10.041
REMARK  Name = *****
REMARK                            x       y       z     vdW  Elec       q    Type
REMARK                         _______ _______ _______ _____ _____    ______ ____
ROOT
ATOM      1  C   LIG    1       24.039 -22.001   3.289  0.00  0.00    +0.010 C 
ATOM      2  C   LIG    1       24.699 -21.944   4.682  0.00  0.00    +0.021 C 
ATOM      3  C   LIG    1       23.957 -21.004   5.693  0.00  0.00    +0.097 C 
ATOM      4  C   LIG    1       22.652 -21.717   6.107  0.00  0.00    +0.038 C 
ATOM      5  C   LIG    1       22.868 -23.121   6.654  0.00  0.00    +0.086 C 
ATOM      6  N   LIG    1       23.629 -24.017   5.775  0.00  0.00    -0.299 NA
ATOM      7  C   LIG    1       24.847 -23.388   5.227  0.00  0.00    +0.089 C 
ENDROOT
BRANCH   3   8
ATOM      8  C   LIG    1       23.686 -19.610   5.061  0.00  0.00    -0.030 A 
ATOM      9  C   LIG    1       24.654 -18.929   4.301  0.00  0.00    +0.005 A 
ATOM     10  C   LIG    1       24.378 -17.697   3.703  0.00  0.00    +0.000 A 
ATOM     11  C   LIG    1       23.127 -17.116   3.854  0.00  0.00    +0.000 A 
ATOM     12  C   LIG    1       22.151 -17.765   4.605  0.00  0.00    +0.000 A 
ATOM     13  C   LIG    1       22.424 -19.000   5.203  0.00  0.00    +0.005 A 
ENDBRANCH   3   8
BRANCH   6  14
ATOM     14  C   LIG    1       23.962 -25.295   6.489  0.00  0.00    +0.057 C 
ATOM     15  C   LIG    1       25.424 -25.314   6.983  0.00  0.00    +0.021 C 
ATOM     16  C   LIG    1       25.872 -26.658   7.571  0.00  0.00    +0.028 C 
ATOM     17  C   LIG    1       25.656 -27.863   6.623  0.00  0.00    +0.082 C 
ATOM     18  C   LIG    1       24.159 -27.844   6.215  0.00  0.00    +0.028 C 
ATOM     19  C   LIG    1       23.683 -26.528   5.604  0.00  0.00    +0.021 C 
BRANCH  17  20
ATOM     20  C   LIG    1       26.048 -29.180   7.337  0.00  0.00    -0.027 A 
ATOM     21  C   LIG    1       25.936 -30.419   6.668  0.00  0.00    +0.008 A 
ATOM     22  C   LIG    1       26.268 -31.619   7.306  0.00  0.00    +0.039 A 
ATOM     23  C   LIG    1       26.714 -31.601   8.620  0.00  0.00    +0.123 A 
ATOM     24  F   LIG    1       27.034 -32.748   9.233  0.00  0.00    -0.205 F 
ATOM     25  C   LIG    1       26.836 -30.405   9.307  0.00  0.00    +0.039 A 
ATOM     26  C   LIG    1       26.503 -29.206   8.672  0.00  0.00    +0.008 A 
ENDBRANCH  17  20
BRANCH  17  27
ATOM     27  C   LIG    1       26.489 -27.703   5.396  0.00  0.00    +0.074 C 
ATOM     28  N   LIG    1       27.136 -27.541   4.438  0.00  0.00    -0.196 NA
ENDBRANCH  17  27
ENDBRANCH   6  14
BRANCH   3  29
ATOM     29  C   LIG    1       24.805 -20.830   6.993  0.00  0.00    +0.316 C 
ATOM     30  O   LIG    1       24.347 -20.747   8.124  0.00  0.00    -0.250 OA
BRANCH  29  31
ATOM     31  O   LIG    1       26.140 -20.694   6.804  0.00  0.00    -0.480 OA
ATOM     32  H   LIG    1       26.395 -20.273   5.961  0.00  0.00    +0.295 HD
ENDBRANCH  29  31
ENDBRANCH   3  29
TORSDOF 6
ENDMDL
MODEL 5
REMARK VINA RESULT:      -5.3      3.786      9.950
REMARK  Name = *****
REMARK                            x       y       z     vdW  Elec       q    Type
REMARK                         _______ _______ _______ _____ _____    ______ ____
ROOT
ATOM      1  C   LIG    1       26.347 -20.937   6.302  0.00  0.00    +0.010 C 
ATOM      2  C   LIG    1       25.042 -21.660   6.692  0.00  0.00    +0.021 C 
ATOM      3  C   LIG    1       23.961 -21.664   5.559  0.00  0.00    +0.097 C 
ATOM      4  C   LIG    1       24.435 -22.656   4.476  0.00  0.00    +0.038 C 
ATOM      5  C   LIG    1       24.735 -24.049   5.012  0.00  0.00    +0.086 C 
ATOM      6  N   LIG    1       25.686 -24.091   6.130  0.00  0.00    -0.299 NA
ATOM      7  C   LIG    1       25.388 -23.092   7.175  0.00  0.00    +0.089 C 
ENDROOT
BRANCH   3   8
ATOM      8  C   LIG    1       23.748 -20.234   4.987  0.00  0.00    -0.030 A 
ATOM      9  C   LIG    1       24.649 -19.644   4.082  0.00  0.00    +0.005 A 
ATOM     10  C   LIG    1       24.418 -18.376   3.543  0.00  0.00    +0.000 A 
ATOM     11  C   LIG    1       23.280 -17.666   3.902  0.00  0.00    +0.000 A 
ATOM     12  C   LIG    1       22.374 -18.222   4.800  0.00  0.00    +0.000 A 
ATOM     13  C   LIG    1       22.602 -19.493   5.339  0.00  0.00    +0.005 A 
ENDBRANCH   3   8
BRANCH   6  14
ATOM     14  C   LIG    1       25.751 -25.472   6.713  0.00  0.00    +0.057 C 
ATOM     15  C   LIG    1       26.713 -26.386   5.924  0.00  0.00    +0.021 C 
ATOM     16  C   LIG    1       26.694 -27.853   6.369  0.00  0.00    +0.028 C 
ATOM     17  C   LIG    1       25.285 -28.495   6.361  0.00  0.00    +0.082 C 
ATOM     18  C   LIG    1       24.376 -27.583   7.227  0.00  0.00    +0.028 C 
ATOM     19  C   LIG    1       24.353 -26.118   6.798  0.00  0.00    +0.021 C 
BRANCH  17  20
ATOM     20  C   LIG    1       25.354 -29.940   6.913  0.00  0.00    -0.027 A 
ATOM     21  C   LIG    1       25.229 -30.185   8.298  0.00  0.00    +0.008 A 
ATOM     22  C   LIG    1       25.309 -31.484   8.814  0.00  0.00    +0.039 A 
ATOM     23  C   LIG    1       25.515 -32.555   7.957  0.00  0.00    +0.123 A 
ATOM     24  F   LIG    1       25.590 -33.798   8.448  0.00  0.00    -0.205 F 
ATOM     25  C   LIG    1       25.643 -32.352   6.593  0.00  0.00    +0.039 A 
ATOM     26  C   LIG    1       25.565 -31.057   6.077  0.00  0.00    +0.008 A 
ENDBRANCH  17  20
BRANCH  17  27
ATOM     27  C   LIG    1       24.746 -28.527   4.970  0.00  0.00    +0.074 C 
ATOM     28  N   LIG    1       24.359 -28.557   3.869  0.00  0.00    -0.196 NA
ENDBRANCH  17  27
ENDBRANCH   6  14
BRANCH   3  29
ATOM     29  C   LIG    1       22.604 -22.212   6.105  0.00  0.00    +0.316 C 
ATOM     30  O   LIG    1       22.444 -22.719   7.207  0.00  0.00    -0.250 OA
BRANCH  29  31
ATOM     31  O   LIG    1       21.565 -22.166   5.236  0.00  0.00    -0.480 OA
ATOM     32  H   LIG    1       20.699 -21.969   5.642  0.00  0.00    +0.295 HD
ENDBRANCH  29  31
ENDBRANCH   3  29
TORSDOF 6
ENDMDL
MODEL 6
REMARK VINA RESULT:      -4.9      4.017     10.205
REMARK  Name = *****
REMARK                            x       y       z     vdW  Elec       q    Type
REMARK                         _______ _______ _______ _____ _____    ______ ____
ROOT
ATOM      1  C   LIG    1       23.619 -19.964   7.535  0.00  0.00    +0.010 C 
ATOM      2  C   LIG    1       23.028 -20.923   6.481  0.00  0.00    +0.021 C 
ATOM      3  C   LIG    1       23.573 -20.679   5.032  0.00  0.00    +0.097 C 
ATOM      4  C   LIG    1       25.026 -21.197   4.996  0.00  0.00    +0.038 C 
ATOM      5  C   LIG    1       25.171 -22.643   5.447  0.00  0.00    +0.086 C 
ATOM      6  N   LIG    1       24.605 -22.940   6.769  0.00  0.00    -0.299 NA
ATOM      7  C   LIG    1       23.250 -22.383   6.951  0.00  0.00    +0.089 C 
ENDROOT
BRANCH   3   8
ATOM      8  C   LIG    1       23.478 -19.176   4.647  0.00  0.00    -0.030 A 
ATOM      9  C   LIG    1       22.342 -18.397   4.933  0.00  0.00    +0.005 A 
ATOM     10  C   LIG    1       22.293 -17.036   4.621  0.00  0.00    +0.000 A 
ATOM     11  C   LIG    1       23.379 -16.423   4.012  0.00  0.00    +0.000 A 
ATOM     12  C   LIG    1       24.515 -17.170   3.712  0.00  0.00    +0.000 A 
ATOM     13  C   LIG    1       24.568 -18.533   4.027  0.00  0.00    +0.005 A 
ENDBRANCH   3   8
BRANCH   6  14
ATOM     14  C   LIG    1       24.614 -24.418   7.025  0.00  0.00    +0.057 C 
ATOM     15  C   LIG    1       26.047 -24.992   7.038  0.00  0.00    +0.021 C 
ATOM     16  C   LIG    1       26.112 -26.521   7.127  0.00  0.00    +0.028 C 
ATOM     17  C   LIG    1       25.298 -27.252   6.030  0.00  0.00    +0.082 C 
ATOM     18  C   LIG    1       23.851 -26.696   6.108  0.00  0.00    +0.028 C 
ATOM     19  C   LIG    1       23.747 -25.177   5.999  0.00  0.00    +0.021 C 
BRANCH  17  20
ATOM     20  C   LIG    1       25.347 -28.782   6.259  0.00  0.00    -0.027 A 
ATOM     21  C   LIG    1       25.557 -29.663   5.176  0.00  0.00    +0.008 A 
ATOM     22  C   LIG    1       25.584 -31.050   5.364  0.00  0.00    +0.039 A 
ATOM     23  C   LIG    1       25.402 -31.576   6.635  0.00  0.00    +0.123 A 
ATOM     24  F   LIG    1       25.430 -32.903   6.818  0.00  0.00    -0.205 F 
ATOM     25  C   LIG    1       25.195 -30.743   7.721  0.00  0.00    +0.039 A 
ATOM     26  C   LIG    1       25.165 -29.359   7.534  0.00  0.00    +0.008 A 
ENDBRANCH  17  20
BRANCH  17  27
ATOM     27  C   LIG    1       25.860 -26.939   4.684  0.00  0.00    +0.074 C 
ATOM     28  N   LIG    1       26.312 -26.661   3.645  0.00  0.00    -0.196 NA
ENDBRANCH  17  27
ENDBRANCH   6  14
BRANCH   3  29
ATOM     29  C   LIG    1       22.767 -21.530   4.000  0.00  0.00    +0.316 C 
ATOM     30  O   LIG    1       23.208 -21.948   2.938  0.00  0.00    -0.250 OA
BRANCH  29  31
ATOM     31  O   LIG    1       21.465 -21.743   4.310  0.00  0.00    -0.480 OA
ATOM     32  H   LIG    1       21.063 -21.064   4.885  0.00  0.00    +0.295 HD
ENDBRANCH  29  31
ENDBRANCH   3  29
TORSDOF 6
ENDMDL
MODEL 7
REMARK VINA RESULT:      -4.5      3.932      9.961
REMARK  Name = *****
REMARK                            x       y       z     vdW  Elec       q    Type
REMARK                         _______ _______ _______ _____ _____    ______ ____
ROOT
ATOM      1  C   LIG    1       24.421 -22.980   3.536  0.00  0.00    +0.010 C 
ATOM      2  C   LIG    1       25.021 -22.842   4.951  0.00  0.00    +0.021 C 
ATOM      3  C   LIG    1       24.188 -21.915   5.899  0.00  0.00    +0.097 C 
ATOM      4  C   LIG    1       22.909 -22.686   6.287  0.00  0.00    +0.038 C 
ATOM      5  C   LIG    1       23.179 -24.057   6.889  0.00  0.00    +0.086 C 
ATOM      6  N   LIG    1       24.022 -24.937   6.070  0.00  0.00    -0.299 NA
ATOM      7  C   LIG    1       25.225 -24.258   5.549  0.00  0.00    +0.089 C 
ENDROOT
BRANCH   3   8
ATOM      8  C   LIG    1       23.867 -20.558   5.211  0.00  0.00    -0.030 A 
ATOM      9  C   LIG    1       24.785 -19.908   4.366  0.00  0.00    +0.005 A 
ATOM     10  C   LIG    1       24.463 -18.713   3.720  0.00  0.00    +0.000 A 
ATOM     11  C   LIG    1       23.214 -18.137   3.906  0.00  0.00    +0.000 A 
ATOM     12  C   LIG    1       22.286 -18.755   4.741  0.00  0.00    +0.000 A 
ATOM     13  C   LIG    1       22.606 -19.954   5.387  0.00  0.00    +0.005 A 
ENDBRANCH   3   8
BRANCH   6  14
ATOM     14  C   LIG    1       24.396 -26.170   6.839  0.00  0.00    +0.057 C 
ATOM     15  C   LIG    1       25.899 -26.497   6.710  0.00  0.00    +0.021 C 
ATOM     16  C   LIG    1       26.308 -27.836   7.335  0.00  0.00    +0.028 C 
ATOM     17  C   LIG    1       25.494 -29.048   6.816  0.00  0.00    +0.082 C 
ATOM     18  C   LIG    1       23.997 -28.703   7.037  0.00  0.00    +0.028 C 
ATOM     19  C   LIG    1       23.549 -27.386   6.408  0.00  0.00    +0.021 C 
BRANCH  17  20
ATOM     20  C   LIG    1       25.912 -30.333   7.570  0.00  0.00    -0.027 A 
ATOM     21  C   LIG    1       26.242 -30.285   8.942  0.00  0.00    +0.008 A 
ATOM     22  C   LIG    1       26.641 -31.435   9.633  0.00  0.00    +0.039 A 
ATOM     23  C   LIG    1       26.716 -32.649   8.964  0.00  0.00    +0.123 A 
ATOM     24  F   LIG    1       27.096 -33.752   9.623  0.00  0.00    -0.205 F 
ATOM     25  C   LIG    1       26.400 -32.734   7.619  0.00  0.00    +0.039 A 
ATOM     26  C   LIG    1       26.004 -31.586   6.928  0.00  0.00    +0.008 A 
ENDBRANCH  17  20
BRANCH  17  27
ATOM     27  C   LIG    1       25.732 -29.235   5.356  0.00  0.00    +0.074 C 
ATOM     28  N   LIG    1       25.895 -29.412   4.213  0.00  0.00    -0.196 NA
ENDBRANCH  17  27
ENDBRANCH   6  14
BRANCH   3  29
ATOM     29  C   LIG    1       24.971 -21.652   7.224  0.00  0.00    +0.316 C 
ATOM     30  O   LIG    1       24.457 -21.448   8.316  0.00  0.00    -0.250 OA
BRANCH  29  31
ATOM     31  O   LIG    1       26.320 -21.583   7.101  0.00  0.00    -0.480 OA
ATOM     32  H   LIG    1       26.695 -20.686   7.193  0.00  0.00    +0.295 HD
ENDBRANCH  29  31
ENDBRANCH   3  29
TORSDOF 6
ENDMDL
MODEL 8
REMARK VINA RESULT:      -4.5      8.125     10.505
REMARK  Name = *****
REMARK                            x       y       z     vdW  Elec       q    Type
REMARK                         _______ _______ _______ _____ _____    ______ ____
ROOT
ATOM      1  C   LIG    1       19.741 -27.846  14.092  0.00  0.00    +0.010 C 
ATOM      2  C   LIG    1       20.664 -29.043  14.400  0.00  0.00    +0.021 C 
ATOM      3  C   LIG    1       20.536 -30.218  13.371  0.00  0.00    +0.097 C 
ATOM      4  C   LIG    1       21.216 -29.759  12.064  0.00  0.00    +0.038 C 
ATOM      5  C   LIG    1       22.652 -29.292  12.252  0.00  0.00    +0.086 C 
ATOM      6  N   LIG    1       22.835 -28.244  13.264  0.00  0.00    -0.299 NA
ATOM      7  C   LIG    1       22.123 -28.532  14.525  0.00  0.00    +0.089 C 
ENDROOT
BRANCH   3   8
ATOM      8  C   LIG    1       19.047 -30.605  13.151  0.00  0.00    -0.030 A 
ATOM      9  C   LIG    1       18.071 -30.439  14.151  0.00  0.00    +0.005 A 
ATOM     10  C   LIG    1       16.729 -30.750  13.920  0.00  0.00    +0.000 A 
ATOM     11  C   LIG    1       16.332 -31.238  12.683  0.00  0.00    +0.000 A 
ATOM     12  C   LIG    1       17.276 -31.418  11.676  0.00  0.00    +0.000 A 
ATOM     13  C   LIG    1       18.621 -31.104  11.904  0.00  0.00    +0.005 A 
ENDBRANCH   3   8
BRANCH   6  14
ATOM     14  C   LIG    1       24.295 -28.006  13.517  0.00  0.00    +0.057 C 
ATOM     15  C   LIG    1       25.176 -28.576  12.385  0.00  0.00    +0.021 C 
ATOM     16  C   LIG    1       26.681 -28.513  12.667  0.00  0.00    +0.028 C 
ATOM     17  C   LIG    1       27.101 -29.179  14.001  0.00  0.00    +0.082 C 
ATOM     18  C   LIG    1       26.243 -28.521  15.114  0.00  0.00    +0.028 C 
ATOM     19  C   LIG    1       24.736 -28.585  14.877  0.00  0.00    +0.021 C 
BRANCH  17  20
ATOM     20  C   LIG    1       28.617 -28.982  14.242  0.00  0.00    -0.027 A 
ATOM     21  C   LIG    1       29.565 -29.638  13.426  0.00  0.00    +0.008 A 
ATOM     22  C   LIG    1       30.939 -29.485  13.644  0.00  0.00    +0.039 A 
ATOM     23  C   LIG    1       31.387 -28.677  14.679  0.00  0.00    +0.123 A 
ATOM     24  F   LIG    1       32.701 -28.527  14.889  0.00  0.00    -0.205 F 
ATOM     25  C   LIG    1       30.487 -28.018  15.499  0.00  0.00    +0.039 A 
ATOM     26  C   LIG    1       29.115 -28.171  15.284  0.00  0.00    +0.008 A 
ENDBRANCH  17  20
BRANCH  17  27
ATOM     27  C   LIG    1       26.796 -30.638  13.961  0.00  0.00    +0.074 C 
ATOM     28  N   LIG    1       26.569 -31.783  13.965  0.00  0.00    -0.196 NA
ENDBRANCH  17  27
ENDBRANCH   6  14
BRANCH   3  29
ATOM     29  C   LIG    1       21.329 -31.467  13.873  0.00  0.00    +0.316 C 
ATOM     30  O   LIG    1       21.827 -32.320  13.152  0.00  0.00    -0.250 OA
BRANCH  29  31
ATOM     31  O   LIG    1       21.386 -31.618  15.219  0.00  0.00    -0.480 OA
ATOM     32  H   LIG    1       20.831 -30.995  15.727  0.00  0.00    +0.295 HD
ENDBRANCH  29  31
ENDBRANCH   3  29
TORSDOF 6
ENDMDL
MODEL 9
REMARK VINA RESULT:      -4.5      8.019      9.927
REMARK  Name = *****
REMARK                            x       y       z     vdW  Elec       q    Type
REMARK                         _______ _______ _______ _____ _____    ______ ____
ROOT
ATOM      1  C   LIG    1       20.172 -30.236  13.774  0.00  0.00    +0.010 C 
ATOM      2  C   LIG    1       21.315 -31.224  13.458  0.00  0.00    +0.021 C 
ATOM      3  C   LIG    1       21.473 -31.537  11.932  0.00  0.00    +0.097 C 
ATOM      4  C   LIG    1       22.087 -30.286  11.269  0.00  0.00    +0.038 C 
ATOM      5  C   LIG    1       23.385 -29.825  11.915  0.00  0.00    +0.086 C 
ATOM      6  N   LIG    1       23.308 -29.593  13.363  0.00  0.00    -0.299 NA
ATOM      7  C   LIG    1       22.628 -30.687  14.084  0.00  0.00    +0.089 C 
ENDROOT
BRANCH   3   8
ATOM      8  C   LIG    1       20.107 -31.924  11.298  0.00  0.00    -0.030 A 
ATOM      9  C   LIG    1       19.404 -31.057  10.442  0.00  0.00    +0.005 A 
ATOM     10  C   LIG    1       18.200 -31.440   9.845  0.00  0.00    +0.000 A 
ATOM     11  C   LIG    1       17.670 -32.698  10.095  0.00  0.00    +0.000 A 
ATOM     12  C   LIG    1       18.341 -33.574  10.943  0.00  0.00    +0.000 A 
ATOM     13  C   LIG    1       19.549 -33.195  11.539  0.00  0.00    +0.005 A 
ENDBRANCH   3   8
BRANCH   6  14
ATOM     14  C   LIG    1       24.675 -29.347  13.929  0.00  0.00    +0.057 C 
ATOM     15  C   LIG    1       25.352 -28.117  13.288  0.00  0.00    +0.021 C 
ATOM     16  C   LIG    1       26.814 -27.915  13.705  0.00  0.00    +0.028 C 
ATOM     17  C   LIG    1       27.714 -29.153  13.467  0.00  0.00    +0.082 C 
ATOM     18  C   LIG    1       27.031 -30.343  14.193  0.00  0.00    +0.028 C 
ATOM     19  C   LIG    1       25.580 -30.588  13.785  0.00  0.00    +0.021 C 
BRANCH  17  20
ATOM     20  C   LIG    1       29.141 -28.886  14.003  0.00  0.00    -0.027 A 
ATOM     21  C   LIG    1       30.242 -29.620  13.509  0.00  0.00    +0.008 A 
ATOM     22  C   LIG    1       31.535 -29.404  13.998  0.00  0.00    +0.039 A 
ATOM     23  C   LIG    1       31.748 -28.454  14.987  0.00  0.00    +0.123 A 
ATOM     24  F   LIG    1       32.985 -28.243  15.455  0.00  0.00    -0.205 F 
ATOM     25  C   LIG    1       30.693 -27.715  15.495  0.00  0.00    +0.039 A 
ATOM     26  C   LIG    1       29.401 -27.932  15.009  0.00  0.00    +0.008 A 
ENDBRANCH  17  20
BRANCH  17  27
ATOM     27  C   LIG    1       27.786 -29.459  12.009  0.00  0.00    +0.074 C 
ATOM     28  N   LIG    1       27.880 -29.704  10.872  0.00  0.00    -0.196 NA
ENDBRANCH  17  27
ENDBRANCH   6  14
BRANCH   3  29
ATOM     29  C   LIG    1       22.492 -32.702  11.720  0.00  0.00    +0.316 C 
ATOM     30  O   LIG    1       22.881 -33.462  12.596  0.00  0.00    -0.250 OA
BRANCH  29  31
ATOM     31  O   LIG    1       23.014 -32.801  10.473  0.00  0.00    -0.480 OA
ATOM     32  H   LIG    1       23.275 -31.951  10.069  0.00  0.00    +0.295 HD
ENDBRANCH  29  31
ENDBRANCH   3  29
TORSDOF 6
ENDMDL
