MODEL 1
REMARK VINA RESULT:      -5.8      0.000      0.000
REMARK  Name = *****
REMARK                            x       y       z     vdW  Elec       q    Type
REMARK                         _______ _______ _______ _____ _____    ______ ____
ROOT
ATOM      1  C   LIG    1       22.261 -18.804   4.415  0.00  0.00    +0.351 C 
ATOM      2  O   LIG    1       21.163 -18.744   3.866  0.00  0.00    -0.246 OA
ENDROOT
BRANCH   1   4
ATOM      3  C   LIG    1       21.774 -21.193   4.776  0.00  0.00    +0.067 C 
ATOM      4  C   LIG    1       22.814 -20.101   5.054  0.00  0.00    +0.201 C 
ATOM      5  C   LIG    1       22.923 -19.749   6.549  0.00  0.00    +0.067 C 
BRANCH   4   6
ATOM      6  O   LIG    1       24.053 -20.431   4.406  0.00  0.00    -0.475 OA
BRANCH   6   7
ATOM      7  C   LIG    1       25.242 -20.528   5.063  0.00  0.00    +0.122 A 
ATOM      8  C   LIG    1       25.545 -21.402   6.104  0.00  0.00    +0.047 A 
ATOM      9  C   LIG    1       26.800 -21.355   6.722  0.00  0.00    +0.023 A 
ATOM     10  C   LIG    1       27.766 -20.458   6.273  0.00  0.00    +0.041 A 
ATOM     11 CL   LIG    1       29.298 -20.386   7.052  0.00  0.00    -0.084 Cl
ATOM     12  C   LIG    1       27.496 -19.621   5.195  0.00  0.00    +0.023 A 
ATOM     13  C   LIG    1       26.239 -19.668   4.588  0.00  0.00    +0.047 A 
ENDBRANCH   6   7
ENDBRANCH   4   6
ENDBRANCH   1   4
BRANCH   1  14
ATOM     14  O   LIG    1       23.095 -17.737   4.565  0.00  0.00    -0.459 OA
BRANCH  14  15
ATOM     15  C   LIG    1       22.463 -16.464   4.758  0.00  0.00    +0.273 C 
BRANCH  15  16
ATOM     16  C   LIG    1       23.280 -15.390   4.052  0.00  0.00    +0.273 C 
BRANCH  16  17
ATOM     17  O   LIG    1       23.500 -14.295   4.958  0.00  0.00    -0.458 OA
BRANCH  17  18
ATOM     18  C   LIG    1       24.059 -13.186   4.443  0.00  0.00    +0.341 C 
ATOM     19  O   LIG    1       23.515 -12.097   4.277  0.00  0.00    -0.245 OA
BRANCH  18  20
ATOM     20  C   LIG    1       25.421 -13.477   3.988  0.00  0.00    +0.077 A 
ATOM     21  C   LIG    1       25.712 -13.789   2.663  0.00  0.00    +0.125 A 
ATOM     22  N   LIG    1       26.959 -14.071   2.214  0.00  0.00    -0.262 NA
ATOM     23  C   LIG    1       27.958 -14.033   3.125  0.00  0.00    +0.111 A 
ATOM     24  C   LIG    1       27.767 -13.725   4.466  0.00  0.00    +0.020 A 
ATOM     25  C   LIG    1       26.479 -13.455   4.902  0.00  0.00    +0.018 A 
ENDBRANCH  18  20
ENDBRANCH  17  18
ENDBRANCH  16  17
ENDBRANCH  15  16
ENDBRANCH  14  15
ENDBRANCH   1  14
TORSDOF 9
ENDMDL
MODEL 2
REMARK VINA RESULT:      -5.3      1.840      2.384
REMARK  Name = *****
REMARK                            x       y       z     vdW  Elec       q    Type
REMARK                         _______ _______ _______ _____ _____    ______ ____
ROOT
ATOM      1  C   LIG    1       22.891 -18.958   4.145  0.00  0.00    +0.351 C 
ATOM      2  O   LIG    1       21.983 -18.201   4.482  0.00  0.00    -0.246 OA
ENDROOT
BRANCH   1   4
ATOM      3  C   LIG    1       23.837 -21.153   3.541  0.00  0.00    +0.067 C 
ATOM      4  C   LIG    1       22.952 -20.445   4.574  0.00  0.00    +0.201 C 
ATOM      5  C   LIG    1       21.481 -20.898   4.511  0.00  0.00    +0.067 C 
BRANCH   4   6
ATOM      6  O   LIG    1       23.564 -20.514   5.871  0.00  0.00    -0.475 OA
BRANCH   6   7
ATOM      7  C   LIG    1       24.904 -20.666   6.062  0.00  0.00    +0.122 A 
ATOM      8  C   LIG    1       25.523 -21.560   6.932  0.00  0.00    +0.047 A 
ATOM      9  C   LIG    1       26.917 -21.571   7.062  0.00  0.00    +0.023 A 
ATOM     10  C   LIG    1       27.695 -20.710   6.291  0.00  0.00    +0.041 A 
ATOM     11 CL   LIG    1       29.406 -20.708   6.471  0.00  0.00    -0.084 Cl
ATOM     12  C   LIG    1       27.093 -19.855   5.374  0.00  0.00    +0.023 A 
ATOM     13  C   LIG    1       25.701 -19.845   5.256  0.00  0.00    +0.047 A 
ENDBRANCH   6   7
ENDBRANCH   4   6
ENDBRANCH   1   4
BRANCH   1  14
ATOM     14  O   LIG    1       23.963 -18.573   3.398  0.00  0.00    -0.459 OA
BRANCH  14  15
ATOM     15  C   LIG    1       24.486 -17.266   3.670  0.00  0.00    +0.273 C 
BRANCH  15  16
ATOM     16  C   LIG    1       25.952 -17.221   3.259  0.00  0.00    +0.273 C 
BRANCH  16  17
ATOM     17  O   LIG    1       26.242 -15.929   2.697  0.00  0.00    -0.458 OA
BRANCH  17  18
ATOM     18  C   LIG    1       26.563 -14.951   3.562  0.00  0.00    +0.341 C 
ATOM     19  O   LIG    1       27.447 -14.983   4.414  0.00  0.00    -0.245 OA
BRANCH  18  20
ATOM     20  C   LIG    1       25.621 -13.836   3.429  0.00  0.00    +0.077 A 
ATOM     21  C   LIG    1       25.451 -13.145   2.234  0.00  0.00    +0.125 A 
ATOM     22  N   LIG    1       24.596 -12.104   2.083  0.00  0.00    -0.262 NA
ATOM     23  C   LIG    1       23.876 -11.744   3.170  0.00  0.00    +0.111 A 
ATOM     24  C   LIG    1       23.971 -12.378   4.401  0.00  0.00    +0.020 A 
ATOM     25  C   LIG    1       24.865 -13.430   4.533  0.00  0.00    +0.018 A 
ENDBRANCH  18  20
ENDBRANCH  17  18
ENDBRANCH  16  17
ENDBRANCH  15  16
ENDBRANCH  14  15
ENDBRANCH   1  14
TORSDOF 9
ENDMDL
MODEL 3
REMARK VINA RESULT:      -4.2      2.261      5.998
REMARK  Name = *****
REMARK                            x       y       z     vdW  Elec       q    Type
REMARK                         _______ _______ _______ _____ _____    ______ ____
ROOT
ATOM      1  C   LIG    1       25.274 -13.990   4.292  0.00  0.00    +0.351 C 
ATOM      2  O   LIG    1       25.703 -13.854   5.436  0.00  0.00    -0.246 OA
ENDROOT
BRANCH   1   4
ATOM      3  C   LIG    1       27.544 -13.426   3.512  0.00  0.00    +0.067 C 
ATOM      4  C   LIG    1       26.188 -13.968   3.042  0.00  0.00    +0.201 C 
ATOM      5  C   LIG    1       25.462 -13.008   2.082  0.00  0.00    +0.067 C 
BRANCH   4   6
ATOM      6  O   LIG    1       26.339 -15.316   2.570  0.00  0.00    -0.475 OA
BRANCH   6   7
ATOM      7  C   LIG    1       26.810 -16.334   3.343  0.00  0.00    +0.122 A 
ATOM      8  C   LIG    1       27.929 -16.297   4.171  0.00  0.00    +0.047 A 
ATOM      9  C   LIG    1       28.327 -17.442   4.872  0.00  0.00    +0.023 A 
ATOM     10  C   LIG    1       27.582 -18.615   4.773  0.00  0.00    +0.041 A 
ATOM     11 CL   LIG    1       28.088 -20.026   5.615  0.00  0.00    -0.084 Cl
ATOM     12  C   LIG    1       26.429 -18.647   3.996  0.00  0.00    +0.023 A 
ATOM     13  C   LIG    1       26.042 -17.503   3.293  0.00  0.00    +0.047 A 
ENDBRANCH   6   7
ENDBRANCH   4   6
ENDBRANCH   1   4
BRANCH   1  14
ATOM     14  O   LIG    1       23.954 -14.130   3.987  0.00  0.00    -0.459 OA
BRANCH  14  15
ATOM     15  C   LIG    1       23.206 -15.030   4.816  0.00  0.00    +0.273 C 
BRANCH  15  16
ATOM     16  C   LIG    1       22.998 -16.339   4.066  0.00  0.00    +0.273 C 
BRANCH  16  17
ATOM     17  O   LIG    1       22.253 -17.244   4.899  0.00  0.00    -0.458 OA
BRANCH  17  18
ATOM     18  C   LIG    1       21.835 -18.388   4.329  0.00  0.00    +0.341 C 
ATOM     19  O   LIG    1       20.825 -18.545   3.648  0.00  0.00    -0.245 OA
BRANCH  18  20
ATOM     20  C   LIG    1       22.713 -19.494   4.724  0.00  0.00    +0.077 A 
ATOM     21  C   LIG    1       23.405 -20.262   3.793  0.00  0.00    +0.125 A 
ATOM     22  N   LIG    1       24.216 -21.296   4.127  0.00  0.00    -0.262 NA
ATOM     23  C   LIG    1       24.344 -21.570   5.445  0.00  0.00    +0.111 A 
ATOM     24  C   LIG    1       23.700 -20.855   6.446  0.00  0.00    +0.020 A 
ATOM     25  C   LIG    1       22.865 -19.812   6.077  0.00  0.00    +0.018 A 
ENDBRANCH  18  20
ENDBRANCH  17  18
ENDBRANCH  16  17
ENDBRANCH  15  16
ENDBRANCH  14  15
ENDBRANCH   1  14
TORSDOF 9
ENDMDL
MODEL 4
REMARK VINA RESULT:      -4.1      1.191      1.579
REMARK  Name = *****
REMARK                            x       y       z     vdW  Elec       q    Type
REMARK                         _______ _______ _______ _____ _____    ______ ____
ROOT
ATOM      1  C   LIG    1       22.640 -19.546   5.648  0.00  0.00    +0.351 C 
ATOM      2  O   LIG    1       22.836 -18.940   6.699  0.00  0.00    -0.246 OA
ENDROOT
BRANCH   1   4
ATOM      3  C   LIG    1       21.597 -21.564   4.689  0.00  0.00    +0.067 C 
ATOM      4  C   LIG    1       22.794 -21.082   5.520  0.00  0.00    +0.201 C 
ATOM      5  C   LIG    1       22.743 -21.572   6.978  0.00  0.00    +0.067 C 
BRANCH   4   6
ATOM      6  O   LIG    1       24.017 -21.355   4.818  0.00  0.00    -0.475 OA
BRANCH   6   7
ATOM      7  C   LIG    1       25.244 -20.983   5.276  0.00  0.00    +0.122 A 
ATOM      8  C   LIG    1       25.890 -21.470   6.410  0.00  0.00    +0.047 A 
ATOM      9  C   LIG    1       27.135 -20.955   6.789  0.00  0.00    +0.023 A 
ATOM     10  C   LIG    1       27.752 -19.978   6.013  0.00  0.00    +0.041 A 
ATOM     11 CL   LIG    1       29.270 -19.330   6.496  0.00  0.00    -0.084 Cl
ATOM     12  C   LIG    1       27.145 -19.526   4.845  0.00  0.00    +0.023 A 
ATOM     13  C   LIG    1       25.899 -20.039   4.476  0.00  0.00    +0.047 A 
ENDBRANCH   6   7
ENDBRANCH   4   6
ENDBRANCH   1   4
BRANCH   1  14
ATOM     14  O   LIG    1       22.313 -18.941   4.473  0.00  0.00    -0.459 OA
BRANCH  14  15
ATOM     15  C   LIG    1       23.263 -17.997   3.961  0.00  0.00    +0.273 C 
BRANCH  15  16
ATOM     16  C   LIG    1       22.911 -16.608   4.477  0.00  0.00    +0.273 C 
BRANCH  16  17
ATOM     17  O   LIG    1       23.650 -15.628   3.727  0.00  0.00    -0.458 OA
BRANCH  17  18
ATOM     18  C   LIG    1       23.983 -14.496   4.372  0.00  0.00    +0.341 C 
ATOM     19  O   LIG    1       23.227 -13.753   4.993  0.00  0.00    -0.245 OA
BRANCH  18  20
ATOM     20  C   LIG    1       25.398 -14.189   4.147  0.00  0.00    +0.077 A 
ATOM     21  C   LIG    1       26.192 -13.586   5.117  0.00  0.00    +0.125 A 
ATOM     22  N   LIG    1       27.500 -13.281   4.934  0.00  0.00    -0.262 NA
ATOM     23  C   LIG    1       28.038 -13.598   3.735  0.00  0.00    +0.111 A 
ATOM     24  C   LIG    1       27.328 -14.207   2.709  0.00  0.00    +0.020 A 
ATOM     25  C   LIG    1       25.988 -14.494   2.916  0.00  0.00    +0.018 A 
ENDBRANCH  18  20
ENDBRANCH  17  18
ENDBRANCH  16  17
ENDBRANCH  15  16
ENDBRANCH  14  15
ENDBRANCH   1  14
TORSDOF 9
ENDMDL
MODEL 5
REMARK VINA RESULT:      -4.1      2.995      4.679
REMARK  Name = *****
REMARK                            x       y       z     vdW  Elec       q    Type
REMARK                         _______ _______ _______ _____ _____    ______ ____
ROOT
ATOM      1  C   LIG    1       26.181 -19.648   4.973  0.00  0.00    +0.351 C 
ATOM      2  O   LIG    1       27.390 -19.769   5.157  0.00  0.00    -0.246 OA
ENDROOT
BRANCH   1   4
ATOM      3  C   LIG    1       25.836 -21.564   6.487  0.00  0.00    +0.067 C 
ATOM      4  C   LIG    1       25.152 -20.724   5.401  0.00  0.00    +0.201 C 
ATOM      5  C   LIG    1       24.899 -21.516   4.105  0.00  0.00    +0.067 C 
BRANCH   4   6
ATOM      6  O   LIG    1       24.005 -20.056   5.951  0.00  0.00    -0.475 OA
BRANCH   6   7
ATOM      7  C   LIG    1       22.875 -19.796   5.238  0.00  0.00    +0.122 A 
ATOM      8  C   LIG    1       21.897 -20.716   4.866  0.00  0.00    +0.047 A 
ATOM      9  C   LIG    1       20.807 -20.313   4.085  0.00  0.00    +0.023 A 
ATOM     10  C   LIG    1       20.676 -18.979   3.706  0.00  0.00    +0.041 A 
ATOM     11 CL   LIG    1       19.350 -18.492   2.725  0.00  0.00    -0.084 Cl
ATOM     12  C   LIG    1       21.614 -18.039   4.121  0.00  0.00    +0.023 A 
ATOM     13  C   LIG    1       22.703 -18.450   4.894  0.00  0.00    +0.047 A 
ENDBRANCH   6   7
ENDBRANCH   4   6
ENDBRANCH   1   4
BRANCH   1  14
ATOM     14  O   LIG    1       25.612 -18.586   4.338  0.00  0.00    -0.459 OA
BRANCH  14  15
ATOM     15  C   LIG    1       26.352 -18.036   3.239  0.00  0.00    +0.273 C 
BRANCH  15  16
ATOM     16  C   LIG    1       26.927 -16.688   3.652  0.00  0.00    +0.273 C 
BRANCH  16  17
ATOM     17  O   LIG    1       25.898 -15.688   3.550  0.00  0.00    -0.458 OA
BRANCH  17  18
ATOM     18  C   LIG    1       26.153 -14.636   2.752  0.00  0.00    +0.341 C 
ATOM     19  O   LIG    1       27.056 -14.541   1.925  0.00  0.00    -0.245 OA
BRANCH  18  20
ATOM     20  C   LIG    1       25.249 -13.529   3.079  0.00  0.00    +0.077 A 
ATOM     21  C   LIG    1       24.920 -12.541   2.156  0.00  0.00    +0.125 A 
ATOM     22  N   LIG    1       24.096 -11.501   2.432  0.00  0.00    -0.262 NA
ATOM     23  C   LIG    1       23.573 -11.450   3.678  0.00  0.00    +0.111 A 
ATOM     24  C   LIG    1       23.837 -12.393   4.663  0.00  0.00    +0.020 A 
ATOM     25  C   LIG    1       24.696 -13.439   4.360  0.00  0.00    +0.018 A 
ENDBRANCH  18  20
ENDBRANCH  17  18
ENDBRANCH  16  17
ENDBRANCH  15  16
ENDBRANCH  14  15
ENDBRANCH   1  14
TORSDOF 9
ENDMDL
MODEL 6
REMARK VINA RESULT:      -3.2      2.229      5.801
REMARK  Name = *****
REMARK                            x       y       z     vdW  Elec       q    Type
REMARK                         _______ _______ _______ _____ _____    ______ ____
ROOT
ATOM      1  C   LIG    1       24.457 -13.752   3.391  0.00  0.00    +0.351 C 
ATOM      2  O   LIG    1       23.904 -13.104   2.505  0.00  0.00    -0.246 OA
ENDROOT
BRANCH   1   4
ATOM      3  C   LIG    1       26.354 -14.132   4.921  0.00  0.00    +0.067 C 
ATOM      4  C   LIG    1       25.989 -13.978   3.438  0.00  0.00    +0.201 C 
ATOM      5  C   LIG    1       26.562 -12.693   2.814  0.00  0.00    +0.067 C 
BRANCH   4   6
ATOM      6  O   LIG    1       26.287 -15.194   2.733  0.00  0.00    -0.475 OA
BRANCH   6   7
ATOM      7  C   LIG    1       26.688 -16.339   3.349  0.00  0.00    +0.122 A 
ATOM      8  C   LIG    1       26.049 -17.576   3.300  0.00  0.00    +0.047 A 
ATOM      9  C   LIG    1       26.552 -18.661   4.028  0.00  0.00    +0.023 A 
ATOM     10  C   LIG    1       27.716 -18.518   4.779  0.00  0.00    +0.041 A 
ATOM     11 CL   LIG    1       28.316 -19.845   5.694  0.00  0.00    -0.084 Cl
ATOM     12  C   LIG    1       28.397 -17.304   4.789  0.00  0.00    +0.023 A 
ATOM     13  C   LIG    1       27.885 -16.224   4.065  0.00  0.00    +0.047 A 
ENDBRANCH   6   7
ENDBRANCH   4   6
ENDBRANCH   1   4
BRANCH   1  14
ATOM     14  O   LIG    1       23.793 -14.378   4.402  0.00  0.00    -0.459 OA
BRANCH  14  15
ATOM     15  C   LIG    1       23.190 -15.637   4.076  0.00  0.00    +0.273 C 
BRANCH  15  16
ATOM     16  C   LIG    1       22.090 -15.939   5.086  0.00  0.00    +0.273 C 
BRANCH  16  17
ATOM     17  O   LIG    1       22.157 -17.327   5.452  0.00  0.00    -0.458 OA
BRANCH  17  18
ATOM     18  C   LIG    1       21.909 -18.223   4.480  0.00  0.00    +0.341 C 
ATOM     19  O   LIG    1       21.031 -18.156   3.624  0.00  0.00    -0.245 OA
BRANCH  18  20
ATOM     20  C   LIG    1       22.785 -19.388   4.637  0.00  0.00    +0.077 A 
ATOM     21  C   LIG    1       23.402 -20.005   3.554  0.00  0.00    +0.125 A 
ATOM     22  N   LIG    1       24.208 -21.089   3.667  0.00  0.00    -0.262 NA
ATOM     23  C   LIG    1       24.411 -21.571   4.914  0.00  0.00    +0.111 A 
ATOM     24  C   LIG    1       23.845 -21.018   6.055  0.00  0.00    +0.020 A 
ATOM     25  C   LIG    1       23.012 -19.919   5.910  0.00  0.00    +0.018 A 
ENDBRANCH  18  20
ENDBRANCH  17  18
ENDBRANCH  16  17
ENDBRANCH  15  16
ENDBRANCH  14  15
ENDBRANCH   1  14
TORSDOF 9
ENDMDL
