MODEL 1
REMARK VINA RESULT:      -8.5      0.000      0.000
REMARK  Name = *****
REMARK                            x       y       z     vdW  Elec       q    Type
REMARK                         _______ _______ _______ _____ _____    ______ ____
ROOT
ATOM      1  N   LIG    1       25.680 -21.553   6.465  0.00  0.00    -0.248 N 
ATOM      2  C   LIG    1       26.114 -21.008   5.172  0.00  0.00    +0.163 C 
ATOM      3  C   LIG    1       24.982 -20.362   4.354  0.00  0.00    +0.050 C 
ATOM      4  N   LIG    1       27.116 -19.955   5.346  0.00  0.00    -0.325 N 
ATOM      5  H   LIG    1       27.444 -19.588   4.455  0.00  0.00    +0.148 HD
ATOM      6  C   LIG    1       28.163 -20.262   6.212  0.00  0.00    +0.042 A 
ATOM      7  C   LIG    1       27.957 -21.103   7.298  0.00  0.00    +0.060 A 
ATOM      8  C   LIG    1       28.975 -21.334   8.230  0.00  0.00    +0.045 A 
ATOM      9  C   LIG    1       30.218 -20.711   8.082  0.00  0.00    +0.124 A 
ATOM     10  C   LIG    1       30.436 -19.847   7.010  0.00  0.00    +0.069 A 
ATOM     11 CL   LIG    1       31.930 -19.028   6.734  0.00  0.00    -0.082 Cl
ATOM     12  C   LIG    1       29.399 -19.613   6.093  0.00  0.00    +0.045 A 
ATOM     13  C   LIG    1       26.650 -21.773   7.458  0.00  0.00    +0.254 C 
ATOM     14  O   LIG    1       26.525 -22.515   8.432  0.00  0.00    -0.270 OA
ENDROOT
BRANCH   1  17
ATOM     15  C   LIG    1       22.917 -20.492   7.120  0.00  0.00    +0.045 C 
ATOM     16  C   LIG    1       23.226 -21.935   6.812  0.00  0.00    -0.029 A 
ATOM     17  C   LIG    1       24.519 -22.414   6.497  0.00  0.00    +0.041 A 
ATOM     18  C   LIG    1       24.670 -23.785   6.205  0.00  0.00    +0.024 A 
ATOM     19  C   LIG    1       23.584 -24.659   6.200  0.00  0.00    +0.002 A 
ATOM     20  C   LIG    1       22.320 -24.187   6.513  0.00  0.00    +0.000 A 
ATOM     21  C   LIG    1       22.145 -22.841   6.828  0.00  0.00    +0.005 A 
ENDBRANCH   1  17
BRANCH   9  22
ATOM     22  S   LIG    1       31.488 -21.025   9.259  0.00  0.00    +0.057 S 
ATOM     23  O   LIG    1       30.926 -21.775  10.362  0.00  0.00    -0.153 OA
ATOM     24  O   LIG    1       32.273 -19.829   9.424  0.00  0.00    -0.153 OA
BRANCH  22  25
ATOM     25  N   LIG    1       32.510 -22.112   8.479  0.00  0.00    -0.203 NA
ATOM     26  H   LIG    1       32.577 -22.982   9.008  0.00  0.00    +0.144 HD
ATOM     27  H   LIG    1       33.408 -21.670   8.279  0.00  0.00    +0.144 HD
ENDBRANCH  22  25
ENDBRANCH   9  22
TORSDOF 3
ENDMDL
MODEL 2
REMARK VINA RESULT:      -7.6      3.586      7.230
REMARK  Name = *****
REMARK                            x       y       z     vdW  Elec       q    Type
REMARK                         _______ _______ _______ _____ _____    ______ ____
ROOT
ATOM      1  N   LIG    1       28.951 -19.470   7.313  0.00  0.00    -0.248 N 
ATOM      2  C   LIG    1       28.992 -18.846   5.983  0.00  0.00    +0.163 C 
ATOM      3  C   LIG    1       30.413 -18.659   5.423  0.00  0.00    +0.050 C 
ATOM      4  N   LIG    1       28.288 -19.660   4.990  0.00  0.00    -0.325 N 
ATOM      5  H   LIG    1       28.287 -19.224   4.071  0.00  0.00    +0.148 HD
ATOM      6  C   LIG    1       27.025 -20.106   5.369  0.00  0.00    +0.042 A 
ATOM      7  C   LIG    1       26.742 -20.377   6.702  0.00  0.00    +0.060 A 
ATOM      8  C   LIG    1       25.509 -20.923   7.076  0.00  0.00    +0.045 A 
ATOM      9  C   LIG    1       24.543 -21.210   6.107  0.00  0.00    +0.124 A 
ATOM     10  C   LIG    1       24.817 -20.965   4.763  0.00  0.00    +0.069 A 
ATOM     11 CL   LIG    1       23.698 -21.282   3.488  0.00  0.00    -0.082 Cl
ATOM     12  C   LIG    1       26.065 -20.432   4.401  0.00  0.00    +0.045 A 
ATOM     13  C   LIG    1       27.752 -20.068   7.734  0.00  0.00    +0.254 C 
ATOM     14  O   LIG    1       27.446 -20.320   8.899  0.00  0.00    -0.270 OA
ENDROOT
BRANCH   1  17
ATOM     15  C   LIG    1       31.101 -21.150   8.634  0.00  0.00    +0.045 C 
ATOM     16  C   LIG    1       30.805 -19.714   8.984  0.00  0.00    -0.029 A 
ATOM     17  C   LIG    1       29.805 -18.938   8.351  0.00  0.00    +0.041 A 
ATOM     18  C   LIG    1       29.644 -17.597   8.756  0.00  0.00    +0.024 A 
ATOM     19  C   LIG    1       30.453 -17.024   9.738  0.00  0.00    +0.002 A 
ATOM     20  C   LIG    1       31.427 -17.788  10.358  0.00  0.00    +0.000 A 
ATOM     21  C   LIG    1       31.593 -19.123   9.994  0.00  0.00    +0.005 A 
ENDBRANCH   1  17
BRANCH   9  22
ATOM     22  S   LIG    1       22.995 -21.885   6.603  0.00  0.00    +0.057 S 
ATOM     23  O   LIG    1       21.980 -21.464   5.661  0.00  0.00    -0.153 OA
ATOM     24  O   LIG    1       22.866 -21.748   8.030  0.00  0.00    -0.153 OA
BRANCH  22  25
ATOM     25  N   LIG    1       23.166 -23.539   6.339  0.00  0.00    -0.203 NA
ATOM     26  H   LIG    1       24.152 -23.787   6.252  0.00  0.00    +0.144 HD
ATOM     27  H   LIG    1       22.587 -23.831   5.551  0.00  0.00    +0.144 HD
ENDBRANCH  22  25
ENDBRANCH   9  22
TORSDOF 3
ENDMDL
MODEL 3
REMARK VINA RESULT:      -7.4      2.143      3.280
REMARK  Name = *****
REMARK                            x       y       z     vdW  Elec       q    Type
REMARK                         _______ _______ _______ _____ _____    ______ ____
ROOT
ATOM      1  N   LIG    1       25.848 -20.971   5.705  0.00  0.00    -0.248 N 
ATOM      2  C   LIG    1       25.667 -22.048   6.688  0.00  0.00    +0.163 C 
ATOM      3  C   LIG    1       24.767 -23.196   6.198  0.00  0.00    +0.050 C 
ATOM      4  N   LIG    1       26.943 -22.676   7.033  0.00  0.00    -0.325 N 
ATOM      5  H   LIG    1       26.833 -23.406   7.733  0.00  0.00    +0.148 HD
ATOM      6  C   LIG    1       27.979 -21.798   7.339  0.00  0.00    +0.042 A 
ATOM      7  C   LIG    1       28.050 -20.550   6.733  0.00  0.00    +0.060 A 
ATOM      8  C   LIG    1       29.142 -19.704   6.957  0.00  0.00    +0.045 A 
ATOM      9  C   LIG    1       30.185 -20.109   7.794  0.00  0.00    +0.124 A 
ATOM     10  C   LIG    1       30.142 -21.367   8.395  0.00  0.00    +0.069 A 
ATOM     11 CL   LIG    1       31.374 -21.965   9.444  0.00  0.00    -0.082 Cl
ATOM     12  C   LIG    1       29.048 -22.211   8.147  0.00  0.00    +0.045 A 
ATOM     13  C   LIG    1       26.948 -20.109   5.853  0.00  0.00    +0.254 C 
ATOM     14  O   LIG    1       27.057 -18.991   5.350  0.00  0.00    -0.270 OA
ENDROOT
BRANCH   1  17
ATOM     15  C   LIG    1       23.315 -20.357   7.253  0.00  0.00    +0.045 C 
ATOM     16  C   LIG    1       23.485 -20.135   5.771  0.00  0.00    -0.029 A 
ATOM     17  C   LIG    1       24.677 -20.416   5.064  0.00  0.00    +0.041 A 
ATOM     18  C   LIG    1       24.714 -20.141   3.681  0.00  0.00    +0.024 A 
ATOM     19  C   LIG    1       23.622 -19.587   3.013  0.00  0.00    +0.002 A 
ATOM     20  C   LIG    1       22.455 -19.318   3.709  0.00  0.00    +0.000 A 
ATOM     21  C   LIG    1       22.383 -19.600   5.071  0.00  0.00    +0.005 A 
ENDBRANCH   1  17
BRANCH   9  22
ATOM     22  S   LIG    1       31.543 -19.024   8.072  0.00  0.00    +0.057 S 
ATOM     23  O   LIG    1       32.317 -18.925   6.853  0.00  0.00    -0.153 OA
ATOM     24  O   LIG    1       32.115 -19.319   9.360  0.00  0.00    -0.153 OA
BRANCH  22  25
ATOM     25  N   LIG    1       30.828 -17.511   8.250  0.00  0.00    -0.203 NA
ATOM     26  H   LIG    1       30.991 -16.939   7.420  0.00  0.00    +0.144 HD
ATOM     27  H   LIG    1       31.128 -17.080   9.125  0.00  0.00    +0.144 HD
ENDBRANCH  22  25
ENDBRANCH   9  22
TORSDOF 3
ENDMDL
MODEL 4
REMARK VINA RESULT:      -6.3      5.070      6.862
REMARK  Name = *****
REMARK                            x       y       z     vdW  Elec       q    Type
REMARK                         _______ _______ _______ _____ _____    ______ ____
ROOT
ATOM      1  N   LIG    1       25.002 -21.887   5.783  0.00  0.00    -0.248 N 
ATOM      2  C   LIG    1       25.949 -21.900   6.907  0.00  0.00    +0.163 C 
ATOM      3  C   LIG    1       25.826 -20.684   7.843  0.00  0.00    +0.050 C 
ATOM      4  N   LIG    1       25.745 -23.070   7.763  0.00  0.00    -0.325 N 
ATOM      5  H   LIG    1       26.413 -23.103   8.530  0.00  0.00    +0.148 HD
ATOM      6  C   LIG    1       25.639 -24.288   7.096  0.00  0.00    +0.042 A 
ATOM      7  C   LIG    1       25.086 -24.350   5.823  0.00  0.00    +0.060 A 
ATOM      8  C   LIG    1       24.882 -25.581   5.190  0.00  0.00    +0.045 A 
ATOM      9  C   LIG    1       25.228 -26.771   5.837  0.00  0.00    +0.124 A 
ATOM     10  C   LIG    1       25.764 -26.729   7.122  0.00  0.00    +0.069 A 
ATOM     11 CL   LIG    1       26.225 -28.136   8.010  0.00  0.00    -0.082 Cl
ATOM     12  C   LIG    1       25.948 -25.488   7.752  0.00  0.00    +0.045 A 
ATOM     13  C   LIG    1       24.726 -23.098   5.128  0.00  0.00    +0.254 C 
ATOM     14  O   LIG    1       24.249 -23.211   3.999  0.00  0.00    -0.270 OA
ENDROOT
BRANCH   1  17
ATOM     15  C   LIG    1       22.326 -20.571   5.237  0.00  0.00    +0.045 C 
ATOM     16  C   LIG    1       23.648 -20.065   4.716  0.00  0.00    -0.029 A 
ATOM     17  C   LIG    1       24.891 -20.684   4.988  0.00  0.00    +0.041 A 
ATOM     18  C   LIG    1       26.059 -20.097   4.460  0.00  0.00    +0.024 A 
ATOM     19  C   LIG    1       26.014 -18.926   3.704  0.00  0.00    +0.002 A 
ATOM     20  C   LIG    1       24.795 -18.326   3.435  0.00  0.00    +0.000 A 
ATOM     21  C   LIG    1       23.623 -18.897   3.927  0.00  0.00    +0.005 A 
ENDBRANCH   1  17
BRANCH   9  22
ATOM     22  S   LIG    1       24.974 -28.307   5.016  0.00  0.00    +0.057 S 
ATOM     23  O   LIG    1       26.049 -29.208   5.369  0.00  0.00    -0.153 OA
ATOM     24  O   LIG    1       24.564 -28.045   3.660  0.00  0.00    -0.153 OA
BRANCH  22  25
ATOM     25  N   LIG    1       23.611 -28.951   5.765  0.00  0.00    -0.203 NA
ATOM     26  H   LIG    1       23.453 -28.501   6.667  0.00  0.00    +0.144 HD
ATOM     27  H   LIG    1       23.680 -29.968   5.808  0.00  0.00    +0.144 HD
ENDBRANCH  22  25
ENDBRANCH   9  22
TORSDOF 3
ENDMDL
MODEL 5
REMARK VINA RESULT:      -6.2      9.565     11.738
REMARK  Name = *****
REMARK                            x       y       z     vdW  Elec       q    Type
REMARK                         _______ _______ _______ _____ _____    ______ ____
ROOT
ATOM      1  N   LIG    1       24.752 -29.949   9.370  0.00  0.00    -0.248 N 
ATOM      2  C   LIG    1       25.764 -29.684  10.402  0.00  0.00    +0.163 C 
ATOM      3  C   LIG    1       27.004 -28.933   9.885  0.00  0.00    +0.050 C 
ATOM      4  N   LIG    1       25.225 -28.849  11.477  0.00  0.00    -0.325 N 
ATOM      5  H   LIG    1       25.910 -28.681  12.210  0.00  0.00    +0.148 HD
ATOM      6  C   LIG    1       23.991 -29.247  11.983  0.00  0.00    +0.042 A 
ATOM      7  C   LIG    1       23.060 -29.874  11.163  0.00  0.00    +0.060 A 
ATOM      8  C   LIG    1       21.780 -30.183  11.636  0.00  0.00    +0.045 A 
ATOM      9  C   LIG    1       21.417 -29.857  12.946  0.00  0.00    +0.124 A 
ATOM     10  C   LIG    1       22.330 -29.209  13.777  0.00  0.00    +0.069 A 
ATOM     11 CL   LIG    1       21.986 -28.763  15.408  0.00  0.00    -0.082 Cl
ATOM     12  C   LIG    1       23.605 -28.890  13.282  0.00  0.00    +0.045 A 
ATOM     13  C   LIG    1       23.438 -30.230   9.779  0.00  0.00    +0.254 C 
ATOM     14  O   LIG    1       22.579 -30.792   9.101  0.00  0.00    -0.270 OA
ENDROOT
BRANCH   1  17
ATOM     15  C   LIG    1       24.474 -28.482   6.732  0.00  0.00    +0.045 C 
ATOM     16  C   LIG    1       25.044 -29.869   6.881  0.00  0.00    -0.029 A 
ATOM     17  C   LIG    1       25.177 -30.538   8.120  0.00  0.00    +0.041 A 
ATOM     18  C   LIG    1       25.748 -31.827   8.126  0.00  0.00    +0.024 A 
ATOM     19  C   LIG    1       26.195 -32.437   6.954  0.00  0.00    +0.002 A 
ATOM     20  C   LIG    1       26.059 -31.782   5.742  0.00  0.00    +0.000 A 
ATOM     21  C   LIG    1       25.478 -30.515   5.704  0.00  0.00    +0.005 A 
ENDBRANCH   1  17
BRANCH   9  22
ATOM     22  S   LIG    1       19.806 -30.267  13.524  0.00  0.00    +0.057 S 
ATOM     23  O   LIG    1       19.134 -29.052  13.931  0.00  0.00    -0.153 OA
ATOM     24  O   LIG    1       19.896 -31.444  14.349  0.00  0.00    -0.153 OA
BRANCH  22  25
ATOM     25  N   LIG    1       18.989 -30.767  12.140  0.00  0.00    -0.203 NA
ATOM     26  H   LIG    1       18.135 -30.223  12.014  0.00  0.00    +0.144 HD
ATOM     27  H   LIG    1       18.847 -31.777  12.160  0.00  0.00    +0.144 HD
ENDBRANCH  22  25
ENDBRANCH   9  22
TORSDOF 3
ENDMDL
MODEL 6
REMARK VINA RESULT:      -6.1      9.971     11.141
REMARK  Name = *****
REMARK                            x       y       z     vdW  Elec       q    Type
REMARK                         _______ _______ _______ _____ _____    ______ ____
ROOT
ATOM      1  N   LIG    1       21.609 -27.956  13.591  0.00  0.00    -0.248 N 
ATOM      2  C   LIG    1       22.701 -27.015  13.880  0.00  0.00    +0.163 C 
ATOM      3  C   LIG    1       22.667 -26.435  15.305  0.00  0.00    +0.050 C 
ATOM      4  N   LIG    1       24.009 -27.661  13.755  0.00  0.00    -0.325 N 
ATOM      5  H   LIG    1       24.773 -27.012  13.927  0.00  0.00    +0.148 HD
ATOM      6  C   LIG    1       24.198 -28.411  12.598  0.00  0.00    +0.042 A 
ATOM      7  C   LIG    1       23.129 -29.062  11.996  0.00  0.00    +0.060 A 
ATOM      8  C   LIG    1       23.328 -29.901  10.893  0.00  0.00    +0.045 A 
ATOM      9  C   LIG    1       24.615 -30.100  10.385  0.00  0.00    +0.124 A 
ATOM     10  C   LIG    1       25.703 -29.473  10.990  0.00  0.00    +0.069 A 
ATOM     11 CL   LIG    1       27.330 -29.650  10.444  0.00  0.00    -0.082 Cl
ATOM     12  C   LIG    1       25.489 -28.647  12.105  0.00  0.00    +0.045 A 
ATOM     13  C   LIG    1       21.763 -28.850  12.519  0.00  0.00    +0.254 C 
ATOM     14  O   LIG    1       20.853 -29.443  11.942  0.00  0.00    -0.270 OA
ENDROOT
BRANCH   1  17
ATOM     15  C   LIG    1       19.881 -29.566  15.491  0.00  0.00    +0.045 C 
ATOM     16  C   LIG    1       19.434 -28.310  14.789  0.00  0.00    -0.029 A 
ATOM     17  C   LIG    1       20.255 -27.562  13.912  0.00  0.00    +0.041 A 
ATOM     18  C   LIG    1       19.724 -26.390  13.336  0.00  0.00    +0.024 A 
ATOM     19  C   LIG    1       18.433 -25.950  13.625  0.00  0.00    +0.002 A 
ATOM     20  C   LIG    1       17.630 -26.688  14.479  0.00  0.00    +0.000 A 
ATOM     21  C   LIG    1       18.122 -27.862  15.046  0.00  0.00    +0.005 A 
ENDBRANCH   1  17
BRANCH   9  22
ATOM     22  S   LIG    1       24.841 -31.150   8.990  0.00  0.00    +0.057 S 
ATOM     23  O   LIG    1       25.427 -32.396   9.435  0.00  0.00    -0.153 OA
ATOM     24  O   LIG    1       25.362 -30.366   7.901  0.00  0.00    -0.153 OA
BRANCH  22  25
ATOM     25  N   LIG    1       23.275 -31.555   8.525  0.00  0.00    -0.203 NA
ATOM     26  H   LIG    1       23.290 -32.129   7.682  0.00  0.00    +0.144 HD
ATOM     27  H   LIG    1       22.700 -30.715   8.453  0.00  0.00    +0.144 HD
ENDBRANCH  22  25
ENDBRANCH   9  22
TORSDOF 3
ENDMDL
MODEL 7
REMARK VINA RESULT:      -6.1      9.226     11.245
REMARK  Name = *****
REMARK                            x       y       z     vdW  Elec       q    Type
REMARK                         _______ _______ _______ _____ _____    ______ ____
ROOT
ATOM      1  N   LIG    1       26.006 -29.550  12.239  0.00  0.00    -0.248 N 
ATOM      2  C   LIG    1       25.667 -30.968  12.425  0.00  0.00    +0.163 C 
ATOM      3  C   LIG    1       25.169 -31.312  13.840  0.00  0.00    +0.050 C 
ATOM      4  N   LIG    1       24.590 -31.382  11.524  0.00  0.00    -0.325 N 
ATOM      5  H   LIG    1       24.365 -32.369  11.625  0.00  0.00    +0.148 HD
ATOM      6  C   LIG    1       24.746 -31.005  10.193  0.00  0.00    +0.042 A 
ATOM      7  C   LIG    1       25.408 -29.829   9.864  0.00  0.00    +0.060 A 
ATOM      8  C   LIG    1       25.478 -29.393   8.536  0.00  0.00    +0.045 A 
ATOM      9  C   LIG    1       24.874 -30.137   7.518  0.00  0.00    +0.124 A 
ATOM     10  C   LIG    1       24.187 -31.308   7.832  0.00  0.00    +0.069 A 
ATOM     11 CL   LIG    1       23.407 -32.300   6.655  0.00  0.00    -0.082 Cl
ATOM     12  C   LIG    1       24.111 -31.725   9.171  0.00  0.00    +0.045 A 
ATOM     13  C   LIG    1       26.057 -29.041  10.931  0.00  0.00    +0.254 C 
ATOM     14  O   LIG    1       26.637 -28.013  10.583  0.00  0.00    -0.270 OA
ENDROOT
BRANCH   1  17
ATOM     15  C   LIG    1       25.101 -27.132  13.828  0.00  0.00    +0.045 C 
ATOM     16  C   LIG    1       26.458 -27.777  13.954  0.00  0.00    -0.029 A 
ATOM     17  C   LIG    1       26.864 -28.912  13.213  0.00  0.00    +0.041 A 
ATOM     18  C   LIG    1       28.154 -29.433  13.441  0.00  0.00    +0.024 A 
ATOM     19  C   LIG    1       29.016 -28.872  14.383  0.00  0.00    +0.002 A 
ATOM     20  C   LIG    1       28.618 -27.757  15.102  0.00  0.00    +0.000 A 
ATOM     21  C   LIG    1       27.356 -27.208  14.881  0.00  0.00    +0.005 A 
ENDBRANCH   1  17
BRANCH   9  22
ATOM     22  S   LIG    1       24.985 -29.575   5.854  0.00  0.00    +0.057 S 
ATOM     23  O   LIG    1       25.505 -30.648   5.034  0.00  0.00    -0.153 OA
ATOM     24  O   LIG    1       25.519 -28.238   5.851  0.00  0.00    -0.153 OA
BRANCH  22  25
ATOM     25  N   LIG    1       23.382 -29.405   5.371  0.00  0.00    -0.203 NA
ATOM     26  H   LIG    1       22.994 -30.308   5.097  0.00  0.00    +0.144 HD
ATOM     27  H   LIG    1       23.304 -28.678   4.658  0.00  0.00    +0.144 HD
ENDBRANCH  22  25
ENDBRANCH   9  22
TORSDOF 3
ENDMDL
MODEL 8
REMARK VINA RESULT:      -6.0      8.524      9.841
REMARK  Name = *****
REMARK                            x       y       z     vdW  Elec       q    Type
REMARK                         _______ _______ _______ _____ _____    ______ ____
ROOT
ATOM      1  N   LIG    1       25.128 -30.195   9.734  0.00  0.00    -0.248 N 
ATOM      2  C   LIG    1       23.766 -30.403  10.243  0.00  0.00    +0.163 C 
ATOM      3  C   LIG    1       23.200 -31.806   9.963  0.00  0.00    +0.050 C 
ATOM      4  N   LIG    1       23.711 -30.246  11.698  0.00  0.00    -0.325 N 
ATOM      5  H   LIG    1       22.767 -30.362  12.059  0.00  0.00    +0.148 HD
ATOM      6  C   LIG    1       24.337 -29.109  12.202  0.00  0.00    +0.042 A 
ATOM      7  C   LIG    1       25.452 -28.576  11.566  0.00  0.00    +0.060 A 
ATOM      8  C   LIG    1       26.148 -27.498  12.122  0.00  0.00    +0.045 A 
ATOM      9  C   LIG    1       25.732 -26.943  13.336  0.00  0.00    +0.124 A 
ATOM     10  C   LIG    1       24.629 -27.478  13.999  0.00  0.00    +0.069 A 
ATOM     11 CL   LIG    1       24.032 -26.870  15.500  0.00  0.00    -0.082 Cl
ATOM     12  C   LIG    1       23.950 -28.571  13.437  0.00  0.00    +0.045 A 
ATOM     13  C   LIG    1       25.894 -29.150  10.277  0.00  0.00    +0.254 C 
ATOM     14  O   LIG    1       26.880 -28.634   9.754  0.00  0.00    -0.270 OA
ENDROOT
BRANCH   1  17
ATOM     15  C   LIG    1       26.920 -32.541   9.043  0.00  0.00    +0.045 C 
ATOM     16  C   LIG    1       26.259 -31.644   8.027  0.00  0.00    -0.029 A 
ATOM     17  C   LIG    1       25.416 -30.558   8.364  0.00  0.00    +0.041 A 
ATOM     18  C   LIG    1       24.841 -29.810   7.317  0.00  0.00    +0.024 A 
ATOM     19  C   LIG    1       25.065 -30.127   5.978  0.00  0.00    +0.002 A 
ATOM     20  C   LIG    1       25.895 -31.187   5.652  0.00  0.00    +0.000 A 
ATOM     21  C   LIG    1       26.495 -31.931   6.666  0.00  0.00    +0.005 A 
ENDBRANCH   1  17
BRANCH   9  22
ATOM     22  S   LIG    1       26.615 -25.578  14.011  0.00  0.00    +0.057 S 
ATOM     23  O   LIG    1       27.325 -26.021  15.191  0.00  0.00    -0.153 OA
ATOM     24  O   LIG    1       25.766 -24.416  13.979  0.00  0.00    -0.153 OA
BRANCH  22  25
ATOM     25  N   LIG    1       27.819 -25.269  12.877  0.00  0.00    -0.203 NA
ATOM     26  H   LIG    1       27.665 -25.821  12.032  0.00  0.00    +0.144 HD
ATOM     27  H   LIG    1       28.741 -25.392  13.298  0.00  0.00    +0.144 HD
ENDBRANCH  22  25
ENDBRANCH   9  22
TORSDOF 3
ENDMDL
MODEL 9
REMARK VINA RESULT:      -5.9      8.668     10.083
REMARK  Name = *****
REMARK                            x       y       z     vdW  Elec       q    Type
REMARK                         _______ _______ _______ _____ _____    ______ ____
ROOT
ATOM      1  N   LIG    1       25.068 -30.829   9.123  0.00  0.00    -0.248 N 
ATOM      2  C   LIG    1       23.619 -30.915   9.354  0.00  0.00    +0.163 C 
ATOM      3  C   LIG    1       22.995 -32.255   8.926  0.00  0.00    +0.050 C 
ATOM      4  N   LIG    1       23.297 -30.774  10.775  0.00  0.00    -0.325 N 
ATOM      5  H   LIG    1       22.294 -30.806  10.945  0.00  0.00    +0.148 HD
ATOM      6  C   LIG    1       23.914 -29.709  11.427  0.00  0.00    +0.042 A 
ATOM      7  C   LIG    1       25.174 -29.275  11.034  0.00  0.00    +0.060 A 
ATOM      8  C   LIG    1       25.843 -28.275  11.748  0.00  0.00    +0.045 A 
ATOM      9  C   LIG    1       25.250 -27.701  12.876  0.00  0.00    +0.124 A 
ATOM     10  C   LIG    1       23.996 -28.138  13.298  0.00  0.00    +0.069 A 
ATOM     11 CL   LIG    1       23.176 -27.498  14.675  0.00  0.00    -0.082 Cl
ATOM     12  C   LIG    1       23.344 -29.154  12.581  0.00  0.00    +0.045 A 
ATOM     13  C   LIG    1       25.804 -29.869   9.837  0.00  0.00    +0.254 C 
ATOM     14  O   LIG    1       26.915 -29.441   9.529  0.00  0.00    -0.270 OA
ENDROOT
BRANCH   1  17
ATOM     15  C   LIG    1       24.256 -29.356   6.601  0.00  0.00    +0.045 C 
ATOM     16  C   LIG    1       25.204 -30.527   6.637  0.00  0.00    -0.029 A 
ATOM     17  C   LIG    1       25.582 -31.199   7.823  0.00  0.00    +0.041 A 
ATOM     18  C   LIG    1       26.496 -32.268   7.723  0.00  0.00    +0.024 A 
ATOM     19  C   LIG    1       27.042 -32.655   6.499  0.00  0.00    +0.002 A 
ATOM     20  C   LIG    1       26.665 -31.999   5.339  0.00  0.00    +0.000 A 
ATOM     21  C   LIG    1       25.746 -30.953   5.406  0.00  0.00    +0.005 A 
ENDBRANCH   1  17
BRANCH   9  22
ATOM     22  S   LIG    1       26.105 -26.435  13.752  0.00  0.00    +0.057 S 
ATOM     23  O   LIG    1       26.501 -26.949  15.045  0.00  0.00    -0.153 OA
ATOM     24  O   LIG    1       25.404 -25.191  13.568  0.00  0.00    -0.153 OA
BRANCH  22  25
ATOM     25  N   LIG    1       27.546 -26.252  12.903  0.00  0.00    -0.203 NA
ATOM     26  H   LIG    1       28.025 -27.149  12.814  0.00  0.00    +0.144 HD
ATOM     27  H   LIG    1       28.111 -25.513  13.323  0.00  0.00    +0.144 HD
ENDBRANCH  22  25
ENDBRANCH   9  22
TORSDOF 3
ENDMDL
