MODEL 1
REMARK VINA RESULT:      -5.4      0.000      0.000
REMARK  Name = *****
REMARK                            x       y       z     vdW  Elec       q    Type
REMARK                         _______ _______ _______ _____ _____    ______ ____
ROOT
ATOM      1  C   LIG    1       25.818 -17.590   3.431  0.00  0.00    +0.121 A 
ATOM      2  C   LIG    1       24.458 -17.871   3.308  0.00  0.00    +0.046 A 
ATOM      3  C   LIG    1       23.956 -19.096   3.765  0.00  0.00    +0.007 A 
ATOM      4  C   LIG    1       24.814 -20.055   4.325  0.00  0.00    -0.038 A 
ATOM      5  C   LIG    1       26.175 -19.770   4.398  0.00  0.00    +0.007 A 
ATOM      6  C   LIG    1       26.639 -18.511   4.055  0.00  0.00    +0.046 A 
ENDROOT
BRANCH   1   7
ATOM      7  O   LIG    1       26.276 -16.397   2.962  0.00  0.00    -0.489 OA
BRANCH   7   8
ATOM      8  C   LIG    1       27.205 -15.642   3.760  0.00  0.00    +0.261 C 
BRANCH   8   9
ATOM      9  C   LIG    1       27.305 -14.103   3.554  0.00  0.00    +0.166 C 
BRANCH   9  10
ATOM     10  O   LIG    1       28.669 -13.686   3.473  0.00  0.00    -0.387 OA
ATOM     11  H   LIG    1       28.730 -12.900   4.042  0.00  0.00    +0.210 HD
ENDBRANCH   9  10
BRANCH   9  12
ATOM     12  C   LIG    1       26.498 -13.519   2.373  0.00  0.00    +0.115 C 
BRANCH  12  13
ATOM     13  N   LIG    1       25.035 -13.574   2.558  0.00  0.00    -0.311 NA
ATOM     14  H   LIG    1       24.613 -12.883   1.937  0.00  0.00    +0.122 HD
BRANCH  13  16
ATOM     15  C   LIG    1       23.923 -11.986   4.106  0.00  0.00    +0.024 C 
ATOM     16  C   LIG    1       24.576 -13.347   3.935  0.00  0.00    +0.048 C 
ATOM     17  C   LIG    1       23.688 -14.460   4.493  0.00  0.00    +0.024 C 
ENDBRANCH  13  16
ENDBRANCH  12  13
ENDBRANCH   9  12
ENDBRANCH   8   9
ENDBRANCH   7   8
ENDBRANCH   1   7
BRANCH   4  18
ATOM     18  C   LIG    1       24.350 -21.379   4.877  0.00  0.00    +0.130 C 
BRANCH  18  19
ATOM     19  C   LIG    1       23.100 -21.286   5.705  0.00  0.00    +0.215 C 
ATOM     20  O   LIG    1       23.121 -20.976   6.927  0.00  0.00    -0.276 OA
ATOM     21  N   LIG    1       21.924 -21.572   5.104  0.00  0.00    -0.329 N 
ATOM     22  H   LIG    1       21.082 -21.552   5.665  0.00  0.00    +0.145 HD
ATOM     23  H   LIG    1       21.848 -21.803   4.121  0.00  0.00    +0.145 HD
ENDBRANCH  18  19
ENDBRANCH   4  18
TORSDOF 9
ENDMDL
MODEL 2
REMARK VINA RESULT:      -5.0      2.414      7.226
REMARK  Name = *****
REMARK                            x       y       z     vdW  Elec       q    Type
REMARK                         _______ _______ _______ _____ _____    ______ ____
ROOT
ATOM      1  C   LIG    1       24.756 -16.866   3.685  0.00  0.00    +0.121 A 
ATOM      2  C   LIG    1       26.102 -16.823   3.326  0.00  0.00    +0.046 A 
ATOM      3  C   LIG    1       26.767 -15.592   3.265  0.00  0.00    +0.007 A 
ATOM      4  C   LIG    1       26.084 -14.397   3.540  0.00  0.00    -0.038 A 
ATOM      5  C   LIG    1       24.730 -14.461   3.854  0.00  0.00    +0.007 A 
ATOM      6  C   LIG    1       24.115 -15.690   4.028  0.00  0.00    +0.046 A 
ENDROOT
BRANCH   1   7
ATOM      7  O   LIG    1       24.134 -18.077   3.719  0.00  0.00    -0.489 OA
BRANCH   7   8
ATOM      8  C   LIG    1       24.933 -19.273   3.697  0.00  0.00    +0.261 C 
BRANCH   8   9
ATOM      9  C   LIG    1       24.707 -20.355   4.793  0.00  0.00    +0.166 C 
BRANCH   9  10
ATOM     10  O   LIG    1       24.227 -21.572   4.218  0.00  0.00    -0.387 OA
ATOM     11  H   LIG    1       23.284 -21.416   4.041  0.00  0.00    +0.210 HD
ENDBRANCH   9  10
BRANCH   9  12
ATOM     12  C   LIG    1       25.905 -20.642   5.725  0.00  0.00    +0.115 C 
BRANCH  12  13
ATOM     13  N   LIG    1       27.215 -20.281   5.149  0.00  0.00    -0.311 NA
ATOM     14  H   LIG    1       27.594 -21.109   4.688  0.00  0.00    +0.122 HD
BRANCH  13  16
ATOM     15  C   LIG    1       29.029 -20.866   6.736  0.00  0.00    +0.024 C 
ATOM     16  C   LIG    1       28.193 -19.762   6.113  0.00  0.00    +0.048 C 
ATOM     17  C   LIG    1       29.078 -18.639   5.568  0.00  0.00    +0.024 C 
ENDBRANCH  13  16
ENDBRANCH  12  13
ENDBRANCH   9  12
ENDBRANCH   8   9
ENDBRANCH   7   8
ENDBRANCH   1   7
BRANCH   4  18
ATOM     18  C   LIG    1       26.735 -13.037   3.536  0.00  0.00    +0.130 C 
BRANCH  18  19
ATOM     19  C   LIG    1       28.019 -12.977   4.313  0.00  0.00    +0.215 C 
ATOM     20  O   LIG    1       29.148 -13.014   3.753  0.00  0.00    -0.276 OA
ATOM     21  N   LIG    1       27.939 -12.905   5.659  0.00  0.00    -0.329 N 
ATOM     22  H   LIG    1       28.799 -12.906   6.192  0.00  0.00    +0.145 HD
ATOM     23  H   LIG    1       27.058 -12.849   6.158  0.00  0.00    +0.145 HD
ENDBRANCH  18  19
ENDBRANCH   4  18
TORSDOF 9
ENDMDL
MODEL 3
REMARK VINA RESULT:      -4.9      2.083      6.797
REMARK  Name = *****
REMARK                            x       y       z     vdW  Elec       q    Type
REMARK                         _______ _______ _______ _____ _____    ______ ____
ROOT
ATOM      1  C   LIG    1       25.834 -16.566   3.342  0.00  0.00    +0.121 A 
ATOM      2  C   LIG    1       24.562 -16.144   3.723  0.00  0.00    +0.046 A 
ATOM      3  C   LIG    1       24.365 -14.826   4.155  0.00  0.00    +0.007 A 
ATOM      4  C   LIG    1       25.444 -13.931   4.229  0.00  0.00    -0.038 A 
ATOM      5  C   LIG    1       26.713 -14.387   3.885  0.00  0.00    +0.007 A 
ATOM      6  C   LIG    1       26.873 -15.654   3.347  0.00  0.00    +0.046 A 
ENDROOT
BRANCH   1   7
ATOM      7  O   LIG    1       25.995 -17.858   2.944  0.00  0.00    -0.489 OA
BRANCH   7   8
ATOM      8  C   LIG    1       25.267 -18.895   3.625  0.00  0.00    +0.261 C 
BRANCH   8   9
ATOM      9  C   LIG    1       26.045 -20.113   4.203  0.00  0.00    +0.166 C 
BRANCH   9  10
ATOM     10  O   LIG    1       27.282 -19.698   4.786  0.00  0.00    -0.387 OA
ATOM     11  H   LIG    1       27.034 -19.105   5.515  0.00  0.00    +0.210 HD
ENDBRANCH   9  10
BRANCH   9  12
ATOM     12  C   LIG    1       25.267 -21.015   5.186  0.00  0.00    +0.115 C 
BRANCH  12  13
ATOM     13  N   LIG    1       23.936 -21.427   4.700  0.00  0.00    -0.311 NA
ATOM     14  H   LIG    1       23.839 -21.103   3.737  0.00  0.00    +0.122 HD
BRANCH  13  16
ATOM     15  C   LIG    1       23.192 -20.691   6.949  0.00  0.00    +0.024 C 
ATOM     16  C   LIG    1       22.806 -20.939   5.501  0.00  0.00    +0.048 C 
ATOM     17  C   LIG    1       22.089 -19.727   4.905  0.00  0.00    +0.024 C 
ENDBRANCH  13  16
ENDBRANCH  12  13
ENDBRANCH   9  12
ENDBRANCH   8   9
ENDBRANCH   7   8
ENDBRANCH   1   7
BRANCH   4  18
ATOM     18  C   LIG    1       25.312 -12.487   4.643  0.00  0.00    +0.130 C 
BRANCH  18  19
ATOM     19  C   LIG    1       24.039 -11.838   4.181  0.00  0.00    +0.215 C 
ATOM     20  O   LIG    1       23.150 -11.447   4.985  0.00  0.00    -0.276 OA
ATOM     21  N   LIG    1       23.848 -11.700   2.851  0.00  0.00    -0.329 N 
ATOM     22  H   LIG    1       22.976 -11.302   2.529  0.00  0.00    +0.145 HD
ATOM     23  H   LIG    1       24.539 -11.975   2.162  0.00  0.00    +0.145 HD
ENDBRANCH  18  19
ENDBRANCH   4  18
TORSDOF 9
ENDMDL
MODEL 4
REMARK VINA RESULT:      -4.9      2.029      7.305
REMARK  Name = *****
REMARK                            x       y       z     vdW  Elec       q    Type
REMARK                         _______ _______ _______ _____ _____    ______ ____
ROOT
ATOM      1  C   LIG    1       23.324 -16.895   4.231  0.00  0.00    +0.121 A 
ATOM      2  C   LIG    1       24.586 -17.138   3.691  0.00  0.00    +0.046 A 
ATOM      3  C   LIG    1       25.454 -16.068   3.442  0.00  0.00    +0.007 A 
ATOM      4  C   LIG    1       25.057 -14.749   3.710  0.00  0.00    -0.038 A 
ATOM      5  C   LIG    1       23.776 -14.527   4.208  0.00  0.00    +0.007 A 
ATOM      6  C   LIG    1       22.973 -15.599   4.562  0.00  0.00    +0.046 A 
ENDROOT
BRANCH   1   7
ATOM      7  O   LIG    1       22.497 -17.955   4.445  0.00  0.00    -0.489 OA
BRANCH   7   8
ATOM      8  C   LIG    1       23.041 -19.286   4.399  0.00  0.00    +0.261 C 
BRANCH   8   9
ATOM      9  C   LIG    1       22.562 -20.338   5.441  0.00  0.00    +0.166 C 
BRANCH   9  10
ATOM     10  O   LIG    1       22.197 -21.562   4.800  0.00  0.00    -0.387 OA
ATOM     11  H   LIG    1       22.119 -22.213   5.518  0.00  0.00    +0.210 HD
ENDBRANCH   9  10
BRANCH   9  12
ATOM     12  C   LIG    1       23.521 -20.617   6.619  0.00  0.00    +0.115 C 
BRANCH  12  13
ATOM     13  N   LIG    1       24.720 -21.392   6.247  0.00  0.00    -0.311 NA
ATOM     14  H   LIG    1       24.731 -22.244   6.810  0.00  0.00    +0.122 HD
BRANCH  13  16
ATOM     15  C   LIG    1       27.060 -21.543   7.058  0.00  0.00    +0.024 C 
ATOM     16  C   LIG    1       25.994 -20.679   6.406  0.00  0.00    +0.048 C 
ATOM     17  C   LIG    1       26.516 -20.029   5.124  0.00  0.00    +0.024 C 
ENDBRANCH  13  16
ENDBRANCH  12  13
ENDBRANCH   9  12
ENDBRANCH   8   9
ENDBRANCH   7   8
ENDBRANCH   1   7
BRANCH   4  18
ATOM     18  C   LIG    1       25.943 -13.546   3.509  0.00  0.00    +0.130 C 
BRANCH  18  19
ATOM     19  C   LIG    1       27.190 -13.566   4.346  0.00  0.00    +0.215 C 
ATOM     20  O   LIG    1       28.321 -13.848   3.866  0.00  0.00    -0.276 OA
ATOM     21  N   LIG    1       27.069 -13.292   5.664  0.00  0.00    -0.329 N 
ATOM     22  H   LIG    1       27.898 -13.344   6.242  0.00  0.00    +0.145 HD
ATOM     23  H   LIG    1       26.190 -13.036   6.097  0.00  0.00    +0.145 HD
ENDBRANCH  18  19
ENDBRANCH   4  18
TORSDOF 9
ENDMDL
MODEL 5
REMARK VINA RESULT:      -4.4      1.901      6.868
REMARK  Name = *****
REMARK                            x       y       z     vdW  Elec       q    Type
REMARK                         _______ _______ _______ _____ _____    ______ ____
ROOT
ATOM      1  C   LIG    1       25.093 -17.125   3.633  0.00  0.00    +0.121 A 
ATOM      2  C   LIG    1       24.249 -16.035   3.836  0.00  0.00    +0.046 A 
ATOM      3  C   LIG    1       24.767 -14.735   3.790  0.00  0.00    +0.007 A 
ATOM      4  C   LIG    1       26.135 -14.519   3.564  0.00  0.00    -0.038 A 
ATOM      5  C   LIG    1       26.967 -15.624   3.408  0.00  0.00    +0.007 A 
ATOM      6  C   LIG    1       26.424 -16.897   3.336  0.00  0.00    +0.046 A 
ENDROOT
BRANCH   1   7
ATOM      7  O   LIG    1       24.561 -18.376   3.702  0.00  0.00    -0.489 OA
BRANCH   7   8
ATOM      8  C   LIG    1       25.361 -19.500   3.292  0.00  0.00    +0.261 C 
BRANCH   8   9
ATOM      9  C   LIG    1       25.839 -20.521   4.365  0.00  0.00    +0.166 C 
BRANCH   9  10
ATOM     10  O   LIG    1       26.415 -19.850   5.487  0.00  0.00    -0.387 OA
ATOM     11  H   LIG    1       25.966 -18.989   5.528  0.00  0.00    +0.210 HD
ENDBRANCH   9  10
BRANCH   9  12
ATOM     12  C   LIG    1       24.792 -21.552   4.839  0.00  0.00    +0.115 C 
BRANCH  12  13
ATOM     13  N   LIG    1       23.434 -21.315   4.314  0.00  0.00    -0.311 NA
ATOM     14  H   LIG    1       23.516 -20.730   3.481  0.00  0.00    +0.122 HD
BRANCH  13  16
ATOM     15  C   LIG    1       23.072 -20.628   6.670  0.00  0.00    +0.024 C 
ATOM     16  C   LIG    1       22.502 -20.693   5.263  0.00  0.00    +0.048 C 
ATOM     17  C   LIG    1       21.968 -19.330   4.820  0.00  0.00    +0.024 C 
ENDBRANCH  13  16
ENDBRANCH  12  13
ENDBRANCH   9  12
ENDBRANCH   8   9
ENDBRANCH   7   8
ENDBRANCH   1   7
BRANCH   4  18
ATOM     18  C   LIG    1       26.765 -13.154   3.460  0.00  0.00    +0.130 C 
BRANCH  18  19
ATOM     19  C   LIG    1       28.023 -13.003   4.267  0.00  0.00    +0.215 C 
ATOM     20  O   LIG    1       29.169 -13.018   3.740  0.00  0.00    -0.276 OA
ATOM     21  N   LIG    1       27.901 -12.871   5.606  0.00  0.00    -0.329 N 
ATOM     22  H   LIG    1       28.744 -12.811   6.161  0.00  0.00    +0.145 HD
ATOM     23  H   LIG    1       27.005 -12.829   6.077  0.00  0.00    +0.145 HD
ENDBRANCH  18  19
ENDBRANCH   4  18
TORSDOF 9
ENDMDL
MODEL 6
REMARK VINA RESULT:      -4.4      2.038      2.994
REMARK  Name = *****
REMARK                            x       y       z     vdW  Elec       q    Type
REMARK                         _______ _______ _______ _____ _____    ______ ____
ROOT
ATOM      1  C   LIG    1       23.972 -16.012   4.099  0.00  0.00    +0.121 A 
ATOM      2  C   LIG    1       22.715 -16.103   4.695  0.00  0.00    +0.046 A 
ATOM      3  C   LIG    1       22.097 -17.353   4.828  0.00  0.00    +0.007 A 
ATOM      4  C   LIG    1       22.721 -18.513   4.346  0.00  0.00    -0.038 A 
ATOM      5  C   LIG    1       23.957 -18.393   3.716  0.00  0.00    +0.007 A 
ATOM      6  C   LIG    1       24.610 -17.171   3.698  0.00  0.00    +0.046 A 
ENDROOT
BRANCH   1   7
ATOM      7  O   LIG    1       24.539 -14.781   3.970  0.00  0.00    -0.489 OA
BRANCH   7   8
ATOM      8  C   LIG    1       23.818 -13.750   3.272  0.00  0.00    +0.261 C 
BRANCH   8   9
ATOM      9  C   LIG    1       24.569 -12.878   2.223  0.00  0.00    +0.166 C 
BRANCH   9  10
ATOM     10  O   LIG    1       23.858 -11.665   1.967  0.00  0.00    -0.387 OA
ATOM     11  H   LIG    1       23.430 -11.797   1.104  0.00  0.00    +0.210 HD
ENDBRANCH   9  10
BRANCH   9  12
ATOM     12  C   LIG    1       26.053 -12.574   2.526  0.00  0.00    +0.115 C 
BRANCH  12  13
ATOM     13  N   LIG    1       26.900 -13.776   2.647  0.00  0.00    -0.311 NA
ATOM     14  H   LIG    1       26.287 -14.592   2.673  0.00  0.00    +0.122 HD
BRANCH  13  16
ATOM     15  C   LIG    1       28.948 -12.819   3.669  0.00  0.00    +0.024 C 
ATOM     16  C   LIG    1       27.790 -13.791   3.815  0.00  0.00    +0.048 C 
ATOM     17  C   LIG    1       27.074 -13.602   5.154  0.00  0.00    +0.024 C 
ENDBRANCH  13  16
ENDBRANCH  12  13
ENDBRANCH   9  12
ENDBRANCH   8   9
ENDBRANCH   7   8
ENDBRANCH   1   7
BRANCH   4  18
ATOM     18  C   LIG    1       22.143 -19.899   4.486  0.00  0.00    +0.130 C 
BRANCH  18  19
ATOM     19  C   LIG    1       23.001 -20.835   5.287  0.00  0.00    +0.215 C 
ATOM     20  O   LIG    1       22.905 -20.935   6.540  0.00  0.00    -0.276 OA
ATOM     21  N   LIG    1       23.920 -21.572   4.624  0.00  0.00    -0.329 N 
ATOM     22  H   LIG    1       24.530 -22.174   5.161  0.00  0.00    +0.145 HD
ATOM     23  H   LIG    1       24.024 -21.549   3.616  0.00  0.00    +0.145 HD
ENDBRANCH  18  19
ENDBRANCH   4  18
TORSDOF 9
ENDMDL
MODEL 7
REMARK VINA RESULT:      -4.3      2.054      7.330
REMARK  Name = *****
REMARK                            x       y       z     vdW  Elec       q    Type
REMARK                         _______ _______ _______ _____ _____    ______ ____
ROOT
ATOM      1  C   LIG    1       23.744 -17.310   3.913  0.00  0.00    +0.121 A 
ATOM      2  C   LIG    1       22.746 -16.487   4.433  0.00  0.00    +0.046 A 
ATOM      3  C   LIG    1       22.983 -15.115   4.582  0.00  0.00    +0.007 A 
ATOM      4  C   LIG    1       24.226 -14.564   4.235  0.00  0.00    -0.038 A 
ATOM      5  C   LIG    1       25.222 -15.411   3.758  0.00  0.00    +0.007 A 
ATOM      6  C   LIG    1       24.936 -16.743   3.503  0.00  0.00    +0.046 A 
ENDROOT
BRANCH   1   7
ATOM      7  O   LIG    1       23.488 -18.642   3.796  0.00  0.00    -0.489 OA
BRANCH   7   8
ATOM      8  C   LIG    1       22.452 -19.228   4.604  0.00  0.00    +0.261 C 
BRANCH   8   9
ATOM      9  C   LIG    1       22.720 -20.588   5.311  0.00  0.00    +0.166 C 
BRANCH   9  10
ATOM     10  O   LIG    1       21.741 -21.560   4.938  0.00  0.00    -0.387 OA
ATOM     11  H   LIG    1       21.645 -21.468   3.975  0.00  0.00    +0.210 HD
ENDBRANCH   9  10
BRANCH   9  12
ATOM     12  C   LIG    1       24.140 -21.173   5.149  0.00  0.00    +0.115 C 
BRANCH  12  13
ATOM     13  N   LIG    1       24.950 -21.137   6.383  0.00  0.00    -0.311 NA
ATOM     14  H   LIG    1       24.364 -20.767   7.132  0.00  0.00    +0.122 HD
BRANCH  13  16
ATOM     15  C   LIG    1       27.332 -20.990   7.057  0.00  0.00    +0.024 C 
ATOM     16  C   LIG    1       26.187 -20.352   6.290  0.00  0.00    +0.048 C 
ATOM     17  C   LIG    1       26.605 -20.004   4.860  0.00  0.00    +0.024 C 
ENDBRANCH  13  16
ENDBRANCH  12  13
ENDBRANCH   9  12
ENDBRANCH   8   9
ENDBRANCH   7   8
ENDBRANCH   1   7
BRANCH   4  18
ATOM     18  C   LIG    1       24.548 -13.093   4.326  0.00  0.00    +0.130 C 
BRANCH  18  19
ATOM     19  C   LIG    1       24.761 -12.436   2.993  0.00  0.00    +0.215 C 
ATOM     20  O   LIG    1       25.762 -12.685   2.269  0.00  0.00    -0.276 OA
ATOM     21  N   LIG    1       23.846 -11.529   2.584  0.00  0.00    -0.329 N 
ATOM     22  H   LIG    1       24.004 -11.051   1.707  0.00  0.00    +0.145 HD
ATOM     23  H   LIG    1       23.012 -11.308   3.115  0.00  0.00    +0.145 HD
ENDBRANCH  18  19
ENDBRANCH   4  18
TORSDOF 9
ENDMDL
MODEL 8
REMARK VINA RESULT:      -4.1      2.560      6.679
REMARK  Name = *****
REMARK                            x       y       z     vdW  Elec       q    Type
REMARK                         _______ _______ _______ _____ _____    ______ ____
ROOT
ATOM      1  C   LIG    1       27.164 -16.839   3.910  0.00  0.00    +0.121 A 
ATOM      2  C   LIG    1       25.924 -16.609   3.317  0.00  0.00    +0.046 A 
ATOM      3  C   LIG    1       25.520 -15.298   3.032  0.00  0.00    +0.007 A 
ATOM      4  C   LIG    1       26.344 -14.211   3.360  0.00  0.00    -0.038 A 
ATOM      5  C   LIG    1       27.560 -14.462   3.991  0.00  0.00    +0.007 A 
ATOM      6  C   LIG    1       27.999 -15.765   4.157  0.00  0.00    +0.046 A 
ENDROOT
BRANCH   1   7
ATOM      7  O   LIG    1       27.519 -18.123   4.189  0.00  0.00    -0.489 OA
BRANCH   7   8
ATOM      8  C   LIG    1       28.516 -18.370   5.197  0.00  0.00    +0.261 C 
BRANCH   8   9
ATOM      9  C   LIG    1       28.559 -19.760   5.895  0.00  0.00    +0.166 C 
BRANCH   9  10
ATOM     10  O   LIG    1       29.384 -19.719   7.062  0.00  0.00    -0.387 OA
ATOM     11  H   LIG    1       30.274 -19.499   6.738  0.00  0.00    +0.210 HD
ENDBRANCH   9  10
BRANCH   9  12
ATOM     12  C   LIG    1       27.193 -20.398   6.230  0.00  0.00    +0.115 C 
BRANCH  12  13
ATOM     13  N   LIG    1       26.322 -20.604   5.057  0.00  0.00    -0.311 NA
ATOM     14  H   LIG    1       26.428 -19.797   4.441  0.00  0.00    +0.122 HD
BRANCH  13  16
ATOM     15  C   LIG    1       24.629 -20.778   6.862  0.00  0.00    +0.024 C 
ATOM     16  C   LIG    1       24.901 -20.804   5.367  0.00  0.00    +0.048 C 
ATOM     17  C   LIG    1       23.955 -19.864   4.618  0.00  0.00    +0.024 C 
ENDBRANCH  13  16
ENDBRANCH  12  13
ENDBRANCH   9  12
ENDBRANCH   8   9
ENDBRANCH   7   8
ENDBRANCH   1   7
BRANCH   4  18
ATOM     18  C   LIG    1       26.004 -12.775   3.052  0.00  0.00    +0.130 C 
BRANCH  18  19
ATOM     19  C   LIG    1       24.529 -12.495   3.020  0.00  0.00    +0.215 C 
ATOM     20  O   LIG    1       23.843 -12.367   4.070  0.00  0.00    -0.276 OA
ATOM     21  N   LIG    1       23.930 -12.404   1.812  0.00  0.00    -0.329 N 
ATOM     22  H   LIG    1       22.930 -12.258   1.782  0.00  0.00    +0.145 HD
ATOM     23  H   LIG    1       24.437 -12.475   0.937  0.00  0.00    +0.145 HD
ENDBRANCH  18  19
ENDBRANCH   4  18
TORSDOF 9
ENDMDL
MODEL 9
REMARK VINA RESULT:      -3.4      3.384      4.623
REMARK  Name = *****
REMARK                            x       y       z     vdW  Elec       q    Type
REMARK                         _______ _______ _______ _____ _____    ______ ____
ROOT
ATOM      1  C   LIG    1       25.739 -20.780   6.191  0.00  0.00    +0.121 A 
ATOM      2  C   LIG    1       24.652 -20.834   7.062  0.00  0.00    +0.046 A 
ATOM      3  C   LIG    1       23.359 -20.604   6.576  0.00  0.00    +0.007 A 
ATOM      4  C   LIG    1       23.149 -20.297   5.223  0.00  0.00    -0.038 A 
ATOM      5  C   LIG    1       24.253 -20.205   4.381  0.00  0.00    +0.007 A 
ATOM      6  C   LIG    1       25.511 -20.552   4.847  0.00  0.00    +0.046 A 
ENDROOT
BRANCH   1   7
ATOM      7  O   LIG    1       26.985 -20.991   6.698  0.00  0.00    -0.489 OA
BRANCH   7   8
ATOM      8  C   LIG    1       27.798 -19.858   7.051  0.00  0.00    +0.261 C 
BRANCH   8   9
ATOM      9  C   LIG    1       28.916 -19.393   6.072  0.00  0.00    +0.166 C 
BRANCH   9  10
ATOM     10  O   LIG    1       29.254 -20.434   5.153  0.00  0.00    -0.387 OA
ATOM     11  H   LIG    1       30.039 -20.864   5.533  0.00  0.00    +0.210 HD
ENDBRANCH   9  10
BRANCH   9  12
ATOM     12  C   LIG    1       28.651 -18.075   5.311  0.00  0.00    +0.115 C 
BRANCH  12  13
ATOM     13  N   LIG    1       27.611 -18.180   4.270  0.00  0.00    -0.311 NA
ATOM     14  H   LIG    1       27.944 -18.829   3.557  0.00  0.00    +0.122 HD
BRANCH  13  16
ATOM     15  C   LIG    1       25.749 -16.842   3.323  0.00  0.00    +0.024 C 
ATOM     16  C   LIG    1       27.233 -16.908   3.641  0.00  0.00    +0.048 C 
ATOM     17  C   LIG    1       27.689 -15.666   4.408  0.00  0.00    +0.024 C 
ENDBRANCH  13  16
ENDBRANCH  12  13
ENDBRANCH   9  12
ENDBRANCH   8   9
ENDBRANCH   7   8
ENDBRANCH   1   7
BRANCH   4  18
ATOM     18  C   LIG    1       21.788 -20.076   4.613  0.00  0.00    +0.130 C 
BRANCH  18  19
ATOM     19  C   LIG    1       21.552 -18.667   4.150  0.00  0.00    +0.215 C 
ATOM     20  O   LIG    1       20.717 -18.383   3.250  0.00  0.00    -0.276 OA
ATOM     21  N   LIG    1       22.289 -17.686   4.716  0.00  0.00    -0.329 N 
ATOM     22  H   LIG    1       22.166 -16.740   4.381  0.00  0.00    +0.145 HD
ATOM     23  H   LIG    1       22.957 -17.855   5.459  0.00  0.00    +0.145 HD
ENDBRANCH  18  19
ENDBRANCH   4  18
TORSDOF 9
ENDMDL
