MODEL 1
REMARK VINA RESULT:      11.2      0.000      0.000
REMARK  Name = *****
REMARK                            x       y       z     vdW  Elec       q    Type
REMARK                         _______ _______ _______ _____ _____    ______ ____
ROOT
ATOM      1  C   LIG    1       26.499 -13.665   2.720  0.00  0.00    +0.164 A 
ATOM      2  C   LIG    1       27.753 -13.476   3.320  0.00  0.00    +0.162 A 
ATOM      3  C   LIG    1       28.358 -14.545   3.980  0.00  0.00    +0.062 A 
ATOM      4  C   LIG    1       27.735 -15.811   4.010  0.00  0.00    +0.044 A 
ATOM      5  C   LIG    1       26.505 -16.004   3.388  0.00  0.00    +0.082 A 
ATOM      6  N   LIG    1       25.888 -17.187   3.353  0.00  0.00    -0.214 NA
ATOM      7  C   LIG    1       26.488 -18.235   3.927  0.00  0.00    +0.220 A 
ATOM      8  N   LIG    1       27.657 -18.133   4.578  0.00  0.00    -0.199 NA
ATOM      9  C   LIG    1       28.259 -16.945   4.621  0.00  0.00    +0.129 A 
ATOM     10  C   LIG    1       25.894 -14.925   2.772  0.00  0.00    +0.078 A 
ENDROOT
BRANCH   7  11
ATOM     11  N   LIG    1       25.870 -19.489   3.854  0.00  0.00    -0.297 N 
ATOM     12  C   LIG    1       24.599 -19.428   3.108  0.00  0.00    +0.127 C 
ATOM     13  C   LIG    1       23.962 -20.822   3.002  0.00  0.00    +0.127 C 
ATOM     14  N   LIG    1       23.813 -21.412   4.338  0.00  0.00    -0.292 N 
ATOM     15  C   LIG    1       22.671 -21.198   5.132  0.00  0.00    +0.282 C 
ATOM     16  O   LIG    1       22.766 -21.128   6.353  0.00  0.00    -0.267 OA
ATOM     17  C   LIG    1       25.102 -21.546   5.023  0.00  0.00    +0.127 C 
ATOM     18  C   LIG    1       25.806 -20.179   5.163  0.00  0.00    +0.127 C 
BRANCH  15  19
ATOM     19  C   LIG    1       21.384 -21.062   4.466  0.00  0.00    +0.189 A 
ATOM     20  O   LIG    1       20.411 -20.256   4.999  0.00  0.00    -0.458 OA
ATOM     21  C   LIG    1       19.350 -20.283   4.155  0.00  0.00    +0.196 A 
ATOM     22  C   LIG    1       19.621 -21.075   3.065  0.00  0.00    +0.042 A 
ATOM     23  C   LIG    1       20.934 -21.572   3.259  0.00  0.00    +0.054 A 
ENDBRANCH  15  19
ENDBRANCH   7  11
BRANCH   9  24
ATOM     24  N   LIG    1       29.473 -16.925   5.317  0.00  0.00    -0.343 N 
ATOM     25  H   LIG    1       29.447 -17.575   6.096  0.00  0.00    +0.144 HD
ATOM     26  H   LIG    1       30.191 -17.195   4.647  0.00  0.00    +0.144 HD
ENDBRANCH   9  24
BRANCH   1  28
ATOM     27  C   LIG    1       24.555 -12.336   2.476  0.00  0.00    +0.277 C 
ATOM     28  O   LIG    1       25.912 -12.580   2.115  0.00  0.00    -0.491 OA
ENDBRANCH   1  28
BRANCH   2  29
ATOM     29  O   LIG    1       28.322 -12.230   3.239  0.00  0.00    -0.491 OA
ATOM     30  C   LIG    1       29.299 -11.944   4.237  0.00  0.00    +0.277 C 
ENDBRANCH   2  29
TORSDOF 5
ENDMDL
