MODEL 1
REMARK VINA RESULT:      -8.3      0.000      0.000
REMARK  Name = *****
REMARK                            x       y       z     vdW  Elec       q    Type
REMARK                         _______ _______ _______ _____ _____    ______ ____
ROOT
ATOM      1  O   LIG    1       28.259 -20.921   8.428  0.00  0.00    -0.461 OA
ENDROOT
BRANCH   1   5
ATOM      2  N   LIG    1       24.681 -21.644   6.566  0.00  0.00    +0.247 N 
ATOM      3  C   LIG    1       24.969 -21.433   8.080  0.00  0.00    +0.070 C 
ATOM      4  C   LIG    1       25.910 -20.239   8.280  0.00  0.00    +0.099 C 
ATOM      5  C   LIG    1       27.249 -20.368   7.539  0.00  0.00    +0.187 C 
ATOM      6  C   LIG    1       27.181 -21.208   6.245  0.00  0.00    +0.099 C 
ATOM      7  C   LIG    1       25.660 -22.748   8.507  0.00  0.00    +0.060 C 
ATOM      8  C   LIG    1       26.259 -23.340   7.232  0.00  0.00    +0.060 C 
ATOM      9  C   LIG    1       26.054 -22.260   6.170  0.00  0.00    +0.070 C 
ATOM     10  C   LIG    1       23.536 -22.688   6.405  0.00  0.00    +0.193 C 
BRANCH   2  12
ATOM     11  C   LIG    1       24.663 -20.505   4.265  0.00  0.00    +0.063 C 
ATOM     12  C   LIG    1       24.292 -20.359   5.746  0.00  0.00    +0.060 C 
ATOM     13  C   LIG    1       22.806 -20.011   5.891  0.00  0.00    +0.063 C 
ENDBRANCH   2  12
ENDBRANCH   1   5
BRANCH   1  14
ATOM     14  C   LIG    1       29.555 -20.549   8.156  0.00  0.00    +0.317 C 
ATOM     15  O   LIG    1       30.508 -21.329   8.232  0.00  0.00    -0.250 OA
BRANCH  14  16
ATOM     16  C   LIG    1       29.658 -19.096   7.710  0.00  0.00    +0.153 C 
BRANCH  16  17
ATOM     17  C   LIG    1       30.414 -18.247   8.725  0.00  0.00    -0.032 A 
ATOM     18  C   LIG    1       31.719 -17.790   8.485  0.00  0.00    +0.004 A 
ATOM     19  C   LIG    1       32.390 -17.014   9.434  0.00  0.00    +0.000 A 
ATOM     20  C   LIG    1       31.769 -16.689  10.637  0.00  0.00    +0.000 A 
ATOM     21  C   LIG    1       30.477 -17.138  10.894  0.00  0.00    +0.000 A 
ATOM     22  C   LIG    1       29.804 -17.914   9.946  0.00  0.00    +0.004 A 
ENDBRANCH  16  17
BRANCH  16  23
ATOM     23  C   LIG    1       30.277 -19.045   6.302  0.00  0.00    +0.175 C 
BRANCH  23  24
ATOM     24  O   LIG    1       29.665 -18.041   5.494  0.00  0.00    -0.394 OA
ATOM     25  H   LIG    1       30.329 -17.739   4.845  0.00  0.00    +0.209 HD
ENDBRANCH  23  24
ENDBRANCH  16  23
ENDBRANCH  14  16
ENDBRANCH   1  14
TORSDOF 7
ENDMDL
MODEL 2
REMARK VINA RESULT:      -8.0      1.175      2.390
REMARK  Name = *****
REMARK                            x       y       z     vdW  Elec       q    Type
REMARK                         _______ _______ _______ _____ _____    ______ ____
ROOT
ATOM      1  O   LIG    1       28.675 -20.336   7.693  0.00  0.00    -0.461 OA
ENDROOT
BRANCH   1   5
ATOM      2  N   LIG    1       25.045 -22.003   6.779  0.00  0.00    +0.247 N 
ATOM      3  C   LIG    1       25.407 -20.505   6.987  0.00  0.00    +0.070 C 
ATOM      4  C   LIG    1       26.706 -20.164   6.246  0.00  0.00    +0.099 C 
ATOM      5  C   LIG    1       27.909 -21.023   6.666  0.00  0.00    +0.187 C 
ATOM      6  C   LIG    1       27.538 -22.440   7.156  0.00  0.00    +0.099 C 
ATOM      7  C   LIG    1       25.606 -20.385   8.515  0.00  0.00    +0.060 C 
ATOM      8  C   LIG    1       25.947 -21.792   9.005  0.00  0.00    +0.060 C 
ATOM      9  C   LIG    1       26.115 -22.616   7.729  0.00  0.00    +0.070 C 
ATOM     10  C   LIG    1       23.608 -22.261   7.322  0.00  0.00    +0.193 C 
BRANCH   2  12
ATOM     11  C   LIG    1       24.840 -24.045   5.237  0.00  0.00    +0.063 C 
ATOM     12  C   LIG    1       25.115 -22.538   5.302  0.00  0.00    +0.060 C 
ATOM     13  C   LIG    1       24.161 -21.782   4.370  0.00  0.00    +0.063 C 
ENDBRANCH   2  12
ENDBRANCH   1   5
BRANCH   1  14
ATOM     14  C   LIG    1       29.700 -19.541   7.234  0.00  0.00    +0.317 C 
ATOM     15  O   LIG    1       29.576 -18.766   6.283  0.00  0.00    -0.250 OA
BRANCH  14  16
ATOM     16  C   LIG    1       30.969 -19.700   8.063  0.00  0.00    +0.153 C 
BRANCH  16  17
ATOM     17  C   LIG    1       31.171 -18.527   9.016  0.00  0.00    -0.032 A 
ATOM     18  C   LIG    1       30.317 -18.302  10.107  0.00  0.00    +0.004 A 
ATOM     19  C   LIG    1       30.524 -17.218  10.964  0.00  0.00    +0.000 A 
ATOM     20  C   LIG    1       31.582 -16.342  10.740  0.00  0.00    +0.000 A 
ATOM     21  C   LIG    1       32.435 -16.546   9.659  0.00  0.00    +0.000 A 
ATOM     22  C   LIG    1       32.231 -17.630   8.801  0.00  0.00    +0.004 A 
ENDBRANCH  16  17
BRANCH  16  23
ATOM     23  C   LIG    1       30.932 -21.060   8.782  0.00  0.00    +0.175 C 
BRANCH  23  24
ATOM     24  O   LIG    1       32.154 -21.327   9.467  0.00  0.00    -0.394 OA
ATOM     25  H   LIG    1       32.373 -22.268   9.328  0.00  0.00    +0.209 HD
ENDBRANCH  23  24
ENDBRANCH  16  23
ENDBRANCH  14  16
ENDBRANCH   1  14
TORSDOF 7
ENDMDL
MODEL 3
REMARK VINA RESULT:      -7.9      0.875      1.383
REMARK  Name = *****
REMARK                            x       y       z     vdW  Elec       q    Type
REMARK                         _______ _______ _______ _____ _____    ______ ____
ROOT
ATOM      1  O   LIG    1       28.638 -20.985   8.284  0.00  0.00    -0.461 OA
ENDROOT
BRANCH   1   5
ATOM      2  N   LIG    1       24.907 -21.790   6.794  0.00  0.00    +0.247 N 
ATOM      3  C   LIG    1       25.500 -20.430   7.259  0.00  0.00    +0.070 C 
ATOM      4  C   LIG    1       26.918 -20.250   6.702  0.00  0.00    +0.099 C 
ATOM      5  C   LIG    1       27.891 -21.371   7.097  0.00  0.00    +0.187 C 
ATOM      6  C   LIG    1       27.220 -22.742   7.330  0.00  0.00    +0.099 C 
ATOM      7  C   LIG    1       25.533 -20.552   8.799  0.00  0.00    +0.060 C 
ATOM      8  C   LIG    1       25.559 -22.050   9.100  0.00  0.00    +0.060 C 
ATOM      9  C   LIG    1       25.730 -22.716   7.735  0.00  0.00    +0.070 C 
ATOM     10  C   LIG    1       23.392 -21.836   7.154  0.00  0.00    +0.193 C 
BRANCH   2  12
ATOM     11  C   LIG    1       24.738 -23.602   4.983  0.00  0.00    +0.063 C 
ATOM     12  C   LIG    1       25.057 -22.129   5.265  0.00  0.00    +0.060 C 
ATOM     13  C   LIG    1       24.192 -21.219   4.385  0.00  0.00    +0.063 C 
ENDBRANCH   2  12
ENDBRANCH   1   5
BRANCH   1  14
ATOM     14  C   LIG    1       29.902 -20.491   8.052  0.00  0.00    +0.317 C 
ATOM     15  O   LIG    1       30.919 -21.185   8.128  0.00  0.00    -0.250 OA
BRANCH  14  16
ATOM     16  C   LIG    1       29.882 -19.021   7.652  0.00  0.00    +0.153 C 
BRANCH  16  17
ATOM     17  C   LIG    1       30.568 -18.145   8.695  0.00  0.00    -0.032 A 
ATOM     18  C   LIG    1       31.880 -17.676   8.523  0.00  0.00    +0.004 A 
ATOM     19  C   LIG    1       32.486 -16.876   9.494  0.00  0.00    +0.000 A 
ATOM     20  C   LIG    1       31.791 -16.536  10.652  0.00  0.00    +0.000 A 
ATOM     21  C   LIG    1       30.491 -16.996  10.842  0.00  0.00    +0.000 A 
ATOM     22  C   LIG    1       29.883 -17.797   9.871  0.00  0.00    +0.004 A 
ENDBRANCH  16  17
BRANCH  16  23
ATOM     23  C   LIG    1       30.492 -18.875   6.247  0.00  0.00    +0.175 C 
BRANCH  23  24
ATOM     24  O   LIG    1       29.675 -18.071   5.400  0.00  0.00    -0.394 OA
ATOM     25  H   LIG    1       28.916 -17.759   5.930  0.00  0.00    +0.209 HD
ENDBRANCH  23  24
ENDBRANCH  16  23
ENDBRANCH  14  16
ENDBRANCH   1  14
TORSDOF 7
ENDMDL
MODEL 4
REMARK VINA RESULT:      -7.4      4.796      8.194
REMARK  Name = *****
REMARK                            x       y       z     vdW  Elec       q    Type
REMARK                         _______ _______ _______ _____ _____    ______ ____
ROOT
ATOM      1  O   LIG    1       23.764 -25.292   6.804  0.00  0.00    -0.461 OA
ENDROOT
BRANCH   1   5
ATOM      2  N   LIG    1       24.805 -21.390   6.106  0.00  0.00    +0.247 N 
ATOM      3  C   LIG    1       25.613 -22.685   5.807  0.00  0.00    +0.070 C 
ATOM      4  C   LIG    1       24.707 -23.739   5.159  0.00  0.00    +0.099 C 
ATOM      5  C   LIG    1       23.479 -24.111   6.005  0.00  0.00    +0.187 C 
ATOM      6  C   LIG    1       22.969 -22.976   6.918  0.00  0.00    +0.099 C 
ATOM      7  C   LIG    1       26.082 -23.155   7.202  0.00  0.00    +0.060 C 
ATOM      8  C   LIG    1       25.100 -22.545   8.202  0.00  0.00    +0.060 C 
ATOM      9  C   LIG    1       24.009 -21.914   7.337  0.00  0.00    +0.070 C 
ATOM     10  C   LIG    1       25.791 -20.258   6.522  0.00  0.00    +0.193 C 
BRANCH   2  12
ATOM     11  C   LIG    1       22.830 -19.882   5.460  0.00  0.00    +0.063 C 
ATOM     12  C   LIG    1       23.901 -20.848   4.938  0.00  0.00    +0.060 C 
ATOM     13  C   LIG    1       24.727 -20.180   3.833  0.00  0.00    +0.063 C 
ENDBRANCH   2  12
ENDBRANCH   1   5
BRANCH   1  14
ATOM     14  C   LIG    1       24.443 -26.297   6.154  0.00  0.00    +0.317 C 
ATOM     15  O   LIG    1       24.058 -26.788   5.090  0.00  0.00    -0.250 OA
BRANCH  14  16
ATOM     16  C   LIG    1       25.728 -26.685   6.875  0.00  0.00    +0.153 C 
BRANCH  16  17
ATOM     17  C   LIG    1       25.577 -28.004   7.625  0.00  0.00    -0.032 A 
ATOM     18  C   LIG    1       24.599 -28.948   7.276  0.00  0.00    +0.004 A 
ATOM     19  C   LIG    1       24.481 -30.148   7.981  0.00  0.00    +0.000 A 
ATOM     20  C   LIG    1       25.334 -30.419   9.047  0.00  0.00    +0.000 A 
ATOM     21  C   LIG    1       26.306 -29.491   9.411  0.00  0.00    +0.000 A 
ATOM     22  C   LIG    1       26.426 -28.291   8.706  0.00  0.00    +0.004 A 
ENDBRANCH  16  17
BRANCH  16  23
ATOM     23  C   LIG    1       26.887 -26.697   5.862  0.00  0.00    +0.175 C 
BRANCH  23  24
ATOM     24  O   LIG    1       26.776 -27.788   4.950  0.00  0.00    -0.394 OA
ATOM     25  H   LIG    1       25.938 -27.681   4.460  0.00  0.00    +0.209 HD
ENDBRANCH  23  24
ENDBRANCH  16  23
ENDBRANCH  14  16
ENDBRANCH   1  14
TORSDOF 7
ENDMDL
MODEL 5
REMARK VINA RESULT:      -7.1      1.062      2.327
REMARK  Name = *****
REMARK                            x       y       z     vdW  Elec       q    Type
REMARK                         _______ _______ _______ _____ _____    ______ ____
ROOT
ATOM      1  O   LIG    1       27.488 -19.953   8.449  0.00  0.00    -0.461 OA
ENDROOT
BRANCH   1   5
ATOM      2  N   LIG    1       25.060 -22.284   6.111  0.00  0.00    +0.247 N 
ATOM      3  C   LIG    1       26.556 -21.914   5.901  0.00  0.00    +0.070 C 
ATOM      4  C   LIG    1       27.330 -22.065   7.216  0.00  0.00    +0.099 C 
ATOM      5  C   LIG    1       26.772 -21.217   8.370  0.00  0.00    +0.187 C 
ATOM      6  C   LIG    1       25.254 -20.950   8.285  0.00  0.00    +0.099 C 
ATOM      7  C   LIG    1       26.509 -20.433   5.464  0.00  0.00    +0.060 C 
ATOM      8  C   LIG    1       25.189 -19.879   6.001  0.00  0.00    +0.060 C 
ATOM      9  C   LIG    1       24.627 -20.999   6.876  0.00  0.00    +0.070 C 
ATOM     10  C   LIG    1       24.356 -22.370   4.724  0.00  0.00    +0.193 C 
BRANCH   2  12
ATOM     11  C   LIG    1       23.302 -24.030   6.783  0.00  0.00    +0.063 C 
ATOM     12  C   LIG    1       24.776 -23.622   6.889  0.00  0.00    +0.060 C 
ATOM     13  C   LIG    1       25.680 -24.766   6.416  0.00  0.00    +0.063 C 
ENDBRANCH   2  12
ENDBRANCH   1   5
BRANCH   1  14
ATOM     14  C   LIG    1       28.856 -20.039   8.336  0.00  0.00    +0.317 C 
ATOM     15  O   LIG    1       29.493 -21.051   8.638  0.00  0.00    -0.250 OA
BRANCH  14  16
ATOM     16  C   LIG    1       29.468 -18.770   7.755  0.00  0.00    +0.153 C 
BRANCH  16  17
ATOM     17  C   LIG    1       30.349 -18.053   8.772  0.00  0.00    -0.032 A 
ATOM     18  C   LIG    1       31.686 -17.727   8.496  0.00  0.00    +0.004 A 
ATOM     19  C   LIG    1       32.473 -17.071   9.446  0.00  0.00    +0.000 A 
ATOM     20  C   LIG    1       31.936 -16.737  10.686  0.00  0.00    +0.000 A 
ATOM     21  C   LIG    1       30.614 -17.058  10.980  0.00  0.00    +0.000 A 
ATOM     22  C   LIG    1       29.825 -17.713  10.030  0.00  0.00    +0.004 A 
ENDBRANCH  16  17
BRANCH  16  23
ATOM     23  C   LIG    1       30.212 -19.121   6.455  0.00  0.00    +0.175 C 
BRANCH  23  24
ATOM     24  O   LIG    1       29.913 -18.195   5.412  0.00  0.00    -0.394 OA
ATOM     25  H   LIG    1       29.095 -18.498   4.973  0.00  0.00    +0.209 HD
ENDBRANCH  23  24
ENDBRANCH  16  23
ENDBRANCH  14  16
ENDBRANCH   1  14
TORSDOF 7
ENDMDL
MODEL 6
REMARK VINA RESULT:      -7.1      4.394      7.909
REMARK  Name = *****
REMARK                            x       y       z     vdW  Elec       q    Type
REMARK                         _______ _______ _______ _____ _____    ______ ____
ROOT
ATOM      1  O   LIG    1       25.343 -24.417   7.249  0.00  0.00    -0.461 OA
ENDROOT
BRANCH   1   5
ATOM      2  N   LIG    1       24.318 -20.834   5.546  0.00  0.00    +0.247 N 
ATOM      3  C   LIG    1       24.703 -21.139   7.022  0.00  0.00    +0.070 C 
ATOM      4  C   LIG    1       25.938 -22.047   7.071  0.00  0.00    +0.099 C 
ATOM      5  C   LIG    1       25.765 -23.378   6.323  0.00  0.00    +0.187 C 
ATOM      6  C   LIG    1       24.785 -23.314   5.132  0.00  0.00    +0.099 C 
ATOM      7  C   LIG    1       23.464 -21.876   7.579  0.00  0.00    +0.060 C 
ATOM      8  C   LIG    1       22.751 -22.472   6.366  0.00  0.00    +0.060 C 
ATOM      9  C   LIG    1       23.699 -22.218   5.195  0.00  0.00    +0.070 C 
ATOM     10  C   LIG    1       23.231 -19.718   5.524  0.00  0.00    +0.193 C 
BRANCH   2  12
ATOM     11  C   LIG    1       25.022 -19.363   3.563  0.00  0.00    +0.063 C 
ATOM     12  C   LIG    1       25.492 -20.394   4.597  0.00  0.00    +0.060 C 
ATOM     13  C   LIG    1       26.694 -19.852   5.379  0.00  0.00    +0.063 C 
ENDBRANCH   2  12
ENDBRANCH   1   5
BRANCH   1  14
ATOM     14  C   LIG    1       24.886 -25.578   6.668  0.00  0.00    +0.317 C 
ATOM     15  O   LIG    1       23.727 -25.721   6.273  0.00  0.00    -0.250 OA
BRANCH  14  16
ATOM     16  C   LIG    1       25.984 -26.626   6.532  0.00  0.00    +0.153 C 
BRANCH  16  17
ATOM     17  C   LIG    1       25.697 -27.857   7.385  0.00  0.00    -0.032 A 
ATOM     18  C   LIG    1       24.742 -28.814   7.007  0.00  0.00    +0.004 A 
ATOM     19  C   LIG    1       24.497 -29.933   7.807  0.00  0.00    +0.000 A 
ATOM     20  C   LIG    1       25.198 -30.107   8.998  0.00  0.00    +0.000 A 
ATOM     21  C   LIG    1       26.143 -29.164   9.391  0.00  0.00    +0.000 A 
ATOM     22  C   LIG    1       26.391 -28.046   8.591  0.00  0.00    +0.004 A 
ENDBRANCH  16  17
BRANCH  16  23
ATOM     23  C   LIG    1       26.180 -26.958   5.042  0.00  0.00    +0.175 C 
BRANCH  23  24
ATOM     24  O   LIG    1       27.529 -27.322   4.757  0.00  0.00    -0.394 OA
ATOM     25  H   LIG    1       27.611 -27.421   3.789  0.00  0.00    +0.209 HD
ENDBRANCH  23  24
ENDBRANCH  16  23
ENDBRANCH  14  16
ENDBRANCH   1  14
TORSDOF 7
ENDMDL
MODEL 7
REMARK VINA RESULT:      -6.8      7.143     10.034
REMARK  Name = *****
REMARK                            x       y       z     vdW  Elec       q    Type
REMARK                         _______ _______ _______ _____ _____    ______ ____
ROOT
ATOM      1  O   LIG    1       25.528 -29.007   6.648  0.00  0.00    -0.461 OA
ENDROOT
BRANCH   1   5
ATOM      2  N   LIG    1       24.443 -32.224   8.943  0.00  0.00    +0.247 N 
ATOM      3  C   LIG    1       25.225 -30.946   9.361  0.00  0.00    +0.070 C 
ATOM      4  C   LIG    1       24.547 -29.697   8.785  0.00  0.00    +0.099 C 
ATOM      5  C   LIG    1       24.409 -29.711   7.255  0.00  0.00    +0.187 C 
ATOM      6  C   LIG    1       24.288 -31.121   6.640  0.00  0.00    +0.099 C 
ATOM      7  C   LIG    1       26.621 -31.147   8.728  0.00  0.00    +0.060 C 
ATOM      8  C   LIG    1       26.417 -32.115   7.562  0.00  0.00    +0.060 C 
ATOM      9  C   LIG    1       24.901 -32.280   7.456  0.00  0.00    +0.070 C 
ATOM     10  C   LIG    1       24.996 -33.443   9.740  0.00  0.00    +0.193 C 
BRANCH   2  12
ATOM     11  C   LIG    1       22.214 -33.446   8.585  0.00  0.00    +0.063 C 
ATOM     12  C   LIG    1       22.883 -32.180   9.135  0.00  0.00    +0.060 C 
ATOM     13  C   LIG    1       22.488 -31.962  10.600  0.00  0.00    +0.063 C 
ENDBRANCH   2  12
ENDBRANCH   1   5
BRANCH   1  14
ATOM     14  C   LIG    1       25.623 -27.669   6.955  0.00  0.00    +0.317 C 
ATOM     15  O   LIG    1       26.168 -27.251   7.979  0.00  0.00    -0.250 OA
BRANCH  14  16
ATOM     16  C   LIG    1       25.024 -26.785   5.868  0.00  0.00    +0.153 C 
BRANCH  16  17
ATOM     17  C   LIG    1       24.839 -25.349   6.347  0.00  0.00    -0.032 A 
ATOM     18  C   LIG    1       25.927 -24.550   6.733  0.00  0.00    +0.004 A 
ATOM     19  C   LIG    1       25.730 -23.238   7.170  0.00  0.00    +0.000 A 
ATOM     20  C   LIG    1       24.444 -22.708   7.233  0.00  0.00    +0.000 A 
ATOM     21  C   LIG    1       23.353 -23.489   6.861  0.00  0.00    +0.000 A 
ATOM     22  C   LIG    1       23.548 -24.801   6.422  0.00  0.00    +0.004 A 
ENDBRANCH  16  17
BRANCH  16  23
ATOM     23  C   LIG    1       25.891 -26.890   4.601  0.00  0.00    +0.175 C 
BRANCH  23  24
ATOM     24  O   LIG    1       27.242 -27.220   4.915  0.00  0.00    -0.394 OA
ATOM     25  H   LIG    1       27.816 -26.764   4.268  0.00  0.00    +0.209 HD
ENDBRANCH  23  24
ENDBRANCH  16  23
ENDBRANCH  14  16
ENDBRANCH   1  14
TORSDOF 7
ENDMDL
MODEL 8
REMARK VINA RESULT:      -6.4      6.915     10.006
REMARK  Name = *****
REMARK                            x       y       z     vdW  Elec       q    Type
REMARK                         _______ _______ _______ _____ _____    ______ ____
ROOT
ATOM      1  O   LIG    1       25.185 -28.403   7.191  0.00  0.00    -0.461 OA
ENDROOT
BRANCH   1   5
ATOM      2  N   LIG    1       25.233 -31.374  10.013  0.00  0.00    +0.247 N 
ATOM      3  C   LIG    1       24.524 -29.991  10.063  0.00  0.00    +0.070 C 
ATOM      4  C   LIG    1       23.807 -29.713   8.736  0.00  0.00    +0.099 C 
ATOM      5  C   LIG    1       24.730 -29.747   7.509  0.00  0.00    +0.187 C 
ATOM      6  C   LIG    1       25.946 -30.686   7.654  0.00  0.00    +0.099 C 
ATOM      7  C   LIG    1       25.684 -28.991  10.273  0.00  0.00    +0.060 C 
ATOM      8  C   LIG    1       26.938 -29.689   9.750  0.00  0.00    +0.060 C 
ATOM      9  C   LIG    1       26.424 -30.971   9.095  0.00  0.00    +0.070 C 
ATOM     10  C   LIG    1       25.733 -31.742  11.442  0.00  0.00    +0.193 C 
BRANCH   2  12
ATOM     11  C   LIG    1       25.241 -33.824   9.247  0.00  0.00    +0.063 C 
ATOM     12  C   LIG    1       24.378 -32.576   9.467  0.00  0.00    +0.060 C 
ATOM     13  C   LIG    1       23.193 -32.903  10.383  0.00  0.00    +0.063 C 
ENDBRANCH   2  12
ENDBRANCH   1   5
BRANCH   1  14
ATOM     14  C   LIG    1       24.737 -27.894   5.993  0.00  0.00    +0.317 C 
ATOM     15  O   LIG    1       23.766 -28.354   5.388  0.00  0.00    -0.250 OA
BRANCH  14  16
ATOM     16  C   LIG    1       25.548 -26.685   5.541  0.00  0.00    +0.153 C 
BRANCH  16  17
ATOM     17  C   LIG    1       25.025 -25.393   6.160  0.00  0.00    -0.032 A 
ATOM     18  C   LIG    1       23.661 -25.065   6.149  0.00  0.00    +0.004 A 
ATOM     19  C   LIG    1       23.208 -23.874   6.722  0.00  0.00    +0.000 A 
ATOM     20  C   LIG    1       24.113 -22.992   7.308  0.00  0.00    +0.000 A 
ATOM     21  C   LIG    1       25.470 -23.299   7.322  0.00  0.00    +0.000 A 
ATOM     22  C   LIG    1       25.925 -24.491   6.751  0.00  0.00    +0.004 A 
ENDBRANCH  16  17
BRANCH  16  23
ATOM     23  C   LIG    1       27.036 -26.938   5.841  0.00  0.00    +0.175 C 
BRANCH  23  24
ATOM     24  O   LIG    1       27.735 -27.398   4.686  0.00  0.00    -0.394 OA
ATOM     25  H   LIG    1       27.229 -27.112   3.901  0.00  0.00    +0.209 HD
ENDBRANCH  23  24
ENDBRANCH  16  23
ENDBRANCH  14  16
ENDBRANCH   1  14
TORSDOF 7
ENDMDL
MODEL 9
REMARK VINA RESULT:      -6.4      2.395      6.965
REMARK  Name = *****
REMARK                            x       y       z     vdW  Elec       q    Type
REMARK                         _______ _______ _______ _____ _____    ______ ____
ROOT
ATOM      1  O   LIG    1       26.166 -20.946   7.257  0.00  0.00    -0.461 OA
ENDROOT
BRANCH   1   5
ATOM      2  N   LIG    1       30.135 -19.983   7.604  0.00  0.00    +0.247 N 
ATOM      3  C   LIG    1       28.900 -19.039   7.570  0.00  0.00    +0.070 C 
ATOM      4  C   LIG    1       27.791 -19.580   8.481  0.00  0.00    +0.099 C 
ATOM      5  C   LIG    1       27.331 -21.002   8.127  0.00  0.00    +0.187 C 
ATOM      6  C   LIG    1       28.422 -21.880   7.478  0.00  0.00    +0.099 C 
ATOM      7  C   LIG    1       28.453 -19.073   6.091  0.00  0.00    +0.060 C 
ATOM      8  C   LIG    1       28.988 -20.387   5.522  0.00  0.00    +0.060 C 
ATOM      9  C   LIG    1       29.550 -21.133   6.733  0.00  0.00    +0.070 C 
ATOM     10  C   LIG    1       31.328 -19.290   6.882  0.00  0.00    +0.193 C 
BRANCH   2  12
ATOM     11  C   LIG    1       31.474 -21.713   8.948  0.00  0.00    +0.063 C 
ATOM     12  C   LIG    1       30.622 -20.441   9.029  0.00  0.00    +0.060 C 
ATOM     13  C   LIG    1       31.389 -19.332   9.758  0.00  0.00    +0.063 C 
ENDBRANCH   2  12
ENDBRANCH   1   5
BRANCH   1  14
ATOM     14  C   LIG    1       25.071 -21.659   7.688  0.00  0.00    +0.317 C 
ATOM     15  O   LIG    1       24.830 -21.867   8.879  0.00  0.00    -0.250 OA
BRANCH  14  16
ATOM     16  C   LIG    1       24.185 -22.109   6.532  0.00  0.00    +0.153 C 
BRANCH  16  17
ATOM     17  C   LIG    1       23.875 -20.960   5.579  0.00  0.00    -0.032 A 
ATOM     18  C   LIG    1       22.758 -20.129   5.758  0.00  0.00    +0.004 A 
ATOM     19  C   LIG    1       22.496 -19.084   4.870  0.00  0.00    +0.000 A 
ATOM     20  C   LIG    1       23.342 -18.858   3.787  0.00  0.00    +0.000 A 
ATOM     21  C   LIG    1       24.451 -19.677   3.590  0.00  0.00    +0.000 A 
ATOM     22  C   LIG    1       24.715 -20.722   4.479  0.00  0.00    +0.004 A 
ENDBRANCH  16  17
BRANCH  16  23
ATOM     23  C   LIG    1       24.845 -23.311   5.833  0.00  0.00    +0.175 C 
BRANCH  23  24
ATOM     24  O   LIG    1       25.795 -23.956   6.679  0.00  0.00    -0.394 OA
ATOM     25  H   LIG    1       26.653 -23.505   6.559  0.00  0.00    +0.209 HD
ENDBRANCH  23  24
ENDBRANCH  16  23
ENDBRANCH  14  16
ENDBRANCH   1  14
TORSDOF 7
ENDMDL
