MODEL 1
REMARK VINA RESULT:       2.8      0.000      0.000
REMARK  Name = *****
REMARK                            x       y       z     vdW  Elec       q    Type
REMARK                         _______ _______ _______ _____ _____    ______ ____
ROOT
ATOM      1  C   LIG    1       28.051 -20.271   6.066  0.00  0.00    +0.159 A 
ATOM      2  C   LIG    1       26.764 -20.457   5.608  0.00  0.00    +0.166 A 
ATOM      3  O   LIG    1       25.723 -21.257   6.001  0.00  0.00    -0.481 OA
ATOM      4  C   LIG    1       24.542 -20.499   5.533  0.00  0.00    +0.215 C 
ATOM      5  C   LIG    1       24.761 -20.058   4.093  0.00  0.00    +0.070 C 
ATOM      6  C   LIG    1       23.531 -18.888   3.540  0.00  0.00    +0.095 C 
ATOM      7  C   LIG    1       24.434 -17.218   3.028  0.00  0.00    +0.093 C 
ATOM      8  N   LIG    1       24.542 -16.467   4.206  0.00  0.00    -0.296 NA
ATOM      9  C   LIG    1       25.051 -17.694   4.768  0.00  0.00    +0.086 C 
ATOM     10  C   LIG    1       26.381 -17.240   2.916  0.00  0.00    +0.057 C 
ATOM     11  C   LIG    1       27.261 -18.379   4.052  0.00  0.00    -0.038 A 
ATOM     12  C   LIG    1       28.527 -18.247   4.556  0.00  0.00    +0.008 A 
ATOM     13  C   LIG    1       22.335 -19.020   4.529  0.00  0.00    +0.040 C 
ATOM     14  C   LIG    1       22.063 -20.523   4.867  0.00  0.00    +0.038 C 
ATOM     15  C   LIG    1       25.338 -19.073   3.335  0.00  0.00    +0.033 C 
ATOM     16  C   LIG    1       23.233 -21.294   5.549  0.00  0.00    +0.156 C 
ATOM     17  C   LIG    1       26.395 -19.612   4.613  0.00  0.00    +0.014 A 
ATOM     18  C   LIG    1       28.905 -19.214   5.545  0.00  0.00    +0.049 A 
ENDROOT
BRANCH   1  19
ATOM     19  O   LIG    1       28.514 -21.088   7.062  0.00  0.00    -0.503 OA
ATOM     20  H   LIG    1       29.479 -21.003   7.112  0.00  0.00    +0.292 HD
ENDBRANCH   1  19
BRANCH   6  21
ATOM     21  O   LIG    1       22.940 -19.397   2.295  0.00  0.00    -0.386 OA
ATOM     22  H   LIG    1       22.434 -20.195   2.531  0.00  0.00    +0.210 HD
ENDBRANCH   6  21
BRANCH  16  23
ATOM     23  O   LIG    1       22.866 -21.557   6.908  0.00  0.00    -0.388 OA
ATOM     24  H   LIG    1       21.924 -21.814   6.895  0.00  0.00    +0.210 HD
ENDBRANCH  16  23
BRANCH   8  25
ATOM     25  C   LIG    1       23.331 -15.870   4.731  0.00  0.00    +0.088 C 
BRANCH  25  26
ATOM     26  C   LIG    1       23.418 -14.347   4.666  0.00  0.00    +0.003 C 
ATOM     27  C   LIG    1       24.830 -13.717   4.832  0.00  0.00    +0.005 C 
ATOM     28  C   LIG    1       24.422 -12.693   3.753  0.00  0.00    +0.001 C 
ATOM     29  C   LIG    1       23.417 -13.742   3.237  0.00  0.00    +0.005 C 
ENDBRANCH  25  26
ENDBRANCH   8  25
TORSDOF 5
ENDMDL
