MODEL 1
REMARK VINA RESULT:      -7.4      0.000      0.000
REMARK  Name = *****
REMARK                            x       y       z     vdW  Elec       q    Type
REMARK                         _______ _______ _______ _____ _____    ______ ____
ROOT
ATOM      1  N   LIG    1       25.411 -21.261   6.375  0.00  0.00    -0.282 N 
ATOM      2  C   LIG    1       26.811 -21.022   6.469  0.00  0.00    +0.139 A 
ATOM      3  C   LIG    1       27.434 -20.033   5.704  0.00  0.00    +0.053 A 
ATOM      4  C   LIG    1       28.788 -19.741   5.936  0.00  0.00    +0.020 A 
ATOM      5  C   LIG    1       29.496 -20.443   6.900  0.00  0.00    +0.021 A 
ATOM      6  C   LIG    1       28.837 -21.441   7.570  0.00  0.00    +0.113 A 
ATOM      7  S   LIG    1       26.638 -19.130   4.405  0.00  0.00    -0.084 S 
ATOM      8  C   LIG    1       24.930 -19.570   4.642  0.00  0.00    +0.034 A 
ATOM      9  C   LIG    1       24.014 -18.878   3.825  0.00  0.00    +0.017 A 
ATOM     10  C   LIG    1       22.649 -19.099   3.935  0.00  0.00    +0.001 A 
ATOM     11  C   LIG    1       22.188 -20.018   4.866  0.00  0.00    +0.002 A 
ATOM     12  C   LIG    1       23.097 -20.726   5.665  0.00  0.00    +0.024 A 
ATOM     13  N   LIG    1       27.536 -21.746   7.366  0.00  0.00    -0.239 NA
ATOM     14  C   LIG    1       24.494 -20.537   5.573  0.00  0.00    +0.049 A 
ENDROOT
BRANCH   1  15
ATOM     15  C   LIG    1       24.965 -22.478   7.091  0.00  0.00    +0.131 C 
BRANCH  15  17
ATOM     16  C   LIG    1       23.200 -24.334   6.692  0.00  0.00    +0.026 C 
ATOM     17  C   LIG    1       24.475 -23.647   6.170  0.00  0.00    +0.071 C 
BRANCH  17  18
ATOM     18  N   LIG    1       25.517 -24.676   5.856  0.00  0.00    -0.304 NA
ATOM     19  C   LIG    1       25.183 -25.525   4.710  0.00  0.00    +0.105 C 
ATOM     20  C   LIG    1       25.864 -25.504   7.011  0.00  0.00    +0.105 C 
ENDBRANCH  17  18
ENDBRANCH  15  17
ENDBRANCH   1  15
TORSDOF 3
ENDMDL
MODEL 2
REMARK VINA RESULT:      -6.4      1.569      4.348
REMARK  Name = *****
REMARK                            x       y       z     vdW  Elec       q    Type
REMARK                         _______ _______ _______ _____ _____    ______ ____
ROOT
ATOM      1  N   LIG    1       25.408 -21.335   5.557  0.00  0.00    -0.282 N 
ATOM      2  C   LIG    1       25.113 -22.633   6.061  0.00  0.00    +0.139 A 
ATOM      3  C   LIG    1       23.800 -23.107   6.130  0.00  0.00    +0.053 A 
ATOM      4  C   LIG    1       23.575 -24.442   6.500  0.00  0.00    +0.020 A 
ATOM      5  C   LIG    1       24.644 -25.268   6.812  0.00  0.00    +0.021 A 
ATOM      6  C   LIG    1       25.900 -24.719   6.782  0.00  0.00    +0.113 A 
ATOM      7  S   LIG    1       22.366 -22.115   5.820  0.00  0.00    -0.084 S 
ATOM      8  C   LIG    1       23.079 -20.644   5.114  0.00  0.00    +0.034 A 
ATOM      9  C   LIG    1       22.151 -19.704   4.625  0.00  0.00    +0.017 A 
ATOM     10  C   LIG    1       22.575 -18.532   4.016  0.00  0.00    +0.001 A 
ATOM     11  C   LIG    1       23.935 -18.290   3.894  0.00  0.00    +0.002 A 
ATOM     12  C   LIG    1       24.862 -19.211   4.401  0.00  0.00    +0.024 A 
ATOM     13  N   LIG    1       26.147 -23.437   6.432  0.00  0.00    -0.239 NA
ATOM     14  C   LIG    1       24.469 -20.410   5.037  0.00  0.00    +0.049 A 
ENDROOT
BRANCH   1  15
ATOM     15  C   LIG    1       26.816 -20.923   5.758  0.00  0.00    +0.131 C 
BRANCH  15  17
ATOM     16  C   LIG    1       26.222 -20.325   8.208  0.00  0.00    +0.026 C 
ATOM     17  C   LIG    1       27.289 -20.883   7.250  0.00  0.00    +0.071 C 
BRANCH  17  18
ATOM     18  N   LIG    1       28.594 -20.181   7.475  0.00  0.00    -0.304 NA
ATOM     19  C   LIG    1       29.091 -19.466   6.298  0.00  0.00    +0.105 C 
ATOM     20  C   LIG    1       29.632 -21.068   8.000  0.00  0.00    +0.105 C 
ENDBRANCH  17  18
ENDBRANCH  15  17
ENDBRANCH   1  15
TORSDOF 3
ENDMDL
MODEL 3
REMARK VINA RESULT:      -5.6      1.063      4.257
REMARK  Name = *****
REMARK                            x       y       z     vdW  Elec       q    Type
REMARK                         _______ _______ _______ _____ _____    ______ ____
ROOT
ATOM      1  N   LIG    1       26.169 -21.307   6.313  0.00  0.00    -0.282 N 
ATOM      2  C   LIG    1       25.469 -20.653   5.260  0.00  0.00    +0.139 A 
ATOM      3  C   LIG    1       26.041 -19.592   4.554  0.00  0.00    +0.053 A 
ATOM      4  C   LIG    1       25.369 -19.075   3.435  0.00  0.00    +0.020 A 
ATOM      5  C   LIG    1       24.144 -19.602   3.053  0.00  0.00    +0.021 A 
ATOM      6  C   LIG    1       23.614 -20.600   3.829  0.00  0.00    +0.113 A 
ATOM      7  S   LIG    1       27.564 -18.805   5.000  0.00  0.00    -0.084 S 
ATOM      8  C   LIG    1       28.208 -19.918   6.232  0.00  0.00    +0.034 A 
ATOM      9  C   LIG    1       29.509 -19.623   6.683  0.00  0.00    +0.017 A 
ATOM     10  C   LIG    1       30.143 -20.433   7.614  0.00  0.00    +0.001 A 
ATOM     11  C   LIG    1       29.477 -21.546   8.103  0.00  0.00    +0.002 A 
ATOM     12  C   LIG    1       28.173 -21.830   7.674  0.00  0.00    +0.024 A 
ATOM     13  N   LIG    1       24.236 -21.116   4.912  0.00  0.00    -0.239 NA
ATOM     14  C   LIG    1       27.490 -21.023   6.737  0.00  0.00    +0.049 A 
ENDROOT
BRANCH   1  15
ATOM     15  C   LIG    1       25.333 -22.256   7.084  0.00  0.00    +0.131 C 
BRANCH  15  17
ATOM     16  C   LIG    1       23.355 -23.915   6.858  0.00  0.00    +0.026 C 
ATOM     17  C   LIG    1       24.661 -23.389   6.237  0.00  0.00    +0.071 C 
BRANCH  17  18
ATOM     18  N   LIG    1       25.563 -24.536   5.897  0.00  0.00    -0.304 NA
ATOM     19  C   LIG    1       25.105 -25.330   4.755  0.00  0.00    +0.105 C 
ATOM     20  C   LIG    1       25.829 -25.408   7.041  0.00  0.00    +0.105 C 
ENDBRANCH  17  18
ENDBRANCH  15  17
ENDBRANCH   1  15
TORSDOF 3
ENDMDL
MODEL 4
REMARK VINA RESULT:      -5.5      1.699      2.633
REMARK  Name = *****
REMARK                            x       y       z     vdW  Elec       q    Type
REMARK                         _______ _______ _______ _____ _____    ______ ____
ROOT
ATOM      1  N   LIG    1       27.603 -20.873   6.505  0.00  0.00    -0.282 N 
ATOM      2  C   LIG    1       28.854 -20.602   7.127  0.00  0.00    +0.139 A 
ATOM      3  C   LIG    1       29.626 -19.496   6.759  0.00  0.00    +0.053 A 
ATOM      4  C   LIG    1       30.781 -19.193   7.499  0.00  0.00    +0.020 A 
ATOM      5  C   LIG    1       31.156 -19.997   8.564  0.00  0.00    +0.021 A 
ATOM      6  C   LIG    1       30.386 -21.100   8.829  0.00  0.00    +0.113 A 
ATOM      7  S   LIG    1       29.271 -18.450   5.375  0.00  0.00    -0.084 S 
ATOM      8  C   LIG    1       27.631 -18.976   4.924  0.00  0.00    +0.034 A 
ATOM      9  C   LIG    1       27.011 -18.210   3.918  0.00  0.00    +0.017 A 
ATOM     10  C   LIG    1       25.719 -18.491   3.500  0.00  0.00    +0.001 A 
ATOM     11  C   LIG    1       25.035 -19.545   4.087  0.00  0.00    +0.002 A 
ATOM     12  C   LIG    1       25.656 -20.325   5.073  0.00  0.00    +0.024 A 
ATOM     13  N   LIG    1       29.271 -21.417   8.134  0.00  0.00    -0.239 NA
ATOM     14  C   LIG    1       26.975 -20.078   5.515  0.00  0.00    +0.049 A 
ENDROOT
BRANCH   1  15
ATOM     15  C   LIG    1       27.033 -22.192   6.864  0.00  0.00    +0.131 C 
BRANCH  15  17
ATOM     16  C   LIG    1       25.391 -21.588   8.775  0.00  0.00    +0.026 C 
ATOM     17  C   LIG    1       25.547 -22.161   7.355  0.00  0.00    +0.071 C 
BRANCH  17  18
ATOM     18  N   LIG    1       24.824 -23.469   7.251  0.00  0.00    -0.304 NA
ATOM     19  C   LIG    1       25.500 -24.450   6.398  0.00  0.00    +0.105 C 
ATOM     20  C   LIG    1       23.430 -23.316   6.834  0.00  0.00    +0.105 C 
ENDBRANCH  17  18
ENDBRANCH  15  17
ENDBRANCH   1  15
TORSDOF 3
ENDMDL
MODEL 5
REMARK VINA RESULT:      -5.1      6.753      9.878
REMARK  Name = *****
REMARK                            x       y       z     vdW  Elec       q    Type
REMARK                         _______ _______ _______ _____ _____    ______ ____
ROOT
ATOM      1  N   LIG    1       24.496 -30.493   7.350  0.00  0.00    -0.282 N 
ATOM      2  C   LIG    1       24.842 -31.107   8.587  0.00  0.00    +0.139 A 
ATOM      3  C   LIG    1       25.597 -30.432   9.549  0.00  0.00    +0.053 A 
ATOM      4  C   LIG    1       25.791 -31.027  10.807  0.00  0.00    +0.020 A 
ATOM      5  C   LIG    1       25.255 -32.277  11.075  0.00  0.00    +0.021 A 
ATOM      6  C   LIG    1       24.578 -32.908  10.063  0.00  0.00    +0.113 A 
ATOM      7  S   LIG    1       26.381 -28.866   9.282  0.00  0.00    -0.084 S 
ATOM      8  C   LIG    1       25.657 -28.349   7.740  0.00  0.00    +0.034 A 
ATOM      9  C   LIG    1       25.988 -27.043   7.330  0.00  0.00    +0.017 A 
ATOM     10  C   LIG    1       25.461 -26.504   6.166  0.00  0.00    +0.001 A 
ATOM     11  C   LIG    1       24.597 -27.270   5.399  0.00  0.00    +0.002 A 
ATOM     12  C   LIG    1       24.282 -28.579   5.790  0.00  0.00    +0.024 A 
ATOM     13  N   LIG    1       24.378 -32.361   8.844  0.00  0.00    -0.239 NA
ATOM     14  C   LIG    1       24.808 -29.167   6.962  0.00  0.00    +0.049 A 
ENDROOT
BRANCH   1  15
ATOM     15  C   LIG    1       23.885 -31.424   6.374  0.00  0.00    +0.131 C 
BRANCH  15  17
ATOM     16  C   LIG    1       25.780 -31.747   4.636  0.00  0.00    +0.026 C 
ATOM     17  C   LIG    1       24.884 -32.419   5.691  0.00  0.00    +0.071 C 
BRANCH  17  18
ATOM     18  N   LIG    1       24.249 -33.647   5.115  0.00  0.00    -0.304 NA
ATOM     19  C   LIG    1       24.435 -33.786   3.669  0.00  0.00    +0.105 C 
ATOM     20  C   LIG    1       22.830 -33.764   5.452  0.00  0.00    +0.105 C 
ENDBRANCH  17  18
ENDBRANCH  15  17
ENDBRANCH   1  15
TORSDOF 3
ENDMDL
MODEL 6
REMARK VINA RESULT:      -5.0      1.924      4.412
REMARK  Name = *****
REMARK                            x       y       z     vdW  Elec       q    Type
REMARK                         _______ _______ _______ _____ _____    ______ ____
ROOT
ATOM      1  N   LIG    1       26.491 -20.635   5.359  0.00  0.00    -0.282 N 
ATOM      2  C   LIG    1       27.641 -19.961   5.856  0.00  0.00    +0.139 A 
ATOM      3  C   LIG    1       28.326 -20.423   6.983  0.00  0.00    +0.053 A 
ATOM      4  C   LIG    1       29.534 -19.807   7.349  0.00  0.00    +0.020 A 
ATOM      5  C   LIG    1       30.024 -18.742   6.609  0.00  0.00    +0.021 A 
ATOM      6  C   LIG    1       29.269 -18.302   5.552  0.00  0.00    +0.113 A 
ATOM      7  S   LIG    1       27.750 -21.728   8.033  0.00  0.00    -0.084 S 
ATOM      8  C   LIG    1       26.408 -22.405   7.078  0.00  0.00    +0.034 A 
ATOM      9  C   LIG    1       25.830 -23.576   7.605  0.00  0.00    +0.017 A 
ATOM     10  C   LIG    1       24.801 -24.226   6.939  0.00  0.00    +0.001 A 
ATOM     11  C   LIG    1       24.339 -23.706   5.740  0.00  0.00    +0.002 A 
ATOM     12  C   LIG    1       24.896 -22.527   5.224  0.00  0.00    +0.024 A 
ATOM     13  N   LIG    1       28.102 -18.873   5.179  0.00  0.00    -0.239 NA
ATOM     14  C   LIG    1       25.936 -21.831   5.878  0.00  0.00    +0.049 A 
ENDROOT
BRANCH   1  15
ATOM     15  C   LIG    1       25.775 -19.889   4.298  0.00  0.00    +0.131 C 
BRANCH  15  17
ATOM     16  C   LIG    1       23.731 -20.182   2.732  0.00  0.00    +0.026 C 
ATOM     17  C   LIG    1       24.245 -20.204   4.183  0.00  0.00    +0.071 C 
BRANCH  17  18
ATOM     18  N   LIG    1       23.364 -19.358   5.050  0.00  0.00    -0.304 NA
ATOM     19  C   LIG    1       22.760 -20.086   6.168  0.00  0.00    +0.105 C 
ATOM     20  C   LIG    1       22.330 -18.653   4.292  0.00  0.00    +0.105 C 
ENDBRANCH  17  18
ENDBRANCH  15  17
ENDBRANCH   1  15
TORSDOF 3
ENDMDL
MODEL 7
REMARK VINA RESULT:      -5.0      6.486     10.517
REMARK  Name = *****
REMARK                            x       y       z     vdW  Elec       q    Type
REMARK                         _______ _______ _______ _____ _____    ______ ____
ROOT
ATOM      1  N   LIG    1       24.862 -30.629   7.273  0.00  0.00    -0.282 N 
ATOM      2  C   LIG    1       25.614 -31.464   6.400  0.00  0.00    +0.139 A 
ATOM      3  C   LIG    1       26.385 -32.522   6.888  0.00  0.00    +0.053 A 
ATOM      4  C   LIG    1       26.993 -33.401   5.977  0.00  0.00    +0.020 A 
ATOM      5  C   LIG    1       26.843 -33.203   4.613  0.00  0.00    +0.021 A 
ATOM      6  C   LIG    1       26.124 -32.109   4.205  0.00  0.00    +0.113 A 
ATOM      7  S   LIG    1       26.695 -32.819   8.606  0.00  0.00    -0.084 S 
ATOM      8  C   LIG    1       25.540 -31.712   9.387  0.00  0.00    +0.034 A 
ATOM      9  C   LIG    1       25.452 -31.828  10.788  0.00  0.00    +0.017 A 
ATOM     10  C   LIG    1       24.563 -31.050  11.514  0.00  0.00    +0.001 A 
ATOM     11  C   LIG    1       23.754 -30.145  10.843  0.00  0.00    +0.002 A 
ATOM     12  C   LIG    1       23.855 -30.010   9.452  0.00  0.00    +0.024 A 
ATOM     13  N   LIG    1       25.530 -31.246   5.058  0.00  0.00    -0.239 NA
ATOM     14  C   LIG    1       24.756 -30.775   8.679  0.00  0.00    +0.049 A 
ENDROOT
BRANCH   1  15
ATOM     15  C   LIG    1       24.284 -29.439   6.609  0.00  0.00    +0.131 C 
BRANCH  15  17
ATOM     16  C   LIG    1       25.889 -27.653   7.583  0.00  0.00    +0.026 C 
ATOM     17  C   LIG    1       25.301 -28.286   6.310  0.00  0.00    +0.071 C 
BRANCH  17  18
ATOM     18  N   LIG    1       24.784 -27.215   5.399  0.00  0.00    -0.304 NA
ATOM     19  C   LIG    1       25.777 -26.725   4.440  0.00  0.00    +0.105 C 
ATOM     20  C   LIG    1       24.188 -26.093   6.123  0.00  0.00    +0.105 C 
ENDBRANCH  17  18
ENDBRANCH  15  17
ENDBRANCH   1  15
TORSDOF 3
ENDMDL
MODEL 8
REMARK VINA RESULT:      -5.0      1.814      4.934
REMARK  Name = *****
REMARK                            x       y       z     vdW  Elec       q    Type
REMARK                         _______ _______ _______ _____ _____    ______ ____
ROOT
ATOM      1  N   LIG    1       27.329 -20.724   6.184  0.00  0.00    -0.282 N 
ATOM      2  C   LIG    1       26.552 -20.075   5.184  0.00  0.00    +0.139 A 
ATOM      3  C   LIG    1       26.998 -18.907   4.559  0.00  0.00    +0.053 A 
ATOM      4  C   LIG    1       26.263 -18.386   3.482  0.00  0.00    +0.020 A 
ATOM      5  C   LIG    1       25.099 -19.015   3.064  0.00  0.00    +0.021 A 
ATOM      6  C   LIG    1       24.689 -20.120   3.763  0.00  0.00    +0.113 A 
ATOM      7  S   LIG    1       28.429 -17.993   5.061  0.00  0.00    -0.084 S 
ATOM      8  C   LIG    1       29.203 -19.116   6.204  0.00  0.00    +0.034 A 
ATOM      9  C   LIG    1       30.468 -18.715   6.675  0.00  0.00    +0.017 A 
ATOM     10  C   LIG    1       31.196 -19.517   7.542  0.00  0.00    +0.001 A 
ATOM     11  C   LIG    1       30.660 -20.730   7.947  0.00  0.00    +0.002 A 
ATOM     12  C   LIG    1       29.391 -21.123   7.500  0.00  0.00    +0.024 A 
ATOM     13  N   LIG    1       25.374 -20.643   4.804  0.00  0.00    -0.239 NA
ATOM     14  C   LIG    1       28.615 -20.328   6.627  0.00  0.00    +0.049 A 
ENDROOT
BRANCH   1  15
ATOM     15  C   LIG    1       26.610 -21.814   6.884  0.00  0.00    +0.131 C 
BRANCH  15  17
ATOM     16  C   LIG    1       25.627 -20.934   9.114  0.00  0.00    +0.026 C 
ATOM     17  C   LIG    1       25.330 -21.367   7.668  0.00  0.00    +0.071 C 
BRANCH  17  18
ATOM     18  N   LIG    1       24.208 -22.360   7.652  0.00  0.00    -0.304 NA
ATOM     19  C   LIG    1       24.507 -23.577   6.894  0.00  0.00    +0.105 C 
ATOM     20  C   LIG    1       22.944 -21.781   7.195  0.00  0.00    +0.105 C 
ENDBRANCH  17  18
ENDBRANCH  15  17
ENDBRANCH   1  15
TORSDOF 3
ENDMDL
MODEL 9
REMARK VINA RESULT:      -5.0      6.666      9.749
REMARK  Name = *****
REMARK                            x       y       z     vdW  Elec       q    Type
REMARK                         _______ _______ _______ _____ _____    ______ ____
ROOT
ATOM      1  N   LIG    1       26.144 -29.686   8.673  0.00  0.00    -0.282 N 
ATOM      2  C   LIG    1       25.826 -31.073   8.644  0.00  0.00    +0.139 A 
ATOM      3  C   LIG    1       24.966 -31.603   7.679  0.00  0.00    +0.053 A 
ATOM      4  C   LIG    1       24.796 -32.995   7.605  0.00  0.00    +0.020 A 
ATOM      5  C   LIG    1       25.460 -33.825   8.496  0.00  0.00    +0.021 A 
ATOM      6  C   LIG    1       26.240 -33.232   9.456  0.00  0.00    +0.113 A 
ATOM      7  S   LIG    1       24.020 -30.626   6.544  0.00  0.00    -0.084 S 
ATOM      8  C   LIG    1       24.735 -29.010   6.762  0.00  0.00    +0.034 A 
ATOM      9  C   LIG    1       24.273 -28.025   5.868  0.00  0.00    +0.017 A 
ATOM     10  C   LIG    1       24.777 -26.733   5.905  0.00  0.00    +0.001 A 
ATOM     11  C   LIG    1       25.748 -26.416   6.842  0.00  0.00    +0.002 A 
ATOM     12  C   LIG    1       26.195 -27.387   7.749  0.00  0.00    +0.024 A 
ATOM     13  N   LIG    1       26.420 -31.896   9.552  0.00  0.00    -0.239 NA
ATOM     14  C   LIG    1       25.698 -28.709   7.749  0.00  0.00    +0.049 A 
ENDROOT
BRANCH   1  15
ATOM     15  C   LIG    1       26.890 -29.271   9.883  0.00  0.00    +0.131 C 
BRANCH  15  17
ATOM     16  C   LIG    1       26.771 -27.558  11.824  0.00  0.00    +0.026 C 
ATOM     17  C   LIG    1       26.018 -28.626  11.013  0.00  0.00    +0.071 C 
BRANCH  17  18
ATOM     18  N   LIG    1       25.368 -29.607  11.940  0.00  0.00    -0.304 NA
ATOM     19  C   LIG    1       23.944 -29.819  11.673  0.00  0.00    +0.105 C 
ATOM     20  C   LIG    1       25.571 -29.275  13.350  0.00  0.00    +0.105 C 
ENDBRANCH  17  18
ENDBRANCH  15  17
ENDBRANCH   1  15
TORSDOF 3
ENDMDL
