MODEL 1
REMARK VINA RESULT:      -5.1      0.000      0.000
REMARK  Name = *****
REMARK                            x       y       z     vdW  Elec       q    Type
REMARK                         _______ _______ _______ _____ _____    ______ ____
ROOT
ATOM      1  C   LIG    1       24.675 -20.455   5.372  0.00  0.00    +0.043 A 
ATOM      2  N   LIG    1       25.005 -19.809   4.226  0.00  0.00    -0.260 NA
ATOM      3  C   LIG    1       24.053 -19.059   3.632  0.00  0.00    +0.111 A 
ATOM      4  C   LIG    1       22.772 -18.908   4.127  0.00  0.00    +0.020 A 
ATOM      5  C   LIG    1       22.444 -19.568   5.305  0.00  0.00    +0.003 A 
ATOM      6  C   LIG    1       23.405 -20.353   5.938  0.00  0.00    +0.023 A 
ENDROOT
BRANCH   1   7
ATOM      7  C   LIG    1       25.724 -21.311   6.046  0.00  0.00    +0.070 C 
BRANCH   7   8
ATOM      8  C   LIG    1       26.962 -20.522   6.491  0.00  0.00    +0.087 C 
BRANCH   8  10
ATOM      9  C   LIG    1       28.885 -19.273   5.775  0.00  0.00    +0.101 C 
ATOM     10  N   LIG    1       27.741 -20.059   5.331  0.00  0.00    -0.319 NA
ATOM     11  H   LIG    1       28.076 -20.868   4.808  0.00  0.00    +0.122 HD
ENDBRANCH   8  10
ENDBRANCH   7   8
ENDBRANCH   1   7
TORSDOF 3
ENDMDL
MODEL 2
REMARK VINA RESULT:      -4.9      6.389      7.075
REMARK  Name = *****
REMARK                            x       y       z     vdW  Elec       q    Type
REMARK                         _______ _______ _______ _____ _____    ______ ____
ROOT
ATOM      1  C   LIG    1       25.336 -13.795   3.215  0.00  0.00    +0.043 A 
ATOM      2  N   LIG    1       25.331 -13.227   1.984  0.00  0.00    -0.260 NA
ATOM      3  C   LIG    1       24.596 -12.108   1.812  0.00  0.00    +0.111 A 
ATOM      4  C   LIG    1       23.860 -11.509   2.817  0.00  0.00    +0.020 A 
ATOM      5  C   LIG    1       23.876 -12.093   4.076  0.00  0.00    +0.003 A 
ATOM      6  C   LIG    1       24.621 -13.252   4.282  0.00  0.00    +0.023 A 
ENDROOT
BRANCH   1   7
ATOM      7  C   LIG    1       26.142 -15.057   3.425  0.00  0.00    +0.070 C 
BRANCH   7   8
ATOM      8  C   LIG    1       27.597 -14.791   3.835  0.00  0.00    +0.087 C 
BRANCH   8  10
ATOM      9  C   LIG    1       28.752 -12.703   4.109  0.00  0.00    +0.101 C 
ATOM     10  N   LIG    1       28.133 -13.606   3.146  0.00  0.00    -0.319 NA
ATOM     11  H   LIG    1       28.835 -13.901   2.469  0.00  0.00    +0.122 HD
ENDBRANCH   8  10
ENDBRANCH   7   8
ENDBRANCH   1   7
TORSDOF 3
ENDMDL
MODEL 3
REMARK VINA RESULT:      -4.7      1.034      1.610
REMARK  Name = *****
REMARK                            x       y       z     vdW  Elec       q    Type
REMARK                         _______ _______ _______ _____ _____    ______ ____
ROOT
ATOM      1  C   LIG    1       24.799 -20.544   5.541  0.00  0.00    +0.043 A 
ATOM      2  N   LIG    1       23.584 -20.476   6.139  0.00  0.00    -0.260 NA
ATOM      3  C   LIG    1       22.616 -19.773   5.514  0.00  0.00    +0.111 A 
ATOM      4  C   LIG    1       22.791 -19.131   4.302  0.00  0.00    +0.020 A 
ATOM      5  C   LIG    1       24.037 -19.212   3.694  0.00  0.00    +0.003 A 
ATOM      6  C   LIG    1       25.057 -19.925   4.319  0.00  0.00    +0.023 A 
ENDROOT
BRANCH   1   7
ATOM      7  C   LIG    1       25.902 -21.314   6.232  0.00  0.00    +0.070 C 
BRANCH   7   8
ATOM      8  C   LIG    1       27.024 -20.420   6.776  0.00  0.00    +0.087 C 
BRANCH   8  10
ATOM      9  C   LIG    1       29.404 -20.109   6.692  0.00  0.00    +0.101 C 
ATOM     10  N   LIG    1       28.225 -20.505   5.930  0.00  0.00    -0.319 NA
ATOM     11  H   LIG    1       28.344 -21.466   5.612  0.00  0.00    +0.122 HD
ENDBRANCH   8  10
ENDBRANCH   7   8
ENDBRANCH   1   7
TORSDOF 3
ENDMDL
MODEL 4
REMARK VINA RESULT:      -4.3      5.463      6.350
REMARK  Name = *****
REMARK                            x       y       z     vdW  Elec       q    Type
REMARK                         _______ _______ _______ _____ _____    ______ ____
ROOT
ATOM      1  C   LIG    1       26.276 -13.851   3.489  0.00  0.00    +0.043 A 
ATOM      2  N   LIG    1       25.947 -13.569   2.205  0.00  0.00    -0.260 NA
ATOM      3  C   LIG    1       24.814 -12.868   1.986  0.00  0.00    +0.111 A 
ATOM      4  C   LIG    1       23.981 -12.418   2.993  0.00  0.00    +0.020 A 
ATOM      5  C   LIG    1       24.330 -12.706   4.307  0.00  0.00    +0.003 A 
ATOM      6  C   LIG    1       25.490 -13.432   4.562  0.00  0.00    +0.023 A 
ENDROOT
BRANCH   1   7
ATOM      7  C   LIG    1       27.534 -14.647   3.754  0.00  0.00    +0.070 C 
BRANCH   7   8
ATOM      8  C   LIG    1       27.299 -16.162   3.802  0.00  0.00    +0.087 C 
BRANCH   8  10
ATOM      9  C   LIG    1       25.733 -17.921   3.327  0.00  0.00    +0.101 C 
ATOM     10  N   LIG    1       26.090 -16.535   3.049  0.00  0.00    -0.319 NA
ATOM     11  H   LIG    1       25.319 -15.931   3.332  0.00  0.00    +0.122 HD
ENDBRANCH   8  10
ENDBRANCH   7   8
ENDBRANCH   1   7
TORSDOF 3
ENDMDL
MODEL 5
REMARK VINA RESULT:      -4.3      1.923      3.215
REMARK  Name = *****
REMARK                            x       y       z     vdW  Elec       q    Type
REMARK                         _______ _______ _______ _____ _____    ______ ____
ROOT
ATOM      1  C   LIG    1       24.660 -20.097   4.706  0.00  0.00    +0.043 A 
ATOM      2  N   LIG    1       25.581 -20.573   5.580  0.00  0.00    -0.260 NA
ATOM      3  C   LIG    1       25.131 -21.119   6.730  0.00  0.00    +0.111 A 
ATOM      4  C   LIG    1       23.793 -21.226   7.059  0.00  0.00    +0.020 A 
ATOM      5  C   LIG    1       22.857 -20.742   6.155  0.00  0.00    +0.003 A 
ATOM      6  C   LIG    1       23.291 -20.168   4.963  0.00  0.00    +0.023 A 
ENDROOT
BRANCH   1   7
ATOM      7  C   LIG    1       25.144 -19.469   3.418  0.00  0.00    +0.070 C 
BRANCH   7   8
ATOM      8  C   LIG    1       25.105 -17.935   3.435  0.00  0.00    +0.087 C 
BRANCH   8  10
ATOM      9  C   LIG    1       26.407 -15.918   3.355  0.00  0.00    +0.101 C 
ATOM     10  N   LIG    1       26.444 -17.369   3.211  0.00  0.00    -0.319 NA
ATOM     11  H   LIG    1       27.091 -17.754   3.898  0.00  0.00    +0.122 HD
ENDBRANCH   8  10
ENDBRANCH   7   8
ENDBRANCH   1   7
TORSDOF 3
ENDMDL
MODEL 6
REMARK VINA RESULT:      -4.3      4.580      5.583
REMARK  Name = *****
REMARK                            x       y       z     vdW  Elec       q    Type
REMARK                         _______ _______ _______ _____ _____    ______ ____
ROOT
ATOM      1  C   LIG    1       25.801 -15.086   3.213  0.00  0.00    +0.043 A 
ATOM      2  N   LIG    1       26.318 -14.230   2.298  0.00  0.00    -0.260 NA
ATOM      3  C   LIG    1       25.705 -13.038   2.136  0.00  0.00    +0.111 A 
ATOM      4  C   LIG    1       24.591 -12.642   2.852  0.00  0.00    +0.020 A 
ATOM      5  C   LIG    1       24.072 -13.523   3.792  0.00  0.00    +0.003 A 
ATOM      6  C   LIG    1       24.681 -14.762   3.977  0.00  0.00    +0.023 A 
ENDROOT
BRANCH   1   7
ATOM      7  C   LIG    1       26.465 -16.431   3.400  0.00  0.00    +0.070 C 
BRANCH   7   8
ATOM      8  C   LIG    1       25.494 -17.614   3.282  0.00  0.00    +0.087 C 
BRANCH   8  10
ATOM      9  C   LIG    1       25.093 -19.880   3.968  0.00  0.00    +0.101 C 
ATOM     10  N   LIG    1       26.113 -18.858   3.766  0.00  0.00    -0.319 NA
ATOM     11  H   LIG    1       26.783 -19.191   3.074  0.00  0.00    +0.122 HD
ENDBRANCH   8  10
ENDBRANCH   7   8
ENDBRANCH   1   7
TORSDOF 3
ENDMDL
MODEL 7
REMARK VINA RESULT:      -4.3      1.586      4.622
REMARK  Name = *****
REMARK                            x       y       z     vdW  Elec       q    Type
REMARK                         _______ _______ _______ _____ _____    ______ ____
ROOT
ATOM      1  C   LIG    1       26.151 -20.309   5.276  0.00  0.00    +0.043 A 
ATOM      2  N   LIG    1       25.911 -21.262   6.210  0.00  0.00    -0.260 NA
ATOM      3  C   LIG    1       26.911 -21.572   7.062  0.00  0.00    +0.111 A 
ATOM      4  C   LIG    1       28.155 -20.969   7.041  0.00  0.00    +0.020 A 
ATOM      5  C   LIG    1       28.389 -19.988   6.085  0.00  0.00    +0.003 A 
ATOM      6  C   LIG    1       27.378 -19.652   5.189  0.00  0.00    +0.023 A 
ENDROOT
BRANCH   1   7
ATOM      7  C   LIG    1       25.048 -19.958   4.303  0.00  0.00    +0.070 C 
BRANCH   7   8
ATOM      8  C   LIG    1       24.161 -21.152   3.928  0.00  0.00    +0.087 C 
BRANCH   8  10
ATOM      9  C   LIG    1       22.680 -19.895   5.341  0.00  0.00    +0.101 C 
ATOM     10  N   LIG    1       22.964 -21.211   4.782  0.00  0.00    -0.319 NA
ATOM     11  H   LIG    1       22.167 -21.512   4.222  0.00  0.00    +0.122 HD
ENDBRANCH   8  10
ENDBRANCH   7   8
ENDBRANCH   1   7
TORSDOF 3
ENDMDL
MODEL 8
REMARK VINA RESULT:      -4.1      1.307      4.234
REMARK  Name = *****
REMARK                            x       y       z     vdW  Elec       q    Type
REMARK                         _______ _______ _______ _____ _____    ______ ____
ROOT
ATOM      1  C   LIG    1       25.569 -20.947   6.220  0.00  0.00    +0.043 A 
ATOM      2  N   LIG    1       25.741 -20.119   5.160  0.00  0.00    -0.260 NA
ATOM      3  C   LIG    1       26.980 -19.631   4.940  0.00  0.00    +0.111 A 
ATOM      4  C   LIG    1       28.077 -19.934   5.724  0.00  0.00    +0.020 A 
ATOM      5  C   LIG    1       27.893 -20.789   6.803  0.00  0.00    +0.003 A 
ATOM      6  C   LIG    1       26.624 -21.303   7.058  0.00  0.00    +0.023 A 
ENDROOT
BRANCH   1   7
ATOM      7  C   LIG    1       24.185 -21.493   6.492  0.00  0.00    +0.070 C 
BRANCH   7   8
ATOM      8  C   LIG    1       23.073 -20.451   6.320  0.00  0.00    +0.087 C 
BRANCH   8  10
ATOM      9  C   LIG    1       22.355 -18.933   4.601  0.00  0.00    +0.101 C 
ATOM     10  N   LIG    1       22.682 -20.321   4.907  0.00  0.00    -0.319 NA
ATOM     11  H   LIG    1       23.458 -20.618   4.315  0.00  0.00    +0.122 HD
ENDBRANCH   8  10
ENDBRANCH   7   8
ENDBRANCH   1   7
TORSDOF 3
ENDMDL
MODEL 9
REMARK VINA RESULT:      -3.9      6.337      8.012
REMARK  Name = *****
REMARK                            x       y       z     vdW  Elec       q    Type
REMARK                         _______ _______ _______ _____ _____    ______ ____
ROOT
ATOM      1  C   LIG    1       25.957 -13.957   4.081  0.00  0.00    +0.043 A 
ATOM      2  N   LIG    1       26.444 -13.374   5.205  0.00  0.00    -0.260 NA
ATOM      3  C   LIG    1       27.729 -12.961   5.190  0.00  0.00    +0.111 A 
ATOM      4  C   LIG    1       28.567 -13.089   4.099  0.00  0.00    +0.020 A 
ATOM      5  C   LIG    1       28.057 -13.682   2.950  0.00  0.00    +0.003 A 
ATOM      6  C   LIG    1       26.737 -14.124   2.938  0.00  0.00    +0.023 A 
ENDROOT
BRANCH   1   7
ATOM      7  C   LIG    1       24.524 -14.441   4.082  0.00  0.00    +0.070 C 
BRANCH   7   8
ATOM      8  C   LIG    1       23.579 -13.548   3.267  0.00  0.00    +0.087 C 
BRANCH   8  10
ATOM      9  C   LIG    1       24.119 -11.447   2.236  0.00  0.00    +0.101 C 
ATOM     10  N   LIG    1       23.861 -12.123   3.502  0.00  0.00    -0.319 NA
ATOM     11  H   LIG    1       23.053 -11.691   3.950  0.00  0.00    +0.122 HD
ENDBRANCH   8  10
ENDBRANCH   7   8
ENDBRANCH   1   7
TORSDOF 3
ENDMDL
