MODEL 1
REMARK VINA RESULT:      -8.3      0.000      0.000
REMARK  Name = *****
REMARK                            x       y       z     vdW  Elec       q    Type
REMARK                         _______ _______ _______ _____ _____    ______ ____
ROOT
ATOM      1  C   LIG    1       31.057 -19.699   9.521  0.00  0.00    +0.150 C 
ATOM      2  N   LIG    1       30.487 -19.462   8.217  0.00  0.00    -0.333 N 
ATOM      3  C   LIG    1       29.345 -20.025   7.696  0.00  0.00    +0.072 A 
ATOM      4  C   LIG    1       28.442 -20.992   8.157  0.00  0.00    +0.043 A 
ATOM      5  C   LIG    1       27.368 -21.360   7.306  0.00  0.00    +0.065 A 
ATOM      6  C   LIG    1       27.151 -20.716   6.061  0.00  0.00    +0.082 A 
ATOM      7  C   LIG    1       28.046 -19.683   5.692  0.00  0.00    +0.172 A 
ATOM      8  F   LIG    1       27.805 -18.943   4.596  0.00  0.00    -0.201 F 
ATOM      9  C   LIG    1       29.175 -19.379   6.474  0.00  0.00    +0.126 A 
ATOM     10  N   LIG    1       30.208 -18.496   6.244  0.00  0.00    -0.233 NA
ATOM     11  C   LIG    1       30.988 -18.586   7.295  0.00  0.00    +0.200 A 
ENDROOT
BRANCH   5  12
ATOM     12  C   LIG    1       26.490 -22.475   7.811  0.00  0.00    +0.269 C 
ATOM     13  N   LIG    1       26.333 -23.530   6.940  0.00  0.00    -0.190 N 
ATOM     14  H   LIG    1       26.931 -23.638   6.123  0.00  0.00    +0.183 HD
ATOM     15  O   LIG    1       25.994 -22.400   8.921  0.00  0.00    -0.268 OA
BRANCH  13  16
ATOM     16  O   LIG    1       25.681 -24.695   7.400  0.00  0.00    -0.277 OA
BRANCH  16  17
ATOM     17  C   LIG    1       24.589 -24.962   6.518  0.00  0.00    +0.217 C 
BRANCH  17  18
ATOM     18  C   LIG    1       25.056 -25.009   5.067  0.00  0.00    +0.186 C 
BRANCH  18  19
ATOM     19  O   LIG    1       24.774 -23.776   4.407  0.00  0.00    -0.393 OA
ATOM     20  H   LIG    1       25.226 -23.066   4.897  0.00  0.00    +0.209 HD
ENDBRANCH  18  19
ENDBRANCH  17  18
ENDBRANCH  16  17
ENDBRANCH  13  16
ENDBRANCH   5  12
BRANCH   6  21
ATOM     21  N   LIG    1       26.047 -21.086   5.234  0.00  0.00    -0.309 N 
ATOM     22  H   LIG    1       25.847 -22.088   5.291  0.00  0.00    +0.152 HD
BRANCH  21  23
ATOM     23  C   LIG    1       24.891 -20.344   4.886  0.00  0.00    +0.067 A 
ATOM     24  C   LIG    1       23.720 -20.449   5.658  0.00  0.00    +0.145 A 
ATOM     25  F   LIG    1       23.723 -21.231   6.750  0.00  0.00    -0.203 F 
ATOM     26  C   LIG    1       22.557 -19.749   5.341  0.00  0.00    +0.055 A 
ATOM     27  C   LIG    1       22.563 -18.897   4.242  0.00  0.00    +0.021 A 
ATOM     28 BR   LIG    1       21.024 -17.881   3.826  0.00  0.00    -0.050 Br
ATOM     29  C   LIG    1       23.702 -18.778   3.450  0.00  0.00    +0.017 A 
ATOM     30  C   LIG    1       24.847 -19.525   3.752  0.00  0.00    +0.027 A 
ENDBRANCH  21  23
ENDBRANCH   6  21
TORSDOF 7
ENDMDL
MODEL 2
REMARK VINA RESULT:      -8.2      3.258      6.325
REMARK  Name = *****
REMARK                            x       y       z     vdW  Elec       q    Type
REMARK                         _______ _______ _______ _____ _____    ______ ____
ROOT
ATOM      1  C   LIG    1       26.332 -17.532   3.497  0.00  0.00    +0.150 C 
ATOM      2  N   LIG    1       25.532 -18.719   3.673  0.00  0.00    -0.333 N 
ATOM      3  C   LIG    1       25.713 -19.710   4.611  0.00  0.00    +0.072 A 
ATOM      4  C   LIG    1       26.681 -19.950   5.595  0.00  0.00    +0.043 A 
ATOM      5  C   LIG    1       26.559 -21.128   6.376  0.00  0.00    +0.065 A 
ATOM      6  C   LIG    1       25.450 -22.001   6.236  0.00  0.00    +0.082 A 
ATOM      7  C   LIG    1       24.458 -21.657   5.287  0.00  0.00    +0.172 A 
ATOM      8  F   LIG    1       23.320 -22.367   5.214  0.00  0.00    -0.201 F 
ATOM      9  C   LIG    1       24.616 -20.550   4.432  0.00  0.00    +0.126 A 
ATOM     10  N   LIG    1       23.831 -20.109   3.389  0.00  0.00    -0.233 NA
ATOM     11  C   LIG    1       24.419 -19.025   2.941  0.00  0.00    +0.200 A 
ENDROOT
BRANCH   5  12
ATOM     12  C   LIG    1       27.681 -21.384   7.347  0.00  0.00    +0.269 C 
ATOM     13  N   LIG    1       28.945 -21.188   6.837  0.00  0.00    -0.190 N 
ATOM     14  H   LIG    1       29.093 -20.707   5.953  0.00  0.00    +0.183 HD
ATOM     15  O   LIG    1       27.429 -21.723   8.489  0.00  0.00    -0.268 OA
BRANCH  13  16
ATOM     16  O   LIG    1       30.045 -21.225   7.723  0.00  0.00    -0.277 OA
BRANCH  16  17
ATOM     17  C   LIG    1       30.725 -19.972   7.628  0.00  0.00    +0.217 C 
BRANCH  17  18
ATOM     18  C   LIG    1       31.448 -19.639   8.929  0.00  0.00    +0.186 C 
BRANCH  18  19
ATOM     19  O   LIG    1       32.244 -20.743   9.358  0.00  0.00    -0.393 OA
ATOM     20  H   LIG    1       31.738 -21.231  10.030  0.00  0.00    +0.209 HD
ENDBRANCH  18  19
ENDBRANCH  17  18
ENDBRANCH  16  17
ENDBRANCH  13  16
ENDBRANCH   5  12
BRANCH   6  21
ATOM     21  N   LIG    1       25.337 -23.167   7.052  0.00  0.00    -0.309 N 
ATOM     22  H   LIG    1       24.771 -22.995   7.888  0.00  0.00    +0.152 HD
BRANCH  21  23
ATOM     23  C   LIG    1       25.305 -24.533   6.677  0.00  0.00    +0.067 A 
ATOM     24  C   LIG    1       24.077 -25.211   6.563  0.00  0.00    +0.145 A 
ATOM     25  F   LIG    1       22.935 -24.537   6.777  0.00  0.00    -0.203 F 
ATOM     26  C   LIG    1       24.003 -26.558   6.211  0.00  0.00    +0.055 A 
ATOM     27  C   LIG    1       25.178 -27.247   5.936  0.00  0.00    +0.021 A 
ATOM     28 BR   LIG    1       25.107 -29.056   5.389  0.00  0.00    -0.050 Br
ATOM     29  C   LIG    1       26.412 -26.609   6.051  0.00  0.00    +0.017 A 
ATOM     30  C   LIG    1       26.473 -25.270   6.453  0.00  0.00    +0.027 A 
ENDBRANCH  21  23
ENDBRANCH   6  21
TORSDOF 7
ENDMDL
MODEL 3
REMARK VINA RESULT:      -7.9      3.001      5.069
REMARK  Name = *****
REMARK                            x       y       z     vdW  Elec       q    Type
REMARK                         _______ _______ _______ _____ _____    ______ ____
ROOT
ATOM      1  C   LIG    1       30.011 -18.177   5.670  0.00  0.00    +0.150 C 
ATOM      2  N   LIG    1       29.493 -19.107   6.643  0.00  0.00    -0.333 N 
ATOM      3  C   LIG    1       28.348 -19.864   6.540  0.00  0.00    +0.072 A 
ATOM      4  C   LIG    1       27.326 -19.953   5.586  0.00  0.00    +0.043 A 
ATOM      5  C   LIG    1       26.254 -20.847   5.840  0.00  0.00    +0.065 A 
ATOM      6  C   LIG    1       26.246 -21.694   6.977  0.00  0.00    +0.082 A 
ATOM      7  C   LIG    1       27.352 -21.623   7.858  0.00  0.00    +0.172 A 
ATOM      8  F   LIG    1       27.465 -22.500   8.869  0.00  0.00    -0.201 F 
ATOM      9  C   LIG    1       28.370 -20.668   7.677  0.00  0.00    +0.126 A 
ATOM     10  N   LIG    1       29.461 -20.369   8.463  0.00  0.00    -0.233 NA
ATOM     11  C   LIG    1       30.101 -19.415   7.828  0.00  0.00    +0.200 A 
ENDROOT
BRANCH   5  12
ATOM     12  C   LIG    1       25.136 -20.826   4.830  0.00  0.00    +0.269 C 
ATOM     13  N   LIG    1       24.712 -19.569   4.460  0.00  0.00    -0.190 N 
ATOM     14  H   LIG    1       25.253 -18.738   4.687  0.00  0.00    +0.183 HD
ATOM     15  O   LIG    1       24.691 -21.873   4.398  0.00  0.00    -0.268 OA
BRANCH  13  16
ATOM     16  O   LIG    1       23.801 -19.452   3.387  0.00  0.00    -0.277 OA
BRANCH  16  17
ATOM     17  C   LIG    1       22.608 -18.850   3.891  0.00  0.00    +0.217 C 
BRANCH  17  18
ATOM     18  C   LIG    1       22.076 -19.614   5.099  0.00  0.00    +0.186 C 
BRANCH  18  19
ATOM     19  O   LIG    1       21.910 -20.997   4.787  0.00  0.00    -0.393 OA
ATOM     20  H   LIG    1       21.572 -21.443   5.584  0.00  0.00    +0.209 HD
ENDBRANCH  18  19
ENDBRANCH  17  18
ENDBRANCH  16  17
ENDBRANCH  13  16
ENDBRANCH   5  12
BRANCH   6  21
ATOM     21  N   LIG    1       25.167 -22.604   7.197  0.00  0.00    -0.309 N 
ATOM     22  H   LIG    1       24.261 -22.130   7.192  0.00  0.00    +0.152 HD
BRANCH  21  23
ATOM     23  C   LIG    1       25.044 -23.966   6.823  0.00  0.00    +0.067 A 
ATOM     24  C   LIG    1       23.779 -24.511   6.537  0.00  0.00    +0.145 A 
ATOM     25  F   LIG    1       22.697 -23.718   6.585  0.00  0.00    -0.203 F 
ATOM     26  C   LIG    1       23.611 -25.849   6.180  0.00  0.00    +0.055 A 
ATOM     27  C   LIG    1       24.734 -26.663   6.076  0.00  0.00    +0.021 A 
ATOM     28 BR   LIG    1       24.548 -28.463   5.527  0.00  0.00    -0.050 Br
ATOM     29  C   LIG    1       26.000 -26.157   6.364  0.00  0.00    +0.017 A 
ATOM     30  C   LIG    1       26.147 -24.825   6.768  0.00  0.00    +0.027 A 
ENDBRANCH  21  23
ENDBRANCH   6  21
TORSDOF 7
ENDMDL
MODEL 4
REMARK VINA RESULT:      -7.5      2.354      5.392
REMARK  Name = *****
REMARK                            x       y       z     vdW  Elec       q    Type
REMARK                         _______ _______ _______ _____ _____    ______ ____
ROOT
ATOM      1  C   LIG    1       25.992 -27.535   7.722  0.00  0.00    +0.150 C 
ATOM      2  N   LIG    1       25.416 -26.610   6.778  0.00  0.00    -0.333 N 
ATOM      3  C   LIG    1       25.619 -25.251   6.717  0.00  0.00    +0.072 A 
ATOM      4  C   LIG    1       26.329 -24.339   7.509  0.00  0.00    +0.043 A 
ATOM      5  C   LIG    1       26.283 -22.967   7.151  0.00  0.00    +0.065 A 
ATOM      6  C   LIG    1       25.615 -22.527   5.979  0.00  0.00    +0.082 A 
ATOM      7  C   LIG    1       24.993 -23.508   5.170  0.00  0.00    +0.172 A 
ATOM      8  F   LIG    1       24.472 -23.167   3.979  0.00  0.00    -0.201 F 
ATOM      9  C   LIG    1       24.940 -24.857   5.566  0.00  0.00    +0.126 A 
ATOM     10  N   LIG    1       24.305 -25.934   4.984  0.00  0.00    -0.233 NA
ATOM     11  C   LIG    1       24.591 -26.963   5.746  0.00  0.00    +0.200 A 
ENDROOT
BRANCH   5  12
ATOM     12  C   LIG    1       26.979 -22.024   8.095  0.00  0.00    +0.269 C 
ATOM     13  N   LIG    1       28.261 -21.678   7.729  0.00  0.00    -0.190 N 
ATOM     14  H   LIG    1       28.618 -21.874   6.797  0.00  0.00    +0.183 HD
ATOM     15  O   LIG    1       26.398 -21.618   9.085  0.00  0.00    -0.268 OA
BRANCH  13  16
ATOM     16  O   LIG    1       28.919 -20.659   8.453  0.00  0.00    -0.277 OA
BRANCH  16  17
ATOM     17  C   LIG    1       30.321 -20.787   8.211  0.00  0.00    +0.217 C 
BRANCH  17  18
ATOM     18  C   LIG    1       30.945 -21.826   9.138  0.00  0.00    +0.186 C 
BRANCH  18  19
ATOM     19  O   LIG    1       32.269 -21.442   9.505  0.00  0.00    -0.393 OA
ATOM     20  H   LIG    1       32.471 -20.602   9.057  0.00  0.00    +0.209 HD
ENDBRANCH  18  19
ENDBRANCH  17  18
ENDBRANCH  16  17
ENDBRANCH  13  16
ENDBRANCH   5  12
BRANCH   6  21
ATOM     21  N   LIG    1       25.605 -21.144   5.626  0.00  0.00    -0.309 N 
ATOM     22  H   LIG    1       26.510 -20.837   5.260  0.00  0.00    +0.152 HD
BRANCH  21  23
ATOM     23  C   LIG    1       24.545 -20.347   5.125  0.00  0.00    +0.067 A 
ATOM     24  C   LIG    1       23.308 -20.310   5.795  0.00  0.00    +0.145 A 
ATOM     25  F   LIG    1       23.157 -21.007   6.933  0.00  0.00    -0.203 F 
ATOM     26  C   LIG    1       22.234 -19.552   5.328  0.00  0.00    +0.055 A 
ATOM     27  C   LIG    1       22.401 -18.785   4.180  0.00  0.00    +0.021 A 
ATOM     28 BR   LIG    1       20.987 -17.693   3.560  0.00  0.00    -0.050 Br
ATOM     29  C   LIG    1       23.609 -18.809   3.487  0.00  0.00    +0.017 A 
ATOM     30  C   LIG    1       24.661 -19.613   3.940  0.00  0.00    +0.027 A 
ENDBRANCH  21  23
ENDBRANCH   6  21
TORSDOF 7
ENDMDL
MODEL 5
REMARK VINA RESULT:      -7.4      2.218      5.158
REMARK  Name = *****
REMARK                            x       y       z     vdW  Elec       q    Type
REMARK                         _______ _______ _______ _____ _____    ______ ____
ROOT
ATOM      1  C   LIG    1       25.896 -27.653   7.689  0.00  0.00    +0.150 C 
ATOM      2  N   LIG    1       25.347 -26.728   6.729  0.00  0.00    -0.333 N 
ATOM      3  C   LIG    1       25.551 -25.368   6.675  0.00  0.00    +0.072 A 
ATOM      4  C   LIG    1       26.237 -24.457   7.489  0.00  0.00    +0.043 A 
ATOM      5  C   LIG    1       26.200 -23.084   7.131  0.00  0.00    +0.065 A 
ATOM      6  C   LIG    1       25.567 -22.644   5.940  0.00  0.00    +0.082 A 
ATOM      7  C   LIG    1       24.970 -23.624   5.112  0.00  0.00    +0.172 A 
ATOM      8  F   LIG    1       24.484 -23.282   3.907  0.00  0.00    -0.201 F 
ATOM      9  C   LIG    1       24.906 -24.974   5.505  0.00  0.00    +0.126 A 
ATOM     10  N   LIG    1       24.289 -26.050   4.904  0.00  0.00    -0.233 NA
ATOM     11  C   LIG    1       24.553 -27.080   5.673  0.00  0.00    +0.200 A 
ENDROOT
BRANCH   5  12
ATOM     12  C   LIG    1       26.868 -22.141   8.097  0.00  0.00    +0.269 C 
ATOM     13  N   LIG    1       28.132 -21.736   7.731  0.00  0.00    -0.190 N 
ATOM     14  H   LIG    1       28.489 -21.892   6.790  0.00  0.00    +0.183 HD
ATOM     15  O   LIG    1       26.280 -21.786   9.101  0.00  0.00    -0.268 OA
BRANCH  13  16
ATOM     16  O   LIG    1       28.757 -20.713   8.478  0.00  0.00    -0.277 OA
BRANCH  16  17
ATOM     17  C   LIG    1       28.954 -19.596   7.609  0.00  0.00    +0.217 C 
BRANCH  17  18
ATOM     18  C   LIG    1       29.317 -20.055   6.200  0.00  0.00    +0.186 C 
BRANCH  18  19
ATOM     19  O   LIG    1       28.172 -20.025   5.350  0.00  0.00    -0.393 OA
ATOM     20  H   LIG    1       27.532 -19.400   5.735  0.00  0.00    +0.209 HD
ENDBRANCH  18  19
ENDBRANCH  17  18
ENDBRANCH  16  17
ENDBRANCH  13  16
ENDBRANCH   5  12
BRANCH   6  21
ATOM     21  N   LIG    1       25.566 -21.260   5.588  0.00  0.00    -0.309 N 
ATOM     22  H   LIG    1       26.468 -20.963   5.206  0.00  0.00    +0.152 HD
BRANCH  21  23
ATOM     23  C   LIG    1       24.507 -20.450   5.109  0.00  0.00    +0.067 A 
ATOM     24  C   LIG    1       23.315 -20.330   5.846  0.00  0.00    +0.145 A 
ATOM     25  F   LIG    1       23.209 -20.961   7.028  0.00  0.00    -0.203 F 
ATOM     26  C   LIG    1       22.242 -19.557   5.403  0.00  0.00    +0.055 A 
ATOM     27  C   LIG    1       22.365 -18.859   4.207  0.00  0.00    +0.021 A 
ATOM     28 BR   LIG    1       20.956 -17.747   3.613  0.00  0.00    -0.050 Br
ATOM     29  C   LIG    1       23.528 -18.965   3.446  0.00  0.00    +0.017 A 
ATOM     30  C   LIG    1       24.577 -19.784   3.880  0.00  0.00    +0.027 A 
ENDBRANCH  21  23
ENDBRANCH   6  21
TORSDOF 7
ENDMDL
MODEL 6
REMARK VINA RESULT:      -7.1      2.890      5.670
REMARK  Name = *****
REMARK                            x       y       z     vdW  Elec       q    Type
REMARK                         _______ _______ _______ _____ _____    ______ ____
ROOT
ATOM      1  C   LIG    1       21.396 -20.639   4.580  0.00  0.00    +0.150 C 
ATOM      2  N   LIG    1       22.697 -20.021   4.532  0.00  0.00    -0.333 N 
ATOM      3  C   LIG    1       23.870 -20.513   5.059  0.00  0.00    +0.072 A 
ATOM      4  C   LIG    1       24.192 -21.643   5.822  0.00  0.00    +0.043 A 
ATOM      5  C   LIG    1       25.541 -21.812   6.227  0.00  0.00    +0.065 A 
ATOM      6  C   LIG    1       26.560 -20.918   5.808  0.00  0.00    +0.082 A 
ATOM      7  C   LIG    1       26.187 -19.846   4.962  0.00  0.00    +0.172 A 
ATOM      8  F   LIG    1       27.129 -19.057   4.420  0.00  0.00    -0.201 F 
ATOM      9  C   LIG    1       24.838 -19.605   4.638  0.00  0.00    +0.126 A 
ATOM     10  N   LIG    1       24.262 -18.574   3.928  0.00  0.00    -0.233 NA
ATOM     11  C   LIG    1       22.978 -18.841   3.902  0.00  0.00    +0.200 A 
ENDROOT
BRANCH   5  12
ATOM     12  C   LIG    1       25.808 -22.988   7.129  0.00  0.00    +0.269 C 
ATOM     13  N   LIG    1       25.528 -24.218   6.575  0.00  0.00    -0.190 N 
ATOM     14  H   LIG    1       25.362 -24.326   5.577  0.00  0.00    +0.183 HD
ATOM     15  O   LIG    1       26.253 -22.806   8.247  0.00  0.00    -0.268 OA
BRANCH  13  16
ATOM     16  O   LIG    1       25.920 -25.379   7.277  0.00  0.00    -0.277 OA
BRANCH  16  17
ATOM     17  C   LIG    1       25.871 -26.478   6.364  0.00  0.00    +0.217 C 
BRANCH  17  18
ATOM     18  C   LIG    1       25.091 -26.110   5.106  0.00  0.00    +0.186 C 
BRANCH  18  19
ATOM     19  O   LIG    1       23.696 -26.015   5.388  0.00  0.00    -0.393 OA
ATOM     20  H   LIG    1       23.433 -26.821   5.867  0.00  0.00    +0.209 HD
ENDBRANCH  18  19
ENDBRANCH  17  18
ENDBRANCH  16  17
ENDBRANCH  13  16
ENDBRANCH   5  12
BRANCH   6  21
ATOM     21  N   LIG    1       27.915 -21.124   6.207  0.00  0.00    -0.309 N 
ATOM     22  H   LIG    1       28.411 -21.749   5.566  0.00  0.00    +0.152 HD
BRANCH  21  23
ATOM     23  C   LIG    1       28.806 -20.241   6.867  0.00  0.00    +0.067 A 
ATOM     24  C   LIG    1       28.450 -19.662   8.098  0.00  0.00    +0.145 A 
ATOM     25  F   LIG    1       27.274 -19.985   8.658  0.00  0.00    -0.203 F 
ATOM     26  C   LIG    1       29.290 -18.776   8.772  0.00  0.00    +0.055 A 
ATOM     27  C   LIG    1       30.533 -18.478   8.224  0.00  0.00    +0.021 A 
ATOM     28 BR   LIG    1       31.724 -17.336   9.146  0.00  0.00    -0.050 Br
ATOM     29  C   LIG    1       30.912 -19.026   6.999  0.00  0.00    +0.017 A 
ATOM     30  C   LIG    1       30.037 -19.875   6.311  0.00  0.00    +0.027 A 
ENDBRANCH  21  23
ENDBRANCH   6  21
TORSDOF 7
ENDMDL
MODEL 7
REMARK VINA RESULT:      -7.0      3.491      6.979
REMARK  Name = *****
REMARK                            x       y       z     vdW  Elec       q    Type
REMARK                         _______ _______ _______ _____ _____    ______ ____
ROOT
ATOM      1  C   LIG    1       23.188 -18.014   4.291  0.00  0.00    +0.150 C 
ATOM      2  N   LIG    1       22.948 -19.388   4.655  0.00  0.00    -0.333 N 
ATOM      3  C   LIG    1       23.842 -20.264   5.227  0.00  0.00    +0.072 A 
ATOM      4  C   LIG    1       25.198 -20.182   5.568  0.00  0.00    +0.043 A 
ATOM      5  C   LIG    1       25.816 -21.332   6.125  0.00  0.00    +0.065 A 
ATOM      6  C   LIG    1       25.076 -22.507   6.414  0.00  0.00    +0.082 A 
ATOM      7  C   LIG    1       23.690 -22.497   6.131  0.00  0.00    +0.172 A 
ATOM      8  F   LIG    1       22.916 -23.526   6.516  0.00  0.00    -0.201 F 
ATOM      9  C   LIG    1       23.083 -21.405   5.482  0.00  0.00    +0.126 A 
ATOM     10  N   LIG    1       21.792 -21.240   5.031  0.00  0.00    -0.233 NA
ATOM     11  C   LIG    1       21.749 -20.032   4.521  0.00  0.00    +0.200 A 
ENDROOT
BRANCH   5  12
ATOM     12  C   LIG    1       27.297 -21.217   6.377  0.00  0.00    +0.269 C 
ATOM     13  N   LIG    1       27.975 -20.411   5.490  0.00  0.00    -0.190 N 
ATOM     14  H   LIG    1       27.483 -19.784   4.858  0.00  0.00    +0.183 HD
ATOM     15  O   LIG    1       27.798 -21.804   7.318  0.00  0.00    -0.268 OA
BRANCH  13  16
ATOM     16  O   LIG    1       29.327 -20.099   5.758  0.00  0.00    -0.277 OA
BRANCH  16  17
ATOM     17  C   LIG    1       29.353 -18.882   6.506  0.00  0.00    +0.217 C 
BRANCH  17  18
ATOM     18  C   LIG    1       30.539 -18.855   7.466  0.00  0.00    +0.186 C 
BRANCH  18  19
ATOM     19  O   LIG    1       31.491 -19.859   7.119  0.00  0.00    -0.393 OA
ATOM     20  H   LIG    1       31.032 -20.532   6.586  0.00  0.00    +0.209 HD
ENDBRANCH  18  19
ENDBRANCH  17  18
ENDBRANCH  16  17
ENDBRANCH  13  16
ENDBRANCH   5  12
BRANCH   6  21
ATOM     21  N   LIG    1       25.716 -23.642   6.999  0.00  0.00    -0.309 N 
ATOM     22  H   LIG    1       25.843 -23.530   8.008  0.00  0.00    +0.152 HD
BRANCH  21  23
ATOM     23  C   LIG    1       25.643 -25.008   6.632  0.00  0.00    +0.067 A 
ATOM     24  C   LIG    1       25.341 -25.373   5.307  0.00  0.00    +0.145 A 
ATOM     25  F   LIG    1       25.160 -24.410   4.388  0.00  0.00    -0.203 F 
ATOM     26  C   LIG    1       25.244 -26.705   4.907  0.00  0.00    +0.055 A 
ATOM     27  C   LIG    1       25.482 -27.706   5.841  0.00  0.00    +0.021 A 
ATOM     28 BR   LIG    1       25.427 -29.522   5.316  0.00  0.00    -0.050 Br
ATOM     29  C   LIG    1       25.772 -27.380   7.165  0.00  0.00    +0.017 A 
ATOM     30  C   LIG    1       25.818 -26.039   7.562  0.00  0.00    +0.027 A 
ENDBRANCH  21  23
ENDBRANCH   6  21
TORSDOF 7
ENDMDL
MODEL 8
REMARK VINA RESULT:      -6.8      3.205      6.010
REMARK  Name = *****
REMARK                            x       y       z     vdW  Elec       q    Type
REMARK                         _______ _______ _______ _____ _____    ______ ____
ROOT
ATOM      1  C   LIG    1       23.637 -19.551   3.308  0.00  0.00    +0.150 C 
ATOM      2  N   LIG    1       24.919 -19.015   3.692  0.00  0.00    -0.333 N 
ATOM      3  C   LIG    1       25.790 -19.533   4.622  0.00  0.00    +0.072 A 
ATOM      4  C   LIG    1       25.734 -20.619   5.505  0.00  0.00    +0.043 A 
ATOM      5  C   LIG    1       26.839 -20.835   6.368  0.00  0.00    +0.065 A 
ATOM      6  C   LIG    1       28.009 -20.035   6.291  0.00  0.00    +0.082 A 
ATOM      7  C   LIG    1       28.041 -19.009   5.317  0.00  0.00    +0.172 A 
ATOM      8  F   LIG    1       29.173 -18.318   5.103  0.00  0.00    -0.201 F 
ATOM      9  C   LIG    1       26.914 -18.716   4.526  0.00  0.00    +0.126 A 
ATOM     10  N   LIG    1       26.706 -17.710   3.608  0.00  0.00    -0.233 NA
ATOM     11  C   LIG    1       25.495 -17.903   3.143  0.00  0.00    +0.200 A 
ENDROOT
BRANCH   5  12
ATOM     12  C   LIG    1       26.681 -21.954   7.363  0.00  0.00    +0.269 C 
ATOM     13  N   LIG    1       25.951 -23.031   6.912  0.00  0.00    -0.190 N 
ATOM     14  H   LIG    1       25.728 -23.147   5.926  0.00  0.00    +0.183 HD
ATOM     15  O   LIG    1       27.193 -21.864   8.463  0.00  0.00    -0.268 OA
BRANCH  13  16
ATOM     16  O   LIG    1       25.909 -24.199   7.706  0.00  0.00    -0.277 OA
BRANCH  16  17
ATOM     17  C   LIG    1       25.784 -25.320   6.829  0.00  0.00    +0.217 C 
BRANCH  17  18
ATOM     18  C   LIG    1       24.552 -25.186   5.940  0.00  0.00    +0.186 C 
BRANCH  18  19
ATOM     19  O   LIG    1       23.430 -24.737   6.699  0.00  0.00    -0.393 OA
ATOM     20  H   LIG    1       23.715 -23.968   7.224  0.00  0.00    +0.209 HD
ENDBRANCH  18  19
ENDBRANCH  17  18
ENDBRANCH  16  17
ENDBRANCH  13  16
ENDBRANCH   5  12
BRANCH   6  21
ATOM     21  N   LIG    1       29.119 -20.288   7.153  0.00  0.00    -0.309 N 
ATOM     22  H   LIG    1       29.674 -21.088   6.837  0.00  0.00    +0.152 HD
BRANCH  21  23
ATOM     23  C   LIG    1       29.901 -19.380   7.909  0.00  0.00    +0.067 A 
ATOM     24  C   LIG    1       31.220 -19.083   7.519  0.00  0.00    +0.145 A 
ATOM     25  F   LIG    1       31.714 -19.640   6.402  0.00  0.00    -0.203 F 
ATOM     26  C   LIG    1       32.028 -18.207   8.243  0.00  0.00    +0.055 A 
ATOM     27  C   LIG    1       31.505 -17.585   9.371  0.00  0.00    +0.021 A 
ATOM     28 BR   LIG    1       32.551 -16.339  10.335  0.00  0.00    -0.050 Br
ATOM     29  C   LIG    1       30.206 -17.866   9.791  0.00  0.00    +0.017 A 
ATOM     30  C   LIG    1       29.423 -18.785   9.082  0.00  0.00    +0.027 A 
ENDBRANCH  21  23
ENDBRANCH   6  21
TORSDOF 7
ENDMDL
MODEL 9
REMARK VINA RESULT:      -6.2      6.483      9.638
REMARK  Name = *****
REMARK                            x       y       z     vdW  Elec       q    Type
REMARK                         _______ _______ _______ _____ _____    ______ ____
ROOT
ATOM      1  C   LIG    1       23.557 -32.199  11.975  0.00  0.00    +0.150 C 
ATOM      2  N   LIG    1       24.510 -31.213  11.530  0.00  0.00    -0.333 N 
ATOM      3  C   LIG    1       24.655 -30.715  10.256  0.00  0.00    +0.072 A 
ATOM      4  C   LIG    1       24.047 -31.001   9.027  0.00  0.00    +0.043 A 
ATOM      5  C   LIG    1       24.490 -30.290   7.882  0.00  0.00    +0.065 A 
ATOM      6  C   LIG    1       25.458 -29.257   7.977  0.00  0.00    +0.082 A 
ATOM      7  C   LIG    1       25.970 -28.953   9.261  0.00  0.00    +0.172 A 
ATOM      8  F   LIG    1       26.777 -27.892   9.430  0.00  0.00    -0.201 F 
ATOM      9  C   LIG    1       25.619 -29.718  10.389  0.00  0.00    +0.126 A 
ATOM     10  N   LIG    1       26.075 -29.654  11.688  0.00  0.00    -0.233 NA
ATOM     11  C   LIG    1       25.409 -30.577  12.340  0.00  0.00    +0.200 A 
ENDROOT
BRANCH   5  12
ATOM     12  C   LIG    1       23.872 -30.710   6.574  0.00  0.00    +0.269 C 
ATOM     13  N   LIG    1       23.943 -32.059   6.307  0.00  0.00    -0.190 N 
ATOM     14  H   LIG    1       24.197 -32.732   7.027  0.00  0.00    +0.183 HD
ATOM     15  O   LIG    1       23.350 -29.878   5.856  0.00  0.00    -0.268 OA
BRANCH  13  16
ATOM     16  O   LIG    1       23.230 -32.567   5.198  0.00  0.00    -0.277 OA
BRANCH  16  17
ATOM     17  C   LIG    1       23.867 -33.778   4.786  0.00  0.00    +0.217 C 
BRANCH  17  18
ATOM     18  C   LIG    1       24.803 -33.532   3.607  0.00  0.00    +0.186 C 
BRANCH  18  19
ATOM     19  O   LIG    1       25.256 -32.179   3.598  0.00  0.00    -0.393 OA
ATOM     20  H   LIG    1       26.165 -32.172   3.249  0.00  0.00    +0.209 HD
ENDBRANCH  18  19
ENDBRANCH  17  18
ENDBRANCH  16  17
ENDBRANCH  13  16
ENDBRANCH   5  12
BRANCH   6  21
ATOM     21  N   LIG    1       25.869 -28.538   6.814  0.00  0.00    -0.309 N 
ATOM     22  H   LIG    1       25.910 -29.140   5.988  0.00  0.00    +0.152 HD
BRANCH  21  23
ATOM     23  C   LIG    1       25.639 -27.185   6.460  0.00  0.00    +0.067 A 
ATOM     24  C   LIG    1       25.161 -26.857   5.178  0.00  0.00    +0.145 A 
ATOM     25  F   LIG    1       24.890 -27.844   4.308  0.00  0.00    -0.203 F 
ATOM     26  C   LIG    1       24.936 -25.539   4.784  0.00  0.00    +0.055 A 
ATOM     27  C   LIG    1       25.164 -24.516   5.698  0.00  0.00    +0.021 A 
ATOM     28 BR   LIG    1       24.803 -22.723   5.219  0.00  0.00    -0.050 Br
ATOM     29  C   LIG    1       25.648 -24.805   6.972  0.00  0.00    +0.017 A 
ATOM     30  C   LIG    1       25.916 -26.130   7.336  0.00  0.00    +0.027 A 
ENDBRANCH  21  23
ENDBRANCH   6  21
TORSDOF 7
ENDMDL
