MODEL 1
REMARK VINA RESULT:       1.2      0.000      0.000
REMARK  Name = *****
REMARK                            x       y       z     vdW  Elec       q    Type
REMARK                         _______ _______ _______ _____ _____    ______ ____
ROOT
ATOM      1  C   LIG    1       26.590 -16.950   3.755  0.00  0.00    +0.065 C 
ATOM      2  C   LIG    1       25.716 -15.743   3.337  0.00  0.00    +0.102 C 
ATOM      3  C   LIG    1       26.542 -14.443   3.193  0.00  0.00    +0.065 C 
ATOM      4  C   LIG    1       27.773 -14.359   3.762  0.00  0.00    +0.016 C 
ATOM      5  C   LIG    1       28.680 -13.150   3.733  0.00  0.00    +0.061 C 
ATOM      6  N   LIG    1       28.295 -15.453   4.430  0.00  0.00    -0.321 N 
ATOM      7  H   LIG    1       29.272 -15.371   4.707  0.00  0.00    +0.152 HD
ATOM      8  C   LIG    1       27.814 -16.743   4.304  0.00  0.00    +0.016 C 
ATOM      9  C   LIG    1       28.778 -17.811   4.765  0.00  0.00    +0.061 C 
ENDROOT
BRANCH   2  10
ATOM     10  C   LIG    1       24.417 -15.551   4.165  0.00  0.00    +0.042 A 
ATOM     11  C   LIG    1       24.107 -14.475   5.023  0.00  0.00    +0.277 A 
ATOM     12  C   LIG    1       22.882 -14.379   5.722  0.00  0.00    +0.084 A 
ATOM     13  C   LIG    1       21.929 -15.380   5.604  0.00  0.00    +0.007 A 
ATOM     14  C   LIG    1       22.193 -16.461   4.773  0.00  0.00    +0.001 A 
ATOM     15  C   LIG    1       23.403 -16.538   4.057  0.00  0.00    +0.011 A 
BRANCH  11  16
ATOM     16  N   LIG    1       25.015 -13.378   5.283  0.00  0.00    +0.080 N 
ATOM     17  O   LIG    1       26.028 -13.646   5.946  0.00  0.00    -0.576 OA
ATOM     18  O   LIG    1       24.639 -12.246   4.959  0.00  0.00    +0.042 OA
ENDBRANCH  11  16
ENDBRANCH   2  10
BRANCH   1  19
ATOM     19  C   LIG    1       26.114 -18.300   3.323  0.00  0.00    +0.337 C 
ATOM     20  O   LIG    1       25.890 -18.599   2.159  0.00  0.00    -0.245 OA
BRANCH  19  22
ATOM     21  C   LIG    1       25.092 -20.173   4.379  0.00  0.00    +0.280 C 
ATOM     22  O   LIG    1       26.114 -19.171   4.363  0.00  0.00    -0.465 OA
ENDBRANCH  19  22
ENDBRANCH   1  19
BRANCH   3  23
ATOM     23  C   LIG    1       26.049 -13.354   2.304  0.00  0.00    +0.337 C 
ATOM     24  O   LIG    1       26.699 -12.364   1.966  0.00  0.00    -0.245 OA
BRANCH  23  25
ATOM     25  O   LIG    1       24.830 -13.673   1.815  0.00  0.00    -0.465 OA
ATOM     26  C   LIG    1       23.835 -12.644   1.841  0.00  0.00    +0.280 C 
ENDBRANCH  23  25
ENDBRANCH   3  23
TORSDOF 6
ENDMDL
MODEL 2
REMARK VINA RESULT:       1.8      2.194      6.187
REMARK  Name = *****
REMARK                            x       y       z     vdW  Elec       q    Type
REMARK                         _______ _______ _______ _____ _____    ______ ____
ROOT
ATOM      1  C   LIG    1       25.639 -16.153   3.690  0.00  0.00    +0.065 C 
ATOM      2  C   LIG    1       25.886 -17.668   3.495  0.00  0.00    +0.102 C 
ATOM      3  C   LIG    1       24.570 -18.479   3.466  0.00  0.00    +0.065 C 
ATOM      4  C   LIG    1       23.428 -17.929   3.957  0.00  0.00    +0.016 C 
ATOM      5  C   LIG    1       22.078 -18.607   4.026  0.00  0.00    +0.061 C 
ATOM      6  N   LIG    1       23.444 -16.632   4.438  0.00  0.00    -0.321 N 
ATOM      7  H   LIG    1       22.532 -16.234   4.657  0.00  0.00    +0.152 HD
ATOM      8  C   LIG    1       24.449 -15.718   4.176  0.00  0.00    +0.016 C 
ATOM      9  C   LIG    1       24.058 -14.280   4.426  0.00  0.00    +0.061 C 
ENDROOT
BRANCH   2  10
ATOM     10  C   LIG    1       26.964 -18.286   4.427  0.00  0.00    +0.042 A 
ATOM     11  C   LIG    1       26.824 -19.423   5.250  0.00  0.00    +0.277 A 
ATOM     12  C   LIG    1       27.875 -19.923   6.052  0.00  0.00    +0.084 A 
ATOM     13  C   LIG    1       29.103 -19.279   6.078  0.00  0.00    +0.007 A 
ATOM     14  C   LIG    1       29.285 -18.152   5.286  0.00  0.00    +0.001 A 
ATOM     15  C   LIG    1       28.243 -17.674   4.467  0.00  0.00    +0.011 A 
BRANCH  11  16
ATOM     16  N   LIG    1       25.593 -20.176   5.364  0.00  0.00    +0.080 N 
ATOM     17  O   LIG    1       24.710 -19.683   6.079  0.00  0.00    -0.576 OA
ATOM     18  O   LIG    1       25.576 -21.308   4.869  0.00  0.00    +0.042 OA
ENDBRANCH  11  16
ENDBRANCH   2  10
BRANCH   1  19
ATOM     19  C   LIG    1       26.665 -15.229   3.117  0.00  0.00    +0.337 C 
ATOM     20  O   LIG    1       26.592 -14.745   1.997  0.00  0.00    -0.245 OA
BRANCH  19  22
ATOM     21  C   LIG    1       28.042 -13.533   4.063  0.00  0.00    +0.280 C 
ATOM     22  O   LIG    1       27.589 -14.891   4.051  0.00  0.00    -0.465 OA
ENDBRANCH  19  22
ENDBRANCH   1  19
BRANCH   3  23
ATOM     23  C   LIG    1       24.530 -19.792   2.764  0.00  0.00    +0.337 C 
ATOM     24  O   LIG    1       25.495 -20.342   2.231  0.00  0.00    -0.245 OA
BRANCH  23  25
ATOM     25  O   LIG    1       23.310 -20.357   2.908  0.00  0.00    -0.465 OA
ATOM     26  C   LIG    1       23.246 -21.572   3.663  0.00  0.00    +0.280 C 
ENDBRANCH  23  25
ENDBRANCH   3  23
TORSDOF 6
ENDMDL
MODEL 3
REMARK VINA RESULT:       2.7      2.967      6.543
REMARK  Name = *****
REMARK                            x       y       z     vdW  Elec       q    Type
REMARK                         _______ _______ _______ _____ _____    ______ ____
ROOT
ATOM      1  C   LIG    1       25.010 -17.298   3.923  0.00  0.00    +0.065 C 
ATOM      2  C   LIG    1       24.958 -18.844   3.892  0.00  0.00    +0.102 C 
ATOM      3  C   LIG    1       23.512 -19.380   3.782  0.00  0.00    +0.065 C 
ATOM      4  C   LIG    1       22.466 -18.568   4.085  0.00  0.00    +0.016 C 
ATOM      5  C   LIG    1       21.006 -18.957   4.055  0.00  0.00    +0.061 C 
ATOM      6  N   LIG    1       22.703 -17.254   4.449  0.00  0.00    -0.321 N 
ATOM      7  H   LIG    1       21.875 -16.664   4.524  0.00  0.00    +0.152 HD
ATOM      8  C   LIG    1       23.894 -16.588   4.226  0.00  0.00    +0.016 C 
ATOM      9  C   LIG    1       23.786 -15.083   4.302  0.00  0.00    +0.061 C 
ENDROOT
BRANCH   2  10
ATOM     10  C   LIG    1       25.790 -19.553   4.995  0.00  0.00    +0.042 A 
ATOM     11  C   LIG    1       25.295 -20.257   6.113  0.00  0.00    +0.277 A 
ATOM     12  C   LIG    1       26.136 -20.890   7.056  0.00  0.00    +0.084 A 
ATOM     13  C   LIG    1       27.515 -20.816   6.924  0.00  0.00    +0.007 A 
ATOM     14  C   LIG    1       28.048 -20.131   5.840  0.00  0.00    +0.001 A 
ATOM     15  C   LIG    1       27.205 -19.525   4.888  0.00  0.00    +0.011 A 
BRANCH  11  16
ATOM     16  N   LIG    1       23.883 -20.385   6.410  0.00  0.00    +0.080 N 
ATOM     17  O   LIG    1       23.260 -19.329   6.588  0.00  0.00    -0.576 OA
ATOM     18  O   LIG    1       23.450 -21.525   6.610  0.00  0.00    +0.042 OA
ENDBRANCH  11  16
ENDBRANCH   2  10
BRANCH   1  19
ATOM     19  C   LIG    1       26.256 -16.660   3.395  0.00  0.00    +0.337 C 
ATOM     20  O   LIG    1       27.359 -17.185   3.444  0.00  0.00    -0.245 OA
BRANCH  19  22
ATOM     21  C   LIG    1       26.566 -14.306   3.225  0.00  0.00    +0.280 C 
ATOM     22  O   LIG    1       25.971 -15.512   2.733  0.00  0.00    -0.465 OA
ENDBRANCH  19  22
ENDBRANCH   1  19
BRANCH   3  23
ATOM     23  C   LIG    1       23.271 -20.730   3.198  0.00  0.00    +0.337 C 
ATOM     24  O   LIG    1       23.553 -21.066   2.047  0.00  0.00    -0.245 OA
BRANCH  23  25
ATOM     25  O   LIG    1       22.818 -21.572   4.153  0.00  0.00    -0.465 OA
ATOM     26  C   LIG    1       21.409 -21.562   4.406  0.00  0.00    +0.280 C 
ENDBRANCH  23  25
ENDBRANCH   3  23
TORSDOF 6
ENDMDL
