MODEL 1
REMARK VINA RESULT:      -7.5      0.000      0.000
REMARK  Name = *****
REMARK                            x       y       z     vdW  Elec       q    Type
REMARK                         _______ _______ _______ _____ _____    ______ ____
ROOT
ATOM      1  N   LIG    1       27.523 -20.790   7.105  0.00  0.00    -0.288 N 
ATOM      2  C   LIG    1       26.532 -20.809   6.143  0.00  0.00    +0.162 A 
ATOM      3  N   LIG    1       26.558 -19.935   5.109  0.00  0.00    -0.221 NA
ATOM      4  C   LIG    1       25.552 -19.839   4.307  0.00  0.00    +0.183 C 
ATOM      5  N   LIG    1       24.326 -20.449   4.215  0.00  0.00    -0.332 N 
ATOM      6  H   LIG    1       23.680 -20.016   3.561  0.00  0.00    +0.147 HD
ATOM      7  C   LIG    1       23.650 -21.109   5.334  0.00  0.00    +0.140 C 
ATOM      8  C   LIG    1       24.452 -22.303   5.881  0.00  0.00    +0.183 C 
ATOM      9  C   LIG    1       25.698 -21.839   6.550  0.00  0.00    +0.115 A 
ATOM     10  N   LIG    1       26.141 -22.414   7.722  0.00  0.00    -0.236 NA
ATOM     11  C   LIG    1       27.245 -21.767   8.017  0.00  0.00    +0.203 A 
ENDROOT
BRANCH   1  15
ATOM     12  C4* LIG    1       30.857 -20.335   7.862  0.00  0.00    +0.175 C 
ATOM     13  C3* LIG    1       30.372 -19.043   8.507  0.00  0.00    +0.150 C 
ATOM     14  C2* LIG    1       28.871 -19.118   8.390  0.00  0.00    +0.088 C 
ATOM     15  C1* LIG    1       28.672 -19.901   7.098  0.00  0.00    +0.225 C 
ATOM     16  O4* LIG    1       29.889 -20.644   6.834  0.00  0.00    -0.348 OA
BRANCH  13  17
ATOM     17  O3* LIG    1       30.840 -17.911   7.760  0.00  0.00    -0.389 OA
ATOM     18  H3* LIG    1       31.810 -17.863   7.846  0.00  0.00    +0.210 HD
ENDBRANCH  13  17
BRANCH  12  19
ATOM     19  C5* LIG    1       30.980 -21.519   8.829  0.00  0.00    +0.190 C 
BRANCH  19  20
ATOM     20  O5* LIG    1       32.218 -21.507   9.529  0.00  0.00    -0.392 OA
ATOM     21  H5* LIG    1       32.052 -21.120  10.408  0.00  0.00    +0.209 HD
ENDBRANCH  19  20
ENDBRANCH  12  19
ENDBRANCH   1  15
BRANCH   8  22
ATOM     22  O   LIG    1       24.724 -23.216   4.806  0.00  0.00    -0.384 OA
ATOM     23  H   LIG    1       25.535 -23.682   5.083  0.00  0.00    +0.210 HD
ENDBRANCH   8  22
TORSDOF 5
ENDMDL
MODEL 2
REMARK VINA RESULT:      -6.9      1.557      2.811
REMARK  Name = *****
REMARK                            x       y       z     vdW  Elec       q    Type
REMARK                         _______ _______ _______ _____ _____    ______ ____
ROOT
ATOM      1  N   LIG    1       27.923 -20.464   7.022  0.00  0.00    -0.288 N 
ATOM      2  C   LIG    1       26.680 -21.039   6.844  0.00  0.00    +0.162 A 
ATOM      3  N   LIG    1       26.175 -21.890   7.767  0.00  0.00    -0.221 NA
ATOM      4  C   LIG    1       25.095 -22.554   7.525  0.00  0.00    +0.183 C 
ATOM      5  N   LIG    1       24.231 -22.642   6.461  0.00  0.00    -0.332 N 
ATOM      6  H   LIG    1       23.561 -23.404   6.516  0.00  0.00    +0.147 HD
ATOM      7  C   LIG    1       24.583 -22.287   5.085  0.00  0.00    +0.140 C 
ATOM      8  C   LIG    1       24.962 -20.803   4.940  0.00  0.00    +0.183 C 
ATOM      9  C   LIG    1       26.248 -20.518   5.633  0.00  0.00    +0.115 A 
ATOM     10  N   LIG    1       27.192 -19.679   5.079  0.00  0.00    -0.236 NA
ATOM     11  C   LIG    1       28.177 -19.662   5.947  0.00  0.00    +0.203 A 
ENDROOT
BRANCH   1  15
ATOM     12  C4* LIG    1       30.750 -19.522   8.760  0.00  0.00    +0.175 C 
ATOM     13  C3* LIG    1       31.033 -21.019   8.800  0.00  0.00    +0.150 C 
ATOM     14  C2* LIG    1       29.940 -21.619   7.954  0.00  0.00    +0.088 C 
ATOM     15  C1* LIG    1       28.773 -20.665   8.183  0.00  0.00    +0.225 C 
ATOM     16  O4* LIG    1       29.314 -19.400   8.643  0.00  0.00    -0.348 OA
BRANCH  13  17
ATOM     17  O3* LIG    1       30.906 -21.510  10.142  0.00  0.00    -0.389 OA
ATOM     18  H3* LIG    1       31.019 -20.763  10.757  0.00  0.00    +0.210 HD
ENDBRANCH  13  17
BRANCH  12  19
ATOM     19  C5* LIG    1       31.428 -18.779   7.602  0.00  0.00    +0.190 C 
BRANCH  19  20
ATOM     20  O5* LIG    1       32.177 -17.659   8.056  0.00  0.00    -0.392 OA
ATOM     21  H5* LIG    1       32.804 -17.982   8.728  0.00  0.00    +0.209 HD
ENDBRANCH  19  20
ENDBRANCH  12  19
ENDBRANCH   1  15
BRANCH   8  22
ATOM     22  O   LIG    1       23.888 -19.994   5.443  0.00  0.00    -0.384 OA
ATOM     23  H   LIG    1       24.319 -19.167   5.728  0.00  0.00    +0.210 HD
ENDBRANCH   8  22
TORSDOF 5
ENDMDL
MODEL 3
REMARK VINA RESULT:      -6.9      1.659      1.845
REMARK  Name = *****
REMARK                            x       y       z     vdW  Elec       q    Type
REMARK                         _______ _______ _______ _____ _____    ______ ____
ROOT
ATOM      1  N   LIG    1       26.995 -20.524   7.411  0.00  0.00    -0.288 N 
ATOM      2  C   LIG    1       25.944 -20.635   6.523  0.00  0.00    +0.162 A 
ATOM      3  N   LIG    1       26.164 -20.626   5.188  0.00  0.00    -0.221 NA
ATOM      4  C   LIG    1       25.176 -20.561   4.360  0.00  0.00    +0.183 C 
ATOM      5  N   LIG    1       23.811 -20.483   4.487  0.00  0.00    -0.332 N 
ATOM      6  H   LIG    1       23.313 -20.263   3.630  0.00  0.00    +0.147 HD
ATOM      7  C   LIG    1       23.123 -20.004   5.688  0.00  0.00    +0.140 C 
ATOM      8  C   LIG    1       23.411 -20.881   6.919  0.00  0.00    +0.183 C 
ATOM      9  C   LIG    1       24.831 -20.742   7.344  0.00  0.00    +0.115 A 
ATOM     10  N   LIG    1       25.178 -20.677   8.676  0.00  0.00    -0.236 NA
ATOM     11  C   LIG    1       26.486 -20.558   8.677  0.00  0.00    +0.203 A 
ENDROOT
BRANCH   1  15
ATOM     12  C4* LIG    1       30.175 -19.489   8.256  0.00  0.00    +0.175 C 
ATOM     13  C3* LIG    1       30.178 -18.878   6.860  0.00  0.00    +0.150 C 
ATOM     14  C2* LIG    1       28.779 -19.119   6.355  0.00  0.00    +0.088 C 
ATOM     15  C1* LIG    1       28.395 -20.429   7.034  0.00  0.00    +0.225 C 
ATOM     16  O4* LIG    1       29.248 -20.596   8.195  0.00  0.00    -0.348 OA
BRANCH  13  17
ATOM     17  O3* LIG    1       31.105 -19.577   6.017  0.00  0.00    -0.389 OA
ATOM     18  H3* LIG    1       31.403 -20.379   6.482  0.00  0.00    +0.210 HD
ENDBRANCH  13  17
BRANCH  12  19
ATOM     19  C5* LIG    1       29.754 -18.523   9.370  0.00  0.00    +0.190 C 
BRANCH  19  20
ATOM     20  O5* LIG    1       30.580 -18.648  10.522  0.00  0.00    -0.392 OA
ATOM     21  H5* LIG    1       30.875 -19.575  10.568  0.00  0.00    +0.209 HD
ENDBRANCH  19  20
ENDBRANCH  12  19
ENDBRANCH   1  15
BRANCH   8  22
ATOM     22  O   LIG    1       23.070 -22.242   6.614  0.00  0.00    -0.384 OA
ATOM     23  H   LIG    1       23.359 -22.746   7.397  0.00  0.00    +0.210 HD
ENDBRANCH   8  22
TORSDOF 5
ENDMDL
MODEL 4
REMARK VINA RESULT:      -6.8      1.728      3.054
REMARK  Name = *****
REMARK                            x       y       z     vdW  Elec       q    Type
REMARK                         _______ _______ _______ _____ _____    ______ ____
ROOT
ATOM      1  N   LIG    1       28.458 -20.311   6.895  0.00  0.00    -0.288 N 
ATOM      2  C   LIG    1       27.272 -21.014   6.969  0.00  0.00    +0.162 A 
ATOM      3  N   LIG    1       27.064 -21.914   7.959  0.00  0.00    -0.221 NA
ATOM      4  C   LIG    1       26.032 -22.688   7.934  0.00  0.00    +0.183 C 
ATOM      5  N   LIG    1       24.976 -22.867   7.075  0.00  0.00    -0.332 N 
ATOM      6  H   LIG    1       24.415 -23.695   7.252  0.00  0.00    +0.147 HD
ATOM      7  C   LIG    1       24.990 -22.476   5.663  0.00  0.00    +0.140 C 
ATOM      8  C   LIG    1       25.175 -20.961   5.476  0.00  0.00    +0.183 C 
ATOM      9  C   LIG    1       26.542 -20.542   5.889  0.00  0.00    +0.115 A 
ATOM     10  N   LIG    1       27.255 -19.608   5.168  0.00  0.00    -0.236 NA
ATOM     11  C   LIG    1       28.395 -19.486   5.809  0.00  0.00    +0.203 A 
ENDROOT
BRANCH   1  15
ATOM     12  C4* LIG    1       30.437 -18.754   9.253  0.00  0.00    +0.175 C 
ATOM     13  C3* LIG    1       31.586 -19.385   8.476  0.00  0.00    +0.150 C 
ATOM     14  C2* LIG    1       30.914 -20.027   7.290  0.00  0.00    +0.088 C 
ATOM     15  C1* LIG    1       29.551 -20.422   7.846  0.00  0.00    +0.225 C 
ATOM     16  O4* LIG    1       29.292 -19.605   9.016  0.00  0.00    -0.348 OA
BRANCH  13  17
ATOM     17  O3* LIG    1       32.213 -20.405   9.265  0.00  0.00    -0.389 OA
ATOM     18  H3* LIG    1       33.149 -20.167   9.392  0.00  0.00    +0.210 HD
ENDBRANCH  13  17
BRANCH  12  19
ATOM     19  C5* LIG    1       30.104 -17.315   8.836  0.00  0.00    +0.190 C 
BRANCH  19  20
ATOM     20  O5* LIG    1       30.140 -16.421   9.942  0.00  0.00    -0.392 OA
ATOM     21  H5* LIG    1       29.283 -16.491  10.400  0.00  0.00    +0.209 HD
ENDBRANCH  19  20
ENDBRANCH  12  19
ENDBRANCH   1  15
BRANCH   8  22
ATOM     22  O   LIG    1       24.153 -20.269   6.213  0.00  0.00    -0.384 OA
ATOM     23  H   LIG    1       24.290 -19.329   5.994  0.00  0.00    +0.210 HD
ENDBRANCH   8  22
TORSDOF 5
ENDMDL
MODEL 5
REMARK VINA RESULT:      -6.7      4.252      6.691
REMARK  Name = *****
REMARK                            x       y       z     vdW  Elec       q    Type
REMARK                         _______ _______ _______ _____ _____    ______ ____
ROOT
ATOM      1  N   LIG    1       24.508 -24.400   6.045  0.00  0.00    -0.288 N 
ATOM      2  C   LIG    1       24.803 -23.087   6.353  0.00  0.00    +0.162 A 
ATOM      3  N   LIG    1       26.031 -22.577   6.101  0.00  0.00    -0.221 NA
ATOM      4  C   LIG    1       26.359 -21.409   6.538  0.00  0.00    +0.183 C 
ATOM      5  N   LIG    1       25.727 -20.440   7.278  0.00  0.00    -0.332 N 
ATOM      6  H   LIG    1       26.330 -19.693   7.610  0.00  0.00    +0.147 HD
ATOM      7  C   LIG    1       24.589 -20.694   8.164  0.00  0.00    +0.140 C 
ATOM      8  C   LIG    1       23.362 -21.229   7.405  0.00  0.00    +0.183 C 
ATOM      9  C   LIG    1       23.619 -22.602   6.891  0.00  0.00    +0.115 A 
ATOM     10  N   LIG    1       22.648 -23.579   6.933  0.00  0.00    -0.236 NA
ATOM     11  C   LIG    1       23.214 -24.640   6.406  0.00  0.00    +0.203 A 
ENDROOT
BRANCH   1  15
ATOM     12  C4* LIG    1       25.170 -27.652   5.103  0.00  0.00    +0.175 C 
ATOM     13  C3* LIG    1       26.521 -27.401   5.761  0.00  0.00    +0.150 C 
ATOM     14  C2* LIG    1       26.381 -26.029   6.369  0.00  0.00    +0.088 C 
ATOM     15  C1* LIG    1       25.425 -25.331   5.410  0.00  0.00    +0.225 C 
ATOM     16  O4* LIG    1       24.693 -26.352   4.686  0.00  0.00    -0.348 OA
BRANCH  13  17
ATOM     17  O3* LIG    1       27.555 -27.368   4.768  0.00  0.00    -0.389 OA
ATOM     18  H3* LIG    1       27.168 -27.066   3.927  0.00  0.00    +0.210 HD
ENDBRANCH  13  17
BRANCH  12  19
ATOM     19  C5* LIG    1       24.131 -28.313   6.018  0.00  0.00    +0.190 C 
BRANCH  19  20
ATOM     20  O5* LIG    1       23.327 -29.253   5.316  0.00  0.00    -0.392 OA
ATOM     21  H5* LIG    1       23.928 -29.896   4.899  0.00  0.00    +0.209 HD
ENDBRANCH  19  20
ENDBRANCH  12  19
ENDBRANCH   1  15
BRANCH   8  22
ATOM     22  O   LIG    1       23.026 -20.312   6.352  0.00  0.00    -0.384 OA
ATOM     23  H   LIG    1       23.315 -19.443   6.685  0.00  0.00    +0.210 HD
ENDBRANCH   8  22
TORSDOF 5
ENDMDL
MODEL 6
REMARK VINA RESULT:      -6.4      1.930      6.060
REMARK  Name = *****
REMARK                            x       y       z     vdW  Elec       q    Type
REMARK                         _______ _______ _______ _____ _____    ______ ____
ROOT
ATOM      1  N   LIG    1       26.523 -20.731   6.958  0.00  0.00    -0.288 N 
ATOM      2  C   LIG    1       27.727 -20.068   6.824  0.00  0.00    +0.162 A 
ATOM      3  N   LIG    1       27.913 -19.170   5.828  0.00  0.00    -0.221 NA
ATOM      4  C   LIG    1       29.083 -18.677   5.601  0.00  0.00    +0.183 C 
ATOM      5  N   LIG    1       30.328 -18.843   6.156  0.00  0.00    -0.332 N 
ATOM      6  H   LIG    1       31.092 -18.435   5.624  0.00  0.00    +0.147 HD
ATOM      7  C   LIG    1       30.733 -20.019   6.930  0.00  0.00    +0.140 C 
ATOM      8  C   LIG    1       29.895 -20.197   8.207  0.00  0.00    +0.183 C 
ATOM      9  C   LIG    1       28.492 -20.562   7.870  0.00  0.00    +0.115 A 
ATOM     10  N   LIG    1       27.799 -21.503   8.602  0.00  0.00    -0.236 NA
ATOM     11  C   LIG    1       26.618 -21.569   8.032  0.00  0.00    +0.203 A 
ENDROOT
BRANCH   1  15
ATOM     12  C4* LIG    1       23.280 -21.623   6.193  0.00  0.00    +0.175 C 
ATOM     13  C3* LIG    1       23.803 -21.692   4.764  0.00  0.00    +0.150 C 
ATOM     14  C2* LIG    1       25.283 -21.451   4.905  0.00  0.00    +0.088 C 
ATOM     15  C1* LIG    1       25.361 -20.523   6.112  0.00  0.00    +0.225 C 
ATOM     16  O4* LIG    1       24.139 -20.683   6.877  0.00  0.00    -0.348 OA
BRANCH  13  17
ATOM     17  O3* LIG    1       23.232 -20.638   3.977  0.00  0.00    -0.389 OA
ATOM     18  H3* LIG    1       22.414 -20.335   4.412  0.00  0.00    +0.210 HD
ENDBRANCH  13  17
BRANCH  12  19
ATOM     19  C5* LIG    1       23.288 -22.965   6.937  0.00  0.00    +0.190 C 
BRANCH  19  20
ATOM     20  O5* LIG    1       22.154 -23.760   6.610  0.00  0.00    -0.392 OA
ATOM     21  H5* LIG    1       21.729 -24.017   7.448  0.00  0.00    +0.209 HD
ENDBRANCH  19  20
ENDBRANCH  12  19
ENDBRANCH   1  15
BRANCH   8  22
ATOM     22  O   LIG    1       29.967 -18.992   8.987  0.00  0.00    -0.384 OA
ATOM     23  H   LIG    1       29.691 -18.288   8.372  0.00  0.00    +0.210 HD
ENDBRANCH   8  22
TORSDOF 5
ENDMDL
MODEL 7
REMARK VINA RESULT:      -6.2      2.056      6.281
REMARK  Name = *****
REMARK                            x       y       z     vdW  Elec       q    Type
REMARK                         _______ _______ _______ _____ _____    ______ ____
ROOT
ATOM      1  N   LIG    1       27.827 -20.320   6.670  0.00  0.00    -0.288 N 
ATOM      2  C   LIG    1       29.018 -20.413   7.362  0.00  0.00    +0.162 A 
ATOM      3  N   LIG    1       29.208 -21.387   8.282  0.00  0.00    -0.221 NA
ATOM      4  C   LIG    1       30.248 -21.375   9.045  0.00  0.00    +0.183 C 
ATOM      5  N   LIG    1       31.331 -20.543   9.192  0.00  0.00    -0.332 N 
ATOM      6  H   LIG    1       31.896 -20.718  10.018  0.00  0.00    +0.147 HD
ATOM      7  C   LIG    1       31.353 -19.141   8.769  0.00  0.00    +0.140 C 
ATOM      8  C   LIG    1       31.157 -18.983   7.252  0.00  0.00    +0.183 C 
ATOM      9  C   LIG    1       29.774 -19.365   6.857  0.00  0.00    +0.115 A 
ATOM     10  N   LIG    1       29.072 -18.645   5.914  0.00  0.00    -0.236 NA
ATOM     11  C   LIG    1       27.913 -19.255   5.820  0.00  0.00    +0.203 A 
ENDROOT
BRANCH   1  15
ATOM     12  C4* LIG    1       24.766 -21.387   5.490  0.00  0.00    +0.175 C 
ATOM     13  C3* LIG    1       24.344 -21.282   6.950  0.00  0.00    +0.150 C 
ATOM     14  C2* LIG    1       25.547 -20.689   7.636  0.00  0.00    +0.088 C 
ATOM     15  C1* LIG    1       26.708 -21.235   6.814  0.00  0.00    +0.225 C 
ATOM     16  O4* LIG    1       26.193 -21.618   5.514  0.00  0.00    -0.348 OA
BRANCH  13  17
ATOM     17  O3* LIG    1       24.098 -22.589   7.488  0.00  0.00    -0.389 OA
ATOM     18  H3* LIG    1       24.666 -22.715   8.270  0.00  0.00    +0.210 HD
ENDBRANCH  13  17
BRANCH  12  19
ATOM     19  C5* LIG    1       24.459 -20.141   4.650  0.00  0.00    +0.190 C 
BRANCH  19  20
ATOM     20  O5* LIG    1       25.373 -19.990   3.570  0.00  0.00    -0.392 OA
ATOM     21  H5* LIG    1       26.230 -19.726   3.950  0.00  0.00    +0.209 HD
ENDBRANCH  19  20
ENDBRANCH  12  19
ENDBRANCH   1  15
BRANCH   8  22
ATOM     22  O   LIG    1       32.149 -19.765   6.567  0.00  0.00    -0.384 OA
ATOM     23  H   LIG    1       32.978 -19.266   6.689  0.00  0.00    +0.210 HD
ENDBRANCH   8  22
TORSDOF 5
ENDMDL
MODEL 8
REMARK VINA RESULT:      -6.1      5.233      7.986
REMARK  Name = *****
REMARK                            x       y       z     vdW  Elec       q    Type
REMARK                         _______ _______ _______ _____ _____    ______ ____
ROOT
ATOM      1  N   LIG    1       25.145 -26.659   6.115  0.00  0.00    -0.288 N 
ATOM      2  C   LIG    1       24.647 -25.392   6.347  0.00  0.00    +0.162 A 
ATOM      3  N   LIG    1       23.321 -25.197   6.544  0.00  0.00    -0.221 NA
ATOM      4  C   LIG    1       22.834 -24.004   6.594  0.00  0.00    +0.183 C 
ATOM      5  N   LIG    1       23.358 -22.739   6.481  0.00  0.00    -0.332 N 
ATOM      6  H   LIG    1       22.670 -21.998   6.388  0.00  0.00    +0.147 HD
ATOM      7  C   LIG    1       24.626 -22.431   5.817  0.00  0.00    +0.140 C 
ATOM      8  C   LIG    1       25.826 -23.108   6.500  0.00  0.00    +0.183 C 
ATOM      9  C   LIG    1       25.773 -24.584   6.315  0.00  0.00    +0.115 A 
ATOM     10  N   LIG    1       26.911 -25.316   6.053  0.00  0.00    -0.236 NA
ATOM     11  C   LIG    1       26.497 -26.558   5.951  0.00  0.00    +0.203 A 
ENDROOT
BRANCH   1  15
ATOM     12  C4* LIG    1       24.547 -29.770   7.479  0.00  0.00    +0.175 C 
ATOM     13  C3* LIG    1       24.554 -30.234   6.028  0.00  0.00    +0.150 C 
ATOM     14  C2* LIG    1       24.939 -29.000   5.253  0.00  0.00    +0.088 C 
ATOM     15  C1* LIG    1       24.350 -27.874   6.096  0.00  0.00    +0.225 C 
ATOM     16  O4* LIG    1       24.157 -28.378   7.442  0.00  0.00    -0.348 OA
BRANCH  13  17
ATOM     17  O3* LIG    1       23.236 -30.639   5.634  0.00  0.00    -0.389 OA
ATOM     18  H3* LIG    1       23.134 -30.477   4.678  0.00  0.00    +0.210 HD
ENDBRANCH  13  17
BRANCH  12  19
ATOM     19  C5* LIG    1       25.897 -29.908   8.196  0.00  0.00    +0.190 C 
BRANCH  19  20
ATOM     20  O5* LIG    1       26.358 -28.663   8.705  0.00  0.00    -0.392 OA
ATOM     21  H5* LIG    1       26.752 -28.834   9.579  0.00  0.00    +0.209 HD
ENDBRANCH  19  20
ENDBRANCH  12  19
ENDBRANCH   1  15
BRANCH   8  22
ATOM     22  O   LIG    1       25.846 -22.738   7.888  0.00  0.00    -0.384 OA
ATOM     23  H   LIG    1       25.642 -23.565   8.363  0.00  0.00    +0.210 HD
ENDBRANCH   8  22
TORSDOF 5
ENDMDL
MODEL 9
REMARK VINA RESULT:      -6.1      4.904      6.316
REMARK  Name = *****
REMARK                            x       y       z     vdW  Elec       q    Type
REMARK                         _______ _______ _______ _____ _____    ______ ____
ROOT
ATOM      1  N   LIG    1       24.403 -24.138   5.942  0.00  0.00    -0.288 N 
ATOM      2  C   LIG    1       24.192 -22.838   5.528  0.00  0.00    +0.162 A 
ATOM      3  N   LIG    1       25.117 -22.193   4.778  0.00  0.00    -0.221 NA
ATOM      4  C   LIG    1       25.000 -20.932   4.533  0.00  0.00    +0.183 C 
ATOM      5  N   LIG    1       24.091 -19.961   4.873  0.00  0.00    -0.332 N 
ATOM      6  H   LIG    1       24.382 -19.010   4.666  0.00  0.00    +0.147 HD
ATOM      7  C   LIG    1       23.190 -20.045   6.025  0.00  0.00    +0.140 C 
ATOM      8  C   LIG    1       22.218 -21.233   5.924  0.00  0.00    +0.183 C 
ATOM      9  C   LIG    1       22.948 -22.523   6.054  0.00  0.00    +0.115 A 
ATOM     10  N   LIG    1       22.426 -23.574   6.777  0.00  0.00    -0.236 NA
ATOM     11  C   LIG    1       23.322 -24.529   6.677  0.00  0.00    +0.203 A 
ENDROOT
BRANCH   1  15
ATOM     12  C4* LIG    1       25.641 -27.202   4.952  0.00  0.00    +0.175 C 
ATOM     13  C3* LIG    1       26.618 -27.003   6.104  0.00  0.00    +0.150 C 
ATOM     14  C2* LIG    1       26.146 -25.735   6.767  0.00  0.00    +0.088 C 
ATOM     15  C1* LIG    1       25.566 -24.940   5.603  0.00  0.00    +0.225 C 
ATOM     16  O4* LIG    1       25.249 -25.873   4.539  0.00  0.00    -0.348 OA
BRANCH  13  17
ATOM     17  O3* LIG    1       27.944 -26.797   5.596  0.00  0.00    -0.389 OA
ATOM     18  H3* LIG    1       28.454 -27.618   5.719  0.00  0.00    +0.210 HD
ENDBRANCH  13  17
BRANCH  12  19
ATOM     19  C5* LIG    1       24.394 -28.019   5.313  0.00  0.00    +0.190 C 
BRANCH  19  20
ATOM     20  O5* LIG    1       24.499 -29.369   4.877  0.00  0.00    -0.392 OA
ATOM     21  H5* LIG    1       24.033 -29.922   5.529  0.00  0.00    +0.209 HD
ENDBRANCH  19  20
ENDBRANCH  12  19
ENDBRANCH   1  15
BRANCH   8  22
ATOM     22  O   LIG    1       21.496 -21.144   4.686  0.00  0.00    -0.384 OA
ATOM     23  H   LIG    1       20.986 -20.315   4.760  0.00  0.00    +0.210 HD
ENDBRANCH   8  22
TORSDOF 5
ENDMDL
