MODEL 1
REMARK VINA RESULT:      -5.4      0.000      0.000
REMARK  Name = *****
REMARK                            x       y       z     vdW  Elec       q    Type
REMARK                         _______ _______ _______ _____ _____    ______ ____
ROOT
ATOM      1  C   LIG    1       31.023 -19.544   7.721  0.00  0.00    +0.147 C 
ATOM      2  O   LIG    1       31.885 -19.521   6.835  0.00  0.00    -0.296 OA
ENDROOT
BRANCH   1   3
ATOM      3  C   LIG    1       30.861 -20.755   8.622  0.00  0.00    +0.152 C 
BRANCH   3   4
ATOM      4  N   LIG    1       32.117 -21.031   9.317  0.00  0.00    -0.324 NA
ATOM      5  H   LIG    1       32.081 -21.973   9.718  0.00  0.00    +0.119 HD
ATOM      6  H   LIG    1       32.874 -21.063   8.634  0.00  0.00    +0.119 HD
ENDBRANCH   3   4
ENDBRANCH   1   3
BRANCH   1   7
ATOM      7  C   LIG    1       30.065 -18.383   7.913  0.00  0.00    +0.086 C 
BRANCH   7   8
ATOM      8  C   LIG    1       30.358 -17.586   9.181  0.00  0.00    +0.128 C 
BRANCH   8   9
ATOM      9  C   LIG    1       31.829 -17.357   9.433  0.00  0.00    +0.305 C 
ATOM     10  O   LIG    1       32.468 -17.979  10.277  0.00  0.00    -0.251 OA
BRANCH   9  11
ATOM     11  O   LIG    1       32.417 -16.451   8.630  0.00  0.00    -0.481 OA
ATOM     12  H   LIG    1       33.253 -16.770   8.206  0.00  0.00    +0.295 HD
ENDBRANCH   9  11
ENDBRANCH   8   9
ENDBRANCH   7   8
ENDBRANCH   1   7
TORSDOF 6
ENDMDL
MODEL 2
REMARK VINA RESULT:      -5.3      1.423      1.493
REMARK  Name = *****
REMARK                            x       y       z     vdW  Elec       q    Type
REMARK                         _______ _______ _______ _____ _____    ______ ____
ROOT
ATOM      1  C   LIG    1       30.969 -19.856   7.978  0.00  0.00    +0.147 C 
ATOM      2  O   LIG    1       31.761 -19.685   7.044  0.00  0.00    -0.296 OA
ENDROOT
BRANCH   1   3
ATOM      3  C   LIG    1       30.873 -21.196   8.685  0.00  0.00    +0.152 C 
BRANCH   3   4
ATOM      4  N   LIG    1       32.098 -21.451   9.441  0.00  0.00    -0.324 NA
ATOM      5  H   LIG    1       32.908 -21.240   8.851  0.00  0.00    +0.119 HD
ATOM      6  H   LIG    1       32.154 -20.788  10.214  0.00  0.00    +0.119 HD
ENDBRANCH   3   4
ENDBRANCH   1   3
BRANCH   1   7
ATOM      7  C   LIG    1       30.032 -18.749   8.424  0.00  0.00    +0.086 C 
BRANCH   7   8
ATOM      8  C   LIG    1       30.765 -17.609   9.125  0.00  0.00    +0.128 C 
BRANCH   8   9
ATOM      9  C   LIG    1       30.531 -17.555  10.616  0.00  0.00    +0.305 C 
ATOM     10  O   LIG    1       30.689 -18.524  11.353  0.00  0.00    -0.251 OA
BRANCH   9  11
ATOM     11  O   LIG    1       30.185 -16.348  11.102  0.00  0.00    -0.481 OA
ATOM     12  H   LIG    1       29.344 -15.988  10.724  0.00  0.00    +0.295 HD
ENDBRANCH   9  11
ENDBRANCH   8   9
ENDBRANCH   7   8
ENDBRANCH   1   7
TORSDOF 6
ENDMDL
MODEL 3
REMARK VINA RESULT:      -5.2      1.399      1.659
REMARK  Name = *****
REMARK                            x       y       z     vdW  Elec       q    Type
REMARK                         _______ _______ _______ _____ _____    ______ ____
ROOT
ATOM      1  C   LIG    1       30.100 -20.929   8.302  0.00  0.00    +0.147 C 
ATOM      2  O   LIG    1       28.863 -20.931   8.289  0.00  0.00    -0.296 OA
ENDROOT
BRANCH   1   3
ATOM      3  C   LIG    1       30.874 -21.937   9.132  0.00  0.00    +0.152 C 
BRANCH   3   4
ATOM      4  N   LIG    1       32.230 -21.449   9.375  0.00  0.00    -0.324 NA
ATOM      5  H   LIG    1       32.672 -22.024  10.097  0.00  0.00    +0.119 HD
ATOM      6  H   LIG    1       32.791 -21.598   8.537  0.00  0.00    +0.119 HD
ENDBRANCH   3   4
ENDBRANCH   1   3
BRANCH   1   7
ATOM      7  C   LIG    1       30.891 -19.890   7.528  0.00  0.00    +0.086 C 
BRANCH   7   8
ATOM      8  C   LIG    1       30.651 -18.472   8.038  0.00  0.00    +0.128 C 
BRANCH   8   9
ATOM      9  C   LIG    1       31.760 -17.940   8.914  0.00  0.00    +0.305 C 
ATOM     10  O   LIG    1       32.107 -18.485   9.958  0.00  0.00    -0.251 OA
BRANCH   9  11
ATOM     11  O   LIG    1       32.389 -16.846   8.446  0.00  0.00    -0.481 OA
ATOM     12  H   LIG    1       32.371 -16.075   9.067  0.00  0.00    +0.295 HD
ENDBRANCH   9  11
ENDBRANCH   8   9
ENDBRANCH   7   8
ENDBRANCH   1   7
TORSDOF 6
ENDMDL
MODEL 4
REMARK VINA RESULT:      -5.1      2.190      3.477
REMARK  Name = *****
REMARK                            x       y       z     vdW  Elec       q    Type
REMARK                         _______ _______ _______ _____ _____    ______ ____
ROOT
ATOM      1  C   LIG    1       31.254 -19.085   7.813  0.00  0.00    +0.147 C 
ATOM      2  O   LIG    1       31.862 -19.457   6.803  0.00  0.00    -0.296 OA
ENDROOT
BRANCH   1   3
ATOM      3  C   LIG    1       31.794 -17.963   8.682  0.00  0.00    +0.152 C 
BRANCH   3   4
ATOM      4  N   LIG    1       31.895 -18.410  10.070  0.00  0.00    -0.324 NA
ATOM      5  H   LIG    1       32.653 -19.093  10.150  0.00  0.00    +0.119 HD
ATOM      6  H   LIG    1       32.183 -17.624  10.651  0.00  0.00    +0.119 HD
ENDBRANCH   3   4
ENDBRANCH   1   3
BRANCH   1   7
ATOM      7  C   LIG    1       29.969 -19.765   8.250  0.00  0.00    +0.086 C 
BRANCH   7   8
ATOM      8  C   LIG    1       30.056 -21.286   8.167  0.00  0.00    +0.128 C 
BRANCH   8   9
ATOM      9  C   LIG    1       31.032 -21.898   9.145  0.00  0.00    +0.305 C 
ATOM     10  O   LIG    1       30.805 -21.989  10.348  0.00  0.00    -0.251 OA
BRANCH   9  11
ATOM     11  O   LIG    1       32.161 -22.390   8.601  0.00  0.00    -0.481 OA
ATOM     12  H   LIG    1       32.988 -22.119   9.074  0.00  0.00    +0.295 HD
ENDBRANCH   9  11
ENDBRANCH   8   9
ENDBRANCH   7   8
ENDBRANCH   1   7
TORSDOF 6
ENDMDL
MODEL 5
REMARK VINA RESULT:      -5.1      2.474      3.888
REMARK  Name = *****
REMARK                            x       y       z     vdW  Elec       q    Type
REMARK                         _______ _______ _______ _____ _____    ______ ____
ROOT
ATOM      1  C   LIG    1       30.832 -17.169   9.961  0.00  0.00    +0.147 C 
ATOM      2  O   LIG    1       30.208 -16.550  10.831  0.00  0.00    -0.296 OA
ENDROOT
BRANCH   1   3
ATOM      3  C   LIG    1       32.337 -17.020   9.824  0.00  0.00    +0.152 C 
BRANCH   3   4
ATOM      4  N   LIG    1       32.650 -15.863   8.986  0.00  0.00    -0.324 NA
ATOM      5  H   LIG    1       33.592 -15.971   8.601  0.00  0.00    +0.119 HD
ATOM      6  H   LIG    1       32.030 -15.864   8.176  0.00  0.00    +0.119 HD
ENDBRANCH   3   4
ENDBRANCH   1   3
BRANCH   1   7
ATOM      7  C   LIG    1       30.114 -18.063   8.967  0.00  0.00    +0.086 C 
BRANCH   7   8
ATOM      8  C   LIG    1       31.064 -19.009   8.239  0.00  0.00    +0.128 C 
BRANCH   8   9
ATOM      9  C   LIG    1       31.059 -20.419   8.782  0.00  0.00    +0.305 C 
ATOM     10  O   LIG    1       30.085 -21.162   8.705  0.00  0.00    -0.251 OA
BRANCH   9  11
ATOM     11  O   LIG    1       32.223 -20.835   9.316  0.00  0.00    -0.481 OA
ATOM     12  H   LIG    1       32.586 -20.230  10.011  0.00  0.00    +0.295 HD
ENDBRANCH   9  11
ENDBRANCH   8   9
ENDBRANCH   7   8
ENDBRANCH   1   7
TORSDOF 6
ENDMDL
MODEL 6
REMARK VINA RESULT:      -5.1      2.212      3.641
REMARK  Name = *****
REMARK                            x       y       z     vdW  Elec       q    Type
REMARK                         _______ _______ _______ _____ _____    ______ ____
ROOT
ATOM      1  C   LIG    1       31.140 -17.572  10.372  0.00  0.00    +0.147 C 
ATOM      2  O   LIG    1       30.853 -18.204  11.396  0.00  0.00    -0.296 OA
ENDROOT
BRANCH   1   3
ATOM      3  C   LIG    1       32.419 -16.758  10.289  0.00  0.00    +0.152 C 
BRANCH   3   4
ATOM      4  N   LIG    1       32.575 -16.211   8.942  0.00  0.00    -0.324 NA
ATOM      5  H   LIG    1       32.755 -16.976   8.286  0.00  0.00    +0.119 HD
ATOM      6  H   LIG    1       31.687 -15.809   8.642  0.00  0.00    +0.119 HD
ENDBRANCH   3   4
ENDBRANCH   1   3
BRANCH   1   7
ATOM      7  C   LIG    1       30.204 -17.549   9.177  0.00  0.00    +0.086 C 
BRANCH   7   8
ATOM      8  C   LIG    1       30.014 -18.930   8.556  0.00  0.00    +0.128 C 
BRANCH   8   9
ATOM      9  C   LIG    1       31.308 -19.619   8.188  0.00  0.00    +0.305 C 
ATOM     10  O   LIG    1       31.812 -19.542   7.072  0.00  0.00    -0.251 OA
BRANCH   9  11
ATOM     11  O   LIG    1       31.908 -20.289   9.190  0.00  0.00    -0.481 OA
ATOM     12  H   LIG    1       32.301 -21.156   8.916  0.00  0.00    +0.295 HD
ENDBRANCH   9  11
ENDBRANCH   8   9
ENDBRANCH   7   8
ENDBRANCH   1   7
TORSDOF 6
ENDMDL
MODEL 7
REMARK VINA RESULT:      -5.0      2.503      3.873
REMARK  Name = *****
REMARK                            x       y       z     vdW  Elec       q    Type
REMARK                         _______ _______ _______ _____ _____    ______ ____
ROOT
ATOM      1  C   LIG    1       31.339 -18.469   9.158  0.00  0.00    +0.147 C 
ATOM      2  O   LIG    1       32.291 -18.412   9.945  0.00  0.00    -0.296 OA
ENDROOT
BRANCH   1   3
ATOM      3  C   LIG    1       30.124 -17.575   9.335  0.00  0.00    +0.152 C 
BRANCH   3   4
ATOM      4  N   LIG    1       30.142 -16.968  10.665  0.00  0.00    -0.324 NA
ATOM      5  H   LIG    1       30.664 -17.573  11.305  0.00  0.00    +0.119 HD
ATOM      6  H   LIG    1       30.675 -16.100  10.626  0.00  0.00    +0.119 HD
ENDBRANCH   3   4
ENDBRANCH   1   3
BRANCH   1   7
ATOM      7  C   LIG    1       31.328 -19.464   8.012  0.00  0.00    +0.086 C 
BRANCH   7   8
ATOM      8  C   LIG    1       30.464 -20.687   8.309  0.00  0.00    +0.128 C 
BRANCH   8   9
ATOM      9  C   LIG    1       31.158 -21.739   9.141  0.00  0.00    +0.305 C 
ATOM     10  O   LIG    1       30.776 -22.065  10.261  0.00  0.00    -0.251 OA
BRANCH   9  11
ATOM     11  O   LIG    1       32.206 -22.343   8.549  0.00  0.00    -0.481 OA
ATOM     12  H   LIG    1       32.797 -22.831   9.176  0.00  0.00    +0.295 HD
ENDBRANCH   9  11
ENDBRANCH   8   9
ENDBRANCH   7   8
ENDBRANCH   1   7
TORSDOF 6
ENDMDL
MODEL 8
REMARK VINA RESULT:      -4.9      2.822      4.202
REMARK  Name = *****
REMARK                            x       y       z     vdW  Elec       q    Type
REMARK                         _______ _______ _______ _____ _____    ______ ____
ROOT
ATOM      1  C   LIG    1       31.344 -16.603  10.841  0.00  0.00    +0.147 C 
ATOM      2  O   LIG    1       30.113 -16.560  10.950  0.00  0.00    -0.296 OA
ENDROOT
BRANCH   1   3
ATOM      3  C   LIG    1       32.245 -16.222  12.002  0.00  0.00    +0.152 C 
BRANCH   3   4
ATOM      4  N   LIG    1       31.514 -15.376  12.944  0.00  0.00    -0.324 NA
ATOM      5  H   LIG    1       30.513 -15.423  12.733  0.00  0.00    +0.119 HD
ATOM      6  H   LIG    1       31.605 -15.768  13.881  0.00  0.00    +0.119 HD
ENDBRANCH   3   4
ENDBRANCH   1   3
BRANCH   1   7
ATOM      7  C   LIG    1       32.002 -16.995   9.530  0.00  0.00    +0.086 C 
BRANCH   7   8
ATOM      8  C   LIG    1       31.105 -17.878   8.667  0.00  0.00    +0.128 C 
BRANCH   8   9
ATOM      9  C   LIG    1       31.658 -19.263   8.428  0.00  0.00    +0.305 C 
ATOM     10  O   LIG    1       32.059 -19.988   9.333  0.00  0.00    -0.251 OA
BRANCH   9  11
ATOM     11  O   LIG    1       31.635 -19.679   7.148  0.00  0.00    -0.481 OA
ATOM     12  H   LIG    1       32.513 -19.633   6.693  0.00  0.00    +0.295 HD
ENDBRANCH   9  11
ENDBRANCH   8   9
ENDBRANCH   7   8
ENDBRANCH   1   7
TORSDOF 6
ENDMDL
MODEL 9
REMARK VINA RESULT:      -4.9      2.562      3.905
REMARK  Name = *****
REMARK                            x       y       z     vdW  Elec       q    Type
REMARK                         _______ _______ _______ _____ _____    ______ ____
ROOT
ATOM      1  C   LIG    1       31.589 -18.318   9.312  0.00  0.00    +0.147 C 
ATOM      2  O   LIG    1       32.122 -19.434   9.294  0.00  0.00    -0.296 OA
ENDROOT
BRANCH   1   3
ATOM      3  C   LIG    1       32.304 -17.121   9.912  0.00  0.00    +0.152 C 
BRANCH   3   4
ATOM      4  N   LIG    1       32.671 -16.178   8.857  0.00  0.00    -0.324 NA
ATOM      5  H   LIG    1       33.075 -16.693   8.070  0.00  0.00    +0.119 HD
ATOM      6  H   LIG    1       31.823 -15.749   8.486  0.00  0.00    +0.119 HD
ENDBRANCH   3   4
ENDBRANCH   1   3
BRANCH   1   7
ATOM      7  C   LIG    1       30.184 -18.112   8.776  0.00  0.00    +0.086 C 
BRANCH   7   8
ATOM      8  C   LIG    1       29.954 -18.827   7.448  0.00  0.00    +0.128 C 
BRANCH   8   9
ATOM      9  C   LIG    1       29.063 -20.042   7.554  0.00  0.00    +0.305 C 
ATOM     10  O   LIG    1       28.060 -20.077   8.261  0.00  0.00    -0.251 OA
BRANCH   9  11
ATOM     11  O   LIG    1       29.413 -21.082   6.774  0.00  0.00    -0.481 OA
ATOM     12  H   LIG    1       28.847 -21.886   6.896  0.00  0.00    +0.295 HD
ENDBRANCH   9  11
ENDBRANCH   8   9
ENDBRANCH   7   8
ENDBRANCH   1   7
TORSDOF 6
ENDMDL
