MODEL 1
REMARK VINA RESULT:      -4.2      0.000      0.000
REMARK  Name = *****
REMARK                            x       y       z     vdW  Elec       q    Type
REMARK                         _______ _______ _______ _____ _____    ______ ____
ROOT
ATOM      1  C   LIG    1       26.179 -19.779   5.084  0.00  0.00    +0.139 C 
ATOM      2  C   LIG    1       25.357 -20.906   5.723  0.00  0.00    +0.167 C 
ATOM      3  C   LIG    1       23.892 -20.480   5.865  0.00  0.00    +0.175 C 
ATOM      4  C   LIG    1       23.352 -20.022   4.498  0.00  0.00    +0.178 C 
ATOM      5  O   LIG    1       24.158 -18.955   3.975  0.00  0.00    -0.342 OA
ATOM      6  C   LIG    1       25.503 -19.359   3.755  0.00  0.00    +0.267 C 
ENDROOT
BRANCH   1   7
ATOM      7  N   LIG    1       27.597 -20.189   4.953  0.00  0.00    -0.321 NA
ATOM      8  H   LIG    1       28.186 -19.356   4.877  0.00  0.00    +0.119 HD
ATOM      9  H   LIG    1       27.878 -20.601   5.850  0.00  0.00    +0.119 HD
ENDBRANCH   1   7
BRANCH   2  10
ATOM     10  O   LIG    1       25.878 -21.230   7.019  0.00  0.00    -0.387 OA
ATOM     11  H   LIG    1       26.849 -21.285   6.891  0.00  0.00    +0.210 HD
ENDBRANCH   2  10
BRANCH   3  12
ATOM     12  O   LIG    1       23.125 -21.571   6.389  0.00  0.00    -0.387 OA
ATOM     13  H   LIG    1       23.738 -22.040   6.995  0.00  0.00    +0.210 HD
ENDBRANCH   3  12
BRANCH   6  14
ATOM     14  O   LIG    1       26.204 -18.268   3.182  0.00  0.00    -0.366 OA
ATOM     15  H   LIG    1       25.632 -17.950   2.463  0.00  0.00    +0.212 HD
ENDBRANCH   6  14
BRANCH   4  16
ATOM     16  C   LIG    1       21.897 -19.545   4.612  0.00  0.00    +0.190 C 
BRANCH  16  17
ATOM     17  O   LIG    1       21.755 -18.174   4.260  0.00  0.00    -0.392 OA
ATOM     18  H   LIG    1       22.385 -17.998   3.527  0.00  0.00    +0.209 HD
ENDBRANCH  16  17
ENDBRANCH   4  16
TORSDOF 6
ENDMDL
MODEL 2
REMARK VINA RESULT:      -4.1      1.301      3.011
REMARK  Name = *****
REMARK                            x       y       z     vdW  Elec       q    Type
REMARK                         _______ _______ _______ _____ _____    ______ ____
ROOT
ATOM      1  C   LIG    1       26.699 -20.202   5.121  0.00  0.00    +0.139 C 
ATOM      2  C   LIG    1       25.538 -19.387   4.535  0.00  0.00    +0.167 C 
ATOM      3  C   LIG    1       24.243 -20.207   4.568  0.00  0.00    +0.175 C 
ATOM      4  C   LIG    1       23.985 -20.707   6.001  0.00  0.00    +0.178 C 
ATOM      5  O   LIG    1       25.103 -21.476   6.471  0.00  0.00    -0.342 OA
ATOM      6  C   LIG    1       26.295 -20.705   6.529  0.00  0.00    +0.267 C 
ENDROOT
BRANCH   1   7
ATOM      7  N   LIG    1       27.951 -19.411   5.083  0.00  0.00    -0.321 NA
ATOM      8  H   LIG    1       28.189 -19.197   4.112  0.00  0.00    +0.119 HD
ATOM      9  H   LIG    1       27.742 -18.492   5.489  0.00  0.00    +0.119 HD
ENDBRANCH   1   7
BRANCH   2  10
ATOM     10  O   LIG    1       25.824 -19.017   3.180  0.00  0.00    -0.387 OA
ATOM     11  H   LIG    1       25.210 -18.277   2.988  0.00  0.00    +0.210 HD
ENDBRANCH   2  10
BRANCH   3  12
ATOM     12  O   LIG    1       23.157 -19.405   4.091  0.00  0.00    -0.387 OA
ATOM     13  H   LIG    1       22.990 -19.724   3.179  0.00  0.00    +0.210 HD
ENDBRANCH   3  12
BRANCH   6  14
ATOM     14  O   LIG    1       27.324 -21.522   7.062  0.00  0.00    -0.366 OA
ATOM     15  H   LIG    1       27.323 -22.322   6.509  0.00  0.00    +0.212 HD
ENDBRANCH   6  14
BRANCH   4  16
ATOM     16  C   LIG    1       22.717 -21.571   6.062  0.00  0.00    +0.190 C 
BRANCH  16  17
ATOM     17  O   LIG    1       22.003 -21.560   4.832  0.00  0.00    -0.392 OA
ATOM     18  H   LIG    1       21.069 -21.783   5.039  0.00  0.00    +0.209 HD
ENDBRANCH  16  17
ENDBRANCH   4  16
TORSDOF 6
ENDMDL
MODEL 3
REMARK VINA RESULT:      -3.8      2.022      4.373
REMARK  Name = *****
REMARK                            x       y       z     vdW  Elec       q    Type
REMARK                         _______ _______ _______ _____ _____    ______ ____
ROOT
ATOM      1  C   LIG    1       23.882 -19.646   4.177  0.00  0.00    +0.139 C 
ATOM      2  C   LIG    1       25.384 -19.631   3.861  0.00  0.00    +0.167 C 
ATOM      3  C   LIG    1       26.196 -19.920   5.128  0.00  0.00    +0.175 C 
ATOM      4  C   LIG    1       25.712 -21.236   5.763  0.00  0.00    +0.178 C 
ATOM      5  O   LIG    1       24.306 -21.166   6.048  0.00  0.00    -0.342 OA
ATOM      6  C   LIG    1       23.531 -20.985   4.870  0.00  0.00    +0.267 C 
ENDROOT
BRANCH   1   7
ATOM      7  N   LIG    1       23.097 -19.361   2.952  0.00  0.00    -0.321 NA
ATOM      8  H   LIG    1       23.711 -18.954   2.242  0.00  0.00    +0.119 HD
ATOM      9  H   LIG    1       22.827 -20.264   2.548  0.00  0.00    +0.119 HD
ENDBRANCH   1   7
BRANCH   2  10
ATOM     10  O   LIG    1       25.770 -18.353   3.337  0.00  0.00    -0.387 OA
ATOM     11  H   LIG    1       26.688 -18.481   3.017  0.00  0.00    +0.210 HD
ENDBRANCH   2  10
BRANCH   3  12
ATOM     12  O   LIG    1       27.589 -19.980   4.799  0.00  0.00    -0.387 OA
ATOM     13  H   LIG    1       27.649 -19.612   3.892  0.00  0.00    +0.210 HD
ENDBRANCH   3  12
BRANCH   6  14
ATOM     14  O   LIG    1       22.162 -20.992   5.238  0.00  0.00    -0.366 OA
ATOM     15  H   LIG    1       21.862 -21.904   5.081  0.00  0.00    +0.212 HD
ENDBRANCH   6  14
BRANCH   4  16
ATOM     16  C   LIG    1       26.475 -21.534   7.062  0.00  0.00    +0.190 C 
BRANCH  16  17
ATOM     17  O   LIG    1       27.883 -21.572   6.858  0.00  0.00    -0.392 OA
ATOM     18  H   LIG    1       28.050 -21.254   5.944  0.00  0.00    +0.209 HD
ENDBRANCH  16  17
ENDBRANCH   4  16
TORSDOF 6
ENDMDL
MODEL 4
REMARK VINA RESULT:      -3.6      5.703      7.297
REMARK  Name = *****
REMARK                            x       y       z     vdW  Elec       q    Type
REMARK                         _______ _______ _______ _____ _____    ______ ____
ROOT
ATOM      1  C   LIG    1       24.591 -14.330   3.776  0.00  0.00    +0.139 C 
ATOM      2  C   LIG    1       25.712 -15.351   4.014  0.00  0.00    +0.167 C 
ATOM      3  C   LIG    1       27.079 -14.709   3.751  0.00  0.00    +0.175 C 
ATOM      4  C   LIG    1       27.220 -13.429   4.595  0.00  0.00    +0.178 C 
ATOM      5  O   LIG    1       26.150 -12.517   4.302  0.00  0.00    -0.342 OA
ATOM      6  C   LIG    1       24.878 -13.066   4.623  0.00  0.00    +0.267 C 
ENDROOT
BRANCH   1   7
ATOM      7  N   LIG    1       23.269 -14.953   4.025  0.00  0.00    -0.321 NA
ATOM      8  H   LIG    1       23.259 -15.897   3.630  0.00  0.00    +0.119 HD
ATOM      9  H   LIG    1       23.194 -15.113   5.035  0.00  0.00    +0.119 HD
ENDBRANCH   1   7
BRANCH   2  10
ATOM     10  O   LIG    1       25.550 -16.480   3.147  0.00  0.00    -0.387 OA
ATOM     11  H   LIG    1       24.655 -16.372   2.759  0.00  0.00    +0.210 HD
ENDBRANCH   2  10
BRANCH   3  12
ATOM     12  O   LIG    1       28.115 -15.651   4.054  0.00  0.00    -0.387 OA
ATOM     13  H   LIG    1       27.921 -15.953   4.967  0.00  0.00    +0.210 HD
ENDBRANCH   3  12
BRANCH   6  14
ATOM     14  O   LIG    1       23.893 -12.079   4.363  0.00  0.00    -0.366 OA
ATOM     15  H   LIG    1       24.234 -11.267   4.777  0.00  0.00    +0.212 HD
ENDBRANCH   6  14
BRANCH   4  16
ATOM     16  C   LIG    1       28.562 -12.735   4.322  0.00  0.00    +0.190 C 
BRANCH  16  17
ATOM     17  O   LIG    1       28.982 -11.933   5.421  0.00  0.00    -0.392 OA
ATOM     18  H   LIG    1       28.189 -11.454   5.746  0.00  0.00    +0.209 HD
ENDBRANCH  16  17
ENDBRANCH   4  16
TORSDOF 6
ENDMDL
MODEL 5
REMARK VINA RESULT:      -3.5      1.845      3.443
REMARK  Name = *****
REMARK                            x       y       z     vdW  Elec       q    Type
REMARK                         _______ _______ _______ _____ _____    ______ ____
ROOT
ATOM      1  C   LIG    1       24.012 -21.042   5.808  0.00  0.00    +0.139 C 
ATOM      2  C   LIG    1       25.432 -20.521   6.069  0.00  0.00    +0.167 C 
ATOM      3  C   LIG    1       26.047 -19.983   4.773  0.00  0.00    +0.175 C 
ATOM      4  C   LIG    1       25.108 -18.933   4.152  0.00  0.00    +0.178 C 
ATOM      5  O   LIG    1       23.809 -19.499   3.918  0.00  0.00    -0.342 OA
ATOM      6  C   LIG    1       23.188 -19.924   5.124  0.00  0.00    +0.267 C 
ENDROOT
BRANCH   1   7
ATOM      7  N   LIG    1       23.420 -21.567   7.062  0.00  0.00    -0.321 NA
ATOM      8  H   LIG    1       24.153 -21.665   7.768  0.00  0.00    +0.119 HD
ATOM      9  H   LIG    1       22.815 -20.832   7.442  0.00  0.00    +0.119 HD
ENDBRANCH   1   7
BRANCH   2  10
ATOM     10  O   LIG    1       26.262 -21.571   6.582  0.00  0.00    -0.387 OA
ATOM     11  H   LIG    1       26.009 -21.652   7.526  0.00  0.00    +0.210 HD
ENDBRANCH   2  10
BRANCH   3  12
ATOM     12  O   LIG    1       27.339 -19.430   5.050  0.00  0.00    -0.387 OA
ATOM     13  H   LIG    1       27.975 -20.081   4.686  0.00  0.00    +0.210 HD
ENDBRANCH   3  12
BRANCH   6  14
ATOM     14  O   LIG    1       21.893 -20.407   4.806  0.00  0.00    -0.366 OA
ATOM     15  H   LIG    1       21.449 -20.524   5.664  0.00  0.00    +0.212 HD
ENDBRANCH   6  14
BRANCH   4  16
ATOM     16  C   LIG    1       25.673 -18.405   2.825  0.00  0.00    +0.190 C 
BRANCH  16  17
ATOM     17  O   LIG    1       26.357 -17.168   2.990  0.00  0.00    -0.392 OA
ATOM     18  H   LIG    1       25.680 -16.457   2.944  0.00  0.00    +0.209 HD
ENDBRANCH  16  17
ENDBRANCH   4  16
TORSDOF 6
ENDMDL
MODEL 6
REMARK VINA RESULT:      -3.5      2.036      3.592
REMARK  Name = *****
REMARK                            x       y       z     vdW  Elec       q    Type
REMARK                         _______ _______ _______ _____ _____    ______ ____
ROOT
ATOM      1  C   LIG    1       23.790 -19.543   3.887  0.00  0.00    +0.139 C 
ATOM      2  C   LIG    1       23.181 -20.099   5.181  0.00  0.00    +0.167 C 
ATOM      3  C   LIG    1       24.129 -21.122   5.816  0.00  0.00    +0.175 C 
ATOM      4  C   LIG    1       25.519 -20.489   6.010  0.00  0.00    +0.178 C 
ATOM      5  O   LIG    1       26.030 -20.012   4.755  0.00  0.00    -0.342 OA
ATOM      6  C   LIG    1       25.206 -18.999   4.194  0.00  0.00    +0.267 C 
ENDROOT
BRANCH   1   7
ATOM      7  N   LIG    1       22.870 -18.558   3.270  0.00  0.00    -0.321 NA
ATOM      8  H   LIG    1       23.256 -18.246   2.376  0.00  0.00    +0.119 HD
ATOM      9  H   LIG    1       22.019 -19.065   3.001  0.00  0.00    +0.119 HD
ENDBRANCH   1   7
BRANCH   2  10
ATOM     10  O   LIG    1       21.924 -20.731   4.909  0.00  0.00    -0.387 OA
ATOM     11  H   LIG    1       22.138 -21.683   4.809  0.00  0.00    +0.210 HD
ENDBRANCH   2  10
BRANCH   3  12
ATOM     12  O   LIG    1       23.583 -21.572   7.062  0.00  0.00    -0.387 OA
ATOM     13  H   LIG    1       22.615 -21.437   6.975  0.00  0.00    +0.210 HD
ENDBRANCH   3  12
BRANCH   6  14
ATOM     14  O   LIG    1       25.818 -18.545   2.997  0.00  0.00    -0.366 OA
ATOM     15  H   LIG    1       25.114 -18.576   2.327  0.00  0.00    +0.212 HD
ENDBRANCH   6  14
BRANCH   4  16
ATOM     16  C   LIG    1       26.508 -21.502   6.604  0.00  0.00    +0.190 C 
BRANCH  16  17
ATOM     17  O   LIG    1       27.861 -21.132   6.365  0.00  0.00    -0.392 OA
ATOM     18  H   LIG    1       28.416 -21.650   6.988  0.00  0.00    +0.209 HD
ENDBRANCH  16  17
ENDBRANCH   4  16
TORSDOF 6
ENDMDL
MODEL 7
REMARK VINA RESULT:      -2.9      5.399      6.767
REMARK  Name = *****
REMARK                            x       y       z     vdW  Elec       q    Type
REMARK                         _______ _______ _______ _____ _____    ______ ____
ROOT
ATOM      1  C   LIG    1       27.056 -13.729   2.975  0.00  0.00    +0.139 C 
ATOM      2  C   LIG    1       25.925 -12.696   3.050  0.00  0.00    +0.167 C 
ATOM      3  C   LIG    1       24.562 -13.395   2.995  0.00  0.00    +0.175 C 
ATOM      4  C   LIG    1       24.489 -14.472   4.093  0.00  0.00    +0.178 C 
ATOM      5  O   LIG    1       25.565 -15.411   3.945  0.00  0.00    -0.342 OA
ATOM      6  C   LIG    1       26.837 -14.791   4.080  0.00  0.00    +0.267 C 
ENDROOT
BRANCH   1   7
ATOM      7  N   LIG    1       28.374 -13.052   3.022  0.00  0.00    -0.321 NA
ATOM      8  H   LIG    1       28.371 -12.357   3.773  0.00  0.00    +0.119 HD
ATOM      9  H   LIG    1       29.061 -13.745   3.338  0.00  0.00    +0.119 HD
ENDBRANCH   1   7
BRANCH   2  10
ATOM     10  O   LIG    1       26.021 -11.771   1.959  0.00  0.00    -0.387 OA
ATOM     11  H   LIG    1       25.577 -10.958   2.280  0.00  0.00    +0.210 HD
ENDBRANCH   2  10
BRANCH   3  12
ATOM     12  O   LIG    1       23.520 -12.425   3.146  0.00  0.00    -0.387 OA
ATOM     13  H   LIG    1       22.714 -12.949   3.338  0.00  0.00    +0.210 HD
ENDBRANCH   3  12
BRANCH   6  14
ATOM     14  O   LIG    1       27.831 -15.799   3.984  0.00  0.00    -0.366 OA
ATOM     15  H   LIG    1       28.631 -15.336   3.680  0.00  0.00    +0.212 HD
ENDBRANCH   6  14
BRANCH   4  16
ATOM     16  C   LIG    1       23.152 -15.225   4.038  0.00  0.00    +0.190 C 
BRANCH  16  17
ATOM     17  O   LIG    1       22.560 -15.357   5.325  0.00  0.00    -0.392 OA
ATOM     18  H   LIG    1       21.634 -15.654   5.187  0.00  0.00    +0.209 HD
ENDBRANCH  16  17
ENDBRANCH   4  16
TORSDOF 6
ENDMDL
MODEL 8
REMARK VINA RESULT:      -2.9      2.320      4.961
REMARK  Name = *****
REMARK                            x       y       z     vdW  Elec       q    Type
REMARK                         _______ _______ _______ _____ _____    ______ ____
ROOT
ATOM      1  C   LIG    1       25.262 -19.806   4.699  0.00  0.00    +0.139 C 
ATOM      2  C   LIG    1       26.501 -19.175   4.052  0.00  0.00    +0.167 C 
ATOM      3  C   LIG    1       27.548 -18.842   5.121  0.00  0.00    +0.175 C 
ATOM      4  C   LIG    1       27.858 -20.102   5.950  0.00  0.00    +0.178 C 
ATOM      5  O   LIG    1       26.656 -20.621   6.539  0.00  0.00    -0.342 OA
ATOM      6  C   LIG    1       25.707 -21.016   5.557  0.00  0.00    +0.267 C 
ENDROOT
BRANCH   1   7
ATOM      7  N   LIG    1       24.248 -20.122   3.665  0.00  0.00    -0.321 NA
ATOM      8  H   LIG    1       24.139 -21.137   3.595  0.00  0.00    +0.119 HD
ATOM      9  H   LIG    1       23.340 -19.806   4.025  0.00  0.00    +0.119 HD
ENDBRANCH   1   7
BRANCH   2  10
ATOM     10  O   LIG    1       26.144 -17.974   3.357  0.00  0.00    -0.387 OA
ATOM     11  H   LIG    1       25.203 -17.821   3.588  0.00  0.00    +0.210 HD
ENDBRANCH   2  10
BRANCH   3  12
ATOM     12  O   LIG    1       28.728 -18.328   4.492  0.00  0.00    -0.387 OA
ATOM     13  H   LIG    1       28.425 -17.534   4.002  0.00  0.00    +0.210 HD
ENDBRANCH   3  12
BRANCH   6  14
ATOM     14  O   LIG    1       24.586 -21.571   6.225  0.00  0.00    -0.366 OA
ATOM     15  H   LIG    1       23.853 -21.499   5.590  0.00  0.00    +0.212 HD
ENDBRANCH   6  14
BRANCH   4  16
ATOM     16  C   LIG    1       28.872 -19.794   7.062  0.00  0.00    +0.190 C 
BRANCH  16  17
ATOM     17  O   LIG    1       29.469 -18.513   6.900  0.00  0.00    -0.392 OA
ATOM     18  H   LIG    1       28.738 -17.861   6.828  0.00  0.00    +0.209 HD
ENDBRANCH  16  17
ENDBRANCH   4  16
TORSDOF 6
ENDMDL
MODEL 9
REMARK VINA RESULT:      -2.8      1.595      1.933
REMARK  Name = *****
REMARK                            x       y       z     vdW  Elec       q    Type
REMARK                         _______ _______ _______ _____ _____    ______ ____
ROOT
ATOM      1  C   LIG    1       26.994 -18.261   4.552  0.00  0.00    +0.139 C 
ATOM      2  C   LIG    1       26.896 -19.760   4.866  0.00  0.00    +0.167 C 
ATOM      3  C   LIG    1       25.435 -20.157   5.106  0.00  0.00    +0.175 C 
ATOM      4  C   LIG    1       24.576 -19.720   3.905  0.00  0.00    +0.178 C 
ATOM      5  O   LIG    1       24.704 -18.306   3.688  0.00  0.00    -0.342 OA
ATOM      6  C   LIG    1       26.040 -17.932   3.378  0.00  0.00    +0.267 C 
ENDROOT
BRANCH   1   7
ATOM      7  N   LIG    1       28.408 -17.876   4.326  0.00  0.00    -0.321 NA
ATOM      8  H   LIG    1       28.665 -17.130   4.977  0.00  0.00    +0.119 HD
ATOM      9  H   LIG    1       28.989 -18.668   4.623  0.00  0.00    +0.119 HD
ENDBRANCH   1   7
BRANCH   2  10
ATOM     10  O   LIG    1       27.666 -20.076   6.032  0.00  0.00    -0.387 OA
ATOM     11  H   LIG    1       27.211 -20.849   6.430  0.00  0.00    +0.210 HD
ENDBRANCH   2  10
BRANCH   3  12
ATOM     12  O   LIG    1       25.353 -21.571   5.318  0.00  0.00    -0.387 OA
ATOM     13  H   LIG    1       25.249 -21.955   4.422  0.00  0.00    +0.210 HD
ENDBRANCH   3  12
BRANCH   6  14
ATOM     14  O   LIG    1       26.059 -16.538   3.117  0.00  0.00    -0.366 OA
ATOM     15  H   LIG    1       26.131 -16.119   3.992  0.00  0.00    +0.212 HD
ENDBRANCH   6  14
BRANCH   4  16
ATOM     16  C   LIG    1       23.097 -20.063   4.133  0.00  0.00    +0.190 C 
BRANCH  16  17
ATOM     17  O   LIG    1       22.744 -20.019   5.510  0.00  0.00    -0.392 OA
ATOM     18  H   LIG    1       23.130 -20.818   5.932  0.00  0.00    +0.209 HD
ENDBRANCH  16  17
ENDBRANCH   4  16
TORSDOF 6
ENDMDL
