MODEL 1
REMARK VINA RESULT:      -1.8      0.000      0.000
REMARK  Name = *****
REMARK                            x       y       z     vdW  Elec       q    Type
REMARK                         _______ _______ _______ _____ _____    ______ ____
ROOT
ATOM      1  C   LIG    1       25.910 -18.602   4.579  0.00  0.00    +0.050 C 
ATOM      2  C   LIG    1       27.062 -19.330   5.310  0.00  0.00    -0.037 A 
ATOM      3  C   LIG    1       26.827 -20.191   6.413  0.00  0.00    -0.043 A 
ATOM      4  C   LIG    1       27.934 -20.797   7.062  0.00  0.00    +0.004 A 
ATOM      5  C   LIG    1       29.239 -20.578   6.641  0.00  0.00    +0.000 A 
ATOM      6  C   LIG    1       29.472 -19.754   5.555  0.00  0.00    +0.000 A 
ATOM      7  C   LIG    1       25.478 -20.605   6.978  0.00  0.00    +0.040 C 
ATOM      8  C   LIG    1       24.175 -20.051   6.402  0.00  0.00    +0.040 C 
ATOM      9  C   LIG    1       24.057 -20.299   4.920  0.00  0.00    -0.043 A 
ATOM     10  C   LIG    1       23.142 -21.250   4.444  0.00  0.00    +0.004 A 
ATOM     11  C   LIG    1       23.068 -21.537   3.083  0.00  0.00    +0.000 A 
ATOM     12  C   LIG    1       23.920 -20.894   2.195  0.00  0.00    +0.000 A 
ATOM     13  C   LIG    1       24.844 -19.953   2.660  0.00  0.00    +0.004 A 
ATOM     14  C   LIG    1       28.399 -19.142   4.898  0.00  0.00    +0.004 A 
ATOM     15  C   LIG    1       24.910 -19.619   4.023  0.00  0.00    -0.037 A 
ENDROOT
BRANCH   1  16
ATOM     16  C   LIG    1       26.354 -17.490   3.569  0.00  0.00    +0.017 C 
BRANCH  16  18
ATOM     17  C   LIG    1       27.637 -15.291   3.842  0.00  0.00    +0.009 C 
ATOM     18  C   LIG    1       26.306 -16.013   4.065  0.00  0.00    +0.001 C 
BRANCH  18  19
ATOM     19  C   LIG    1       25.141 -15.278   3.339  0.00  0.00    +0.087 C 
BRANCH  19  20
ATOM     20  N   LIG    1       25.111 -13.806   3.470  0.00  0.00    -0.308 NA
ATOM     21  C   LIG    1       23.896 -13.325   4.127  0.00  0.00    +0.104 C 
ATOM     22  C   LIG    1       25.254 -13.179   2.152  0.00  0.00    +0.104 C 
ENDBRANCH  19  20
ENDBRANCH  18  19
ENDBRANCH  16  18
ENDBRANCH   1  16
TORSDOF 4
ENDMDL
MODEL 2
REMARK VINA RESULT:      -1.6      2.186      5.460
REMARK  Name = *****
REMARK                            x       y       z     vdW  Elec       q    Type
REMARK                         _______ _______ _______ _____ _____    ______ ____
ROOT
ATOM      1  C   LIG    1       25.627 -17.753   3.263  0.00  0.00    +0.050 C 
ATOM      2  C   LIG    1       26.809 -18.100   4.196  0.00  0.00    -0.037 A 
ATOM      3  C   LIG    1       27.890 -17.205   4.406  0.00  0.00    -0.043 A 
ATOM      4  C   LIG    1       28.961 -17.603   5.246  0.00  0.00    +0.004 A 
ATOM      5  C   LIG    1       28.978 -18.840   5.876  0.00  0.00    +0.000 A 
ATOM      6  C   LIG    1       27.918 -19.711   5.689  0.00  0.00    +0.000 A 
ATOM      7  C   LIG    1       28.024 -15.791   3.863  0.00  0.00    +0.040 C 
ATOM      8  C   LIG    1       26.961 -15.194   2.940  0.00  0.00    +0.040 C 
ATOM      9  C   LIG    1       25.585 -15.235   3.555  0.00  0.00    -0.043 A 
ATOM     10  C   LIG    1       24.986 -14.046   3.997  0.00  0.00    +0.004 A 
ATOM     11  C   LIG    1       23.743 -14.076   4.626  0.00  0.00    +0.000 A 
ATOM     12  C   LIG    1       23.106 -15.292   4.837  0.00  0.00    +0.000 A 
ATOM     13  C   LIG    1       23.700 -16.483   4.411  0.00  0.00    +0.004 A 
ATOM     14  C   LIG    1       26.849 -19.344   4.865  0.00  0.00    +0.004 A 
ATOM     15  C   LIG    1       24.934 -16.474   3.739  0.00  0.00    -0.037 A 
ENDROOT
BRANCH   1  16
ATOM     16  C   LIG    1       24.664 -18.943   2.930  0.00  0.00    +0.017 C 
BRANCH  16  18
ATOM     17  C   LIG    1       22.278 -19.144   3.838  0.00  0.00    +0.009 C 
ATOM     18  C   LIG    1       23.754 -19.470   4.080  0.00  0.00    +0.001 C 
BRANCH  18  19
ATOM     19  C   LIG    1       23.972 -21.005   4.229  0.00  0.00    +0.087 C 
BRANCH  19  20
ATOM     20  N   LIG    1       23.746 -21.572   5.575  0.00  0.00    -0.308 NA
ATOM     21  C   LIG    1       22.334 -21.572   5.955  0.00  0.00    +0.104 C 
ATOM     22  C   LIG    1       24.535 -20.838   6.570  0.00  0.00    +0.104 C 
ENDBRANCH  19  20
ENDBRANCH  18  19
ENDBRANCH  16  18
ENDBRANCH   1  16
TORSDOF 4
ENDMDL
MODEL 3
REMARK VINA RESULT:      -0.7      1.674      4.420
REMARK  Name = *****
REMARK                            x       y       z     vdW  Elec       q    Type
REMARK                         _______ _______ _______ _____ _____    ______ ____
ROOT
ATOM      1  C   LIG    1       25.716 -16.971   3.137  0.00  0.00    +0.050 C 
ATOM      2  C   LIG    1       24.377 -16.750   3.877  0.00  0.00    -0.037 A 
ATOM      3  C   LIG    1       23.520 -17.828   4.219  0.00  0.00    -0.043 A 
ATOM      4  C   LIG    1       22.288 -17.551   4.864  0.00  0.00    +0.004 A 
ATOM      5  C   LIG    1       21.901 -16.255   5.178  0.00  0.00    +0.000 A 
ATOM      6  C   LIG    1       22.741 -15.201   4.863  0.00  0.00    +0.000 A 
ATOM      7  C   LIG    1       23.792 -19.310   4.020  0.00  0.00    +0.040 C 
ATOM      8  C   LIG    1       25.073 -19.796   3.341  0.00  0.00    +0.040 C 
ATOM      9  C   LIG    1       26.312 -19.271   4.022  0.00  0.00    -0.043 A 
ATOM     10  C   LIG    1       27.114 -20.143   4.774  0.00  0.00    +0.004 A 
ATOM     11  C   LIG    1       28.225 -19.660   5.463  0.00  0.00    +0.000 A 
ATOM     12  C   LIG    1       28.526 -18.305   5.421  0.00  0.00    +0.000 A 
ATOM     13  C   LIG    1       27.727 -17.426   4.684  0.00  0.00    +0.004 A 
ATOM     14  C   LIG    1       23.962 -15.446   4.226  0.00  0.00    +0.004 A 
ATOM     15  C   LIG    1       26.624 -17.896   3.950  0.00  0.00    -0.037 A 
ENDROOT
BRANCH   1  16
ATOM     16  C   LIG    1       26.406 -15.672   2.598  0.00  0.00    +0.017 C 
BRANCH  16  18
ATOM     17  C   LIG    1       27.938 -14.678   4.393  0.00  0.00    +0.009 C 
ATOM     18  C   LIG    1       26.633 -14.510   3.610  0.00  0.00    +0.001 C 
BRANCH  18  19
ATOM     19  C   LIG    1       26.614 -13.159   2.836  0.00  0.00    +0.087 C 
BRANCH  19  20
ATOM     20  N   LIG    1       25.398 -12.333   2.986  0.00  0.00    -0.308 NA
ATOM     21  C   LIG    1       24.690 -12.598   4.239  0.00  0.00    +0.104 C 
ATOM     22  C   LIG    1       24.500 -12.547   1.847  0.00  0.00    +0.104 C 
ENDBRANCH  19  20
ENDBRANCH  18  19
ENDBRANCH  16  18
ENDBRANCH   1  16
TORSDOF 4
ENDMDL
MODEL 4
REMARK VINA RESULT:       0.5      2.204      6.040
REMARK  Name = *****
REMARK                            x       y       z     vdW  Elec       q    Type
REMARK                         _______ _______ _______ _____ _____    ______ ____
ROOT
ATOM      1  C   LIG    1       25.345 -16.140   4.083  0.00  0.00    +0.050 C 
ATOM      2  C   LIG    1       24.123 -17.085   4.029  0.00  0.00    -0.037 A 
ATOM      3  C   LIG    1       22.913 -16.790   4.709  0.00  0.00    -0.043 A 
ATOM      4  C   LIG    1       21.844 -17.721   4.648  0.00  0.00    +0.004 A 
ATOM      5  C   LIG    1       21.947 -18.907   3.935  0.00  0.00    +0.000 A 
ATOM      6  C   LIG    1       23.118 -19.192   3.255  0.00  0.00    +0.000 A 
ATOM      7  C   LIG    1       22.586 -15.524   5.483  0.00  0.00    +0.040 C 
ATOM      8  C   LIG    1       23.619 -14.409   5.652  0.00  0.00    +0.040 C 
ATOM      9  C   LIG    1       24.147 -13.918   4.328  0.00  0.00    -0.043 A 
ATOM     10  C   LIG    1       23.768 -12.652   3.855  0.00  0.00    +0.004 A 
ATOM     11  C   LIG    1       24.196 -12.212   2.604  0.00  0.00    +0.000 A 
ATOM     12  C   LIG    1       24.982 -13.040   1.813  0.00  0.00    +0.000 A 
ATOM     13  C   LIG    1       25.355 -14.307   2.270  0.00  0.00    +0.004 A 
ATOM     14  C   LIG    1       24.188 -18.292   3.299  0.00  0.00    +0.004 A 
ATOM     15  C   LIG    1       24.969 -14.757   3.544  0.00  0.00    -0.037 A 
ENDROOT
BRANCH   1  16
ATOM     16  C   LIG    1       26.678 -16.732   3.512  0.00  0.00    +0.017 C 
BRANCH  16  18
ATOM     17  C   LIG    1       27.911 -14.699   4.460  0.00  0.00    +0.009 C 
ATOM     18  C   LIG    1       28.013 -16.182   4.096  0.00  0.00    +0.001 C 
BRANCH  18  19
ATOM     19  C   LIG    1       28.410 -17.037   5.335  0.00  0.00    +0.087 C 
BRANCH  19  20
ATOM     20  N   LIG    1       28.673 -18.470   5.086  0.00  0.00    -0.308 NA
ATOM     21  C   LIG    1       27.445 -19.245   4.913  0.00  0.00    +0.104 C 
ATOM     22  C   LIG    1       29.474 -19.033   6.178  0.00  0.00    +0.104 C 
ENDBRANCH  19  20
ENDBRANCH  18  19
ENDBRANCH  16  18
ENDBRANCH   1  16
TORSDOF 4
ENDMDL
MODEL 5
REMARK VINA RESULT:       0.5      1.945      5.076
REMARK  Name = *****
REMARK                            x       y       z     vdW  Elec       q    Type
REMARK                         _______ _______ _______ _____ _____    ______ ____
ROOT
ATOM      1  C   LIG    1       25.833 -18.116   3.113  0.00  0.00    +0.050 C 
ATOM      2  C   LIG    1       26.880 -18.490   4.187  0.00  0.00    -0.037 A 
ATOM      3  C   LIG    1       27.868 -17.571   4.627  0.00  0.00    -0.043 A 
ATOM      4  C   LIG    1       28.822 -17.993   5.588  0.00  0.00    +0.004 A 
ATOM      5  C   LIG    1       28.811 -19.277   6.116  0.00  0.00    +0.000 A 
ATOM      6  C   LIG    1       27.840 -20.172   5.704  0.00  0.00    +0.000 A 
ATOM      7  C   LIG    1       28.004 -16.113   4.220  0.00  0.00    +0.040 C 
ATOM      8  C   LIG    1       27.060 -15.485   3.195  0.00  0.00    +0.040 C 
ATOM      9  C   LIG    1       25.612 -15.635   3.587  0.00  0.00    -0.043 A 
ATOM     10  C   LIG    1       24.890 -14.513   4.022  0.00  0.00    +0.004 A 
ATOM     11  C   LIG    1       23.571 -14.648   4.449  0.00  0.00    +0.000 A 
ATOM     12  C   LIG    1       22.976 -15.902   4.467  0.00  0.00    +0.000 A 
ATOM     13  C   LIG    1       23.691 -17.028   4.047  0.00  0.00    +0.004 A 
ATOM     14  C   LIG    1       26.887 -19.782   4.757  0.00  0.00    +0.004 A 
ATOM     15  C   LIG    1       25.009 -16.911   3.574  0.00  0.00    -0.037 A 
ENDROOT
BRANCH   1  16
ATOM     16  C   LIG    1       24.996 -19.313   2.548  0.00  0.00    +0.017 C 
BRANCH  16  18
ATOM     17  C   LIG    1       24.228 -21.570   3.482  0.00  0.00    +0.009 C 
ATOM     18  C   LIG    1       24.044 -20.051   3.537  0.00  0.00    +0.001 C 
BRANCH  18  19
ATOM     19  C   LIG    1       24.294 -19.508   4.974  0.00  0.00    +0.087 C 
BRANCH  19  20
ATOM     20  N   LIG    1       23.303 -19.890   6.002  0.00  0.00    -0.308 NA
ATOM     21  C   LIG    1       23.846 -20.824   6.987  0.00  0.00    +0.104 C 
ATOM     22  C   LIG    1       22.113 -20.466   5.365  0.00  0.00    +0.104 C 
ENDBRANCH  19  20
ENDBRANCH  18  19
ENDBRANCH  16  18
ENDBRANCH   1  16
TORSDOF 4
ENDMDL
MODEL 6
REMARK VINA RESULT:       1.2      1.943      4.625
REMARK  Name = *****
REMARK                            x       y       z     vdW  Elec       q    Type
REMARK                         _______ _______ _______ _____ _____    ______ ____
ROOT
ATOM      1  C   LIG    1       25.719 -16.734   3.343  0.00  0.00    +0.050 C 
ATOM      2  C   LIG    1       24.473 -16.209   4.092  0.00  0.00    -0.037 A 
ATOM      3  C   LIG    1       23.284 -16.976   4.204  0.00  0.00    -0.043 A 
ATOM      4  C   LIG    1       22.164 -16.418   4.872  0.00  0.00    +0.004 A 
ATOM      5  C   LIG    1       22.202 -15.146   5.427  0.00  0.00    +0.000 A 
ATOM      6  C   LIG    1       23.364 -14.400   5.336  0.00  0.00    +0.000 A 
ATOM      7  C   LIG    1       23.069 -18.402   3.724  0.00  0.00    +0.040 C 
ATOM      8  C   LIG    1       24.169 -19.163   2.984  0.00  0.00    +0.040 C 
ATOM      9  C   LIG    1       25.453 -19.219   3.772  0.00  0.00    -0.043 A 
ATOM     10  C   LIG    1       25.860 -20.430   4.353  0.00  0.00    +0.004 A 
ATOM     11  C   LIG    1       27.010 -20.481   5.139  0.00  0.00    +0.000 A 
ATOM     12  C   LIG    1       27.742 -19.324   5.367  0.00  0.00    +0.000 A 
ATOM     13  C   LIG    1       27.338 -18.110   4.803  0.00  0.00    +0.004 A 
ATOM     14  C   LIG    1       24.483 -14.926   4.682  0.00  0.00    +0.004 A 
ATOM     15  C   LIG    1       26.205 -18.041   3.975  0.00  0.00    -0.037 A 
ENDROOT
BRANCH   1  16
ATOM     16  C   LIG    1       26.839 -15.671   3.078  0.00  0.00    +0.017 C 
BRANCH  16  18
ATOM     17  C   LIG    1       24.933 -14.250   2.130  0.00  0.00    +0.009 C 
ATOM     18  C   LIG    1       26.450 -14.415   2.242  0.00  0.00    +0.001 C 
BRANCH  18  19
ATOM     19  C   LIG    1       27.104 -13.159   2.888  0.00  0.00    +0.087 C 
BRANCH  19  20
ATOM     20  N   LIG    1       27.973 -13.400   4.060  0.00  0.00    -0.308 NA
ATOM     21  C   LIG    1       27.284 -13.163   5.328  0.00  0.00    +0.104 C 
ATOM     22  C   LIG    1       29.176 -12.566   3.976  0.00  0.00    +0.104 C 
ENDBRANCH  19  20
ENDBRANCH  18  19
ENDBRANCH  16  18
ENDBRANCH   1  16
TORSDOF 4
ENDMDL
