MODEL 1
REMARK VINA RESULT:      -4.8      0.000      0.000
REMARK  Name = *****
REMARK                            x       y       z     vdW  Elec       q    Type
REMARK                         _______ _______ _______ _____ _____    ______ ____
ROOT
ATOM      1  C   LIG    1       24.699 -30.862   8.001  0.00  0.00    +0.060 A 
ATOM      2  C   LIG    1       24.805 -30.435   9.354  0.00  0.00    +0.040 A 
ATOM      3  I   LIG    1       26.294 -28.936   9.771  0.00  0.00    -0.042 I 
ATOM      4  C   LIG    1       23.948 -30.947  10.379  0.00  0.00    -0.018 A 
ATOM      5  C   LIG    1       23.022 -31.942   9.988  0.00  0.00    +0.019 A 
ATOM      6  I   LIG    1       21.558 -32.775  11.265  0.00  0.00    -0.043 I 
ATOM      7  C   LIG    1       23.001 -32.452   8.681  0.00  0.00    +0.030 A 
ATOM      8  C   LIG    1       23.842 -31.929   7.699  0.00  0.00    +0.037 A 
ATOM      9  I   LIG    1       23.880 -32.979   5.860  0.00  0.00    -0.042 I 
ENDROOT
BRANCH   1  11
ATOM     10  C   LIG    1       24.812 -29.263   6.155  0.00  0.00    +0.217 C 
ATOM     11  N   LIG    1       25.439 -30.192   6.983  0.00  0.00    -0.284 N 
ATOM     12  H   LIG    1       26.397 -29.951   7.219  0.00  0.00    +0.155 HD
ATOM     13  O   LIG    1       23.636 -28.924   6.245  0.00  0.00    -0.276 OA
BRANCH  10  14
ATOM     14  C   LIG    1       25.733 -28.628   5.134  0.00  0.00    +0.096 C 
BRANCH  14  16
ATOM     15  C   LIG    1       26.347 -26.426   6.183  0.00  0.00    +0.004 C 
ATOM     16  C   LIG    1       25.562 -27.114   5.074  0.00  0.00    +0.006 C 
ENDBRANCH  14  16
ENDBRANCH  10  14
ENDBRANCH   1  11
BRANCH   4  17
ATOM     17  C   LIG    1       23.968 -30.401  11.809  0.00  0.00    +0.052 C 
BRANCH  17  18
ATOM     18  C   LIG    1       23.122 -29.142  12.119  0.00  0.00    +0.102 C 
BRANCH  18  19
ATOM     19  C   LIG    1       23.935 -28.084  12.913  0.00  0.00    +0.011 C 
ATOM     20  C   LIG    1       23.166 -26.836  13.342  0.00  0.00    +0.004 C 
ENDBRANCH  18  19
BRANCH  18  21
ATOM     21  C   LIG    1       21.803 -29.448  12.833  0.00  0.00    +0.308 C 
ATOM     22  O   LIG    1       21.682 -29.965  13.928  0.00  0.00    -0.251 OA
BRANCH  21  23
ATOM     23  O   LIG    1       20.716 -29.077  12.112  0.00  0.00    -0.480 OA
ATOM     24  H   LIG    1       20.021 -28.638  12.627  0.00  0.00    +0.295 HD
ENDBRANCH  21  23
ENDBRANCH  18  21
ENDBRANCH  17  18
ENDBRANCH   4  17
TORSDOF 8
ENDMDL
MODEL 2
REMARK VINA RESULT:      -4.8      3.791      6.816
REMARK  Name = *****
REMARK                            x       y       z     vdW  Elec       q    Type
REMARK                         _______ _______ _______ _____ _____    ______ ____
ROOT
ATOM      1  C   LIG    1       21.532 -29.249  12.362  0.00  0.00    +0.060 A 
ATOM      2  C   LIG    1       22.804 -28.685  12.660  0.00  0.00    +0.040 A 
ATOM      3  I   LIG    1       22.795 -26.798  13.698  0.00  0.00    -0.042 I 
ATOM      4  C   LIG    1       24.025 -29.350  12.322  0.00  0.00    -0.018 A 
ATOM      5  C   LIG    1       23.904 -30.574  11.624  0.00  0.00    +0.019 A 
ATOM      6  I   LIG    1       25.533 -31.822  11.116  0.00  0.00    -0.043 I 
ATOM      7  C   LIG    1       22.654 -31.068  11.220  0.00  0.00    +0.030 A 
ATOM      8  C   LIG    1       21.479 -30.405  11.571  0.00  0.00    +0.037 A 
ATOM      9  I   LIG    1       19.706 -31.125  10.665  0.00  0.00    -0.042 I 
ENDROOT
BRANCH   1  11
ATOM     10  C   LIG    1       19.785 -29.120  14.067  0.00  0.00    +0.217 C 
ATOM     11  N   LIG    1       20.348 -28.649  12.882  0.00  0.00    -0.284 N 
ATOM     12  H   LIG    1       20.271 -27.644  12.762  0.00  0.00    +0.155 HD
ATOM     13  O   LIG    1       20.254 -30.019  14.758  0.00  0.00    -0.276 OA
BRANCH  10  14
ATOM     14  C   LIG    1       18.539 -28.372  14.496  0.00  0.00    +0.096 C 
BRANCH  14  16
ATOM     15  C   LIG    1       17.997 -25.984  13.923  0.00  0.00    +0.004 C 
ATOM     16  C   LIG    1       18.830 -26.907  14.802  0.00  0.00    +0.006 C 
ENDBRANCH  14  16
ENDBRANCH  10  14
ENDBRANCH   1  11
BRANCH   4  17
ATOM     17  C   LIG    1       25.393 -28.815  12.753  0.00  0.00    +0.052 C 
BRANCH  17  18
ATOM     18  C   LIG    1       26.047 -27.710  11.889  0.00  0.00    +0.102 C 
BRANCH  18  19
ATOM     19  C   LIG    1       27.061 -28.300  10.873  0.00  0.00    +0.011 C 
ATOM     20  C   LIG    1       26.575 -28.407   9.429  0.00  0.00    +0.004 C 
ENDBRANCH  18  19
BRANCH  18  21
ATOM     21  C   LIG    1       26.701 -26.595  12.708  0.00  0.00    +0.308 C 
ATOM     22  O   LIG    1       26.384 -25.420  12.705  0.00  0.00    -0.251 OA
BRANCH  21  23
ATOM     23  O   LIG    1       27.720 -27.040  13.485  0.00  0.00    -0.480 OA
ATOM     24  H   LIG    1       27.507 -27.815  14.026  0.00  0.00    +0.295 HD
ENDBRANCH  21  23
ENDBRANCH  18  21
ENDBRANCH  17  18
ENDBRANCH   4  17
TORSDOF 8
ENDMDL
MODEL 3
REMARK VINA RESULT:      -4.7      7.524     10.993
REMARK  Name = *****
REMARK                            x       y       z     vdW  Elec       q    Type
REMARK                         _______ _______ _______ _____ _____    ______ ____
ROOT
ATOM      1  C   LIG    1       25.485 -21.391   6.114  0.00  0.00    +0.060 A 
ATOM      2  C   LIG    1       26.345 -21.060   7.198  0.00  0.00    +0.040 A 
ATOM      3  I   LIG    1       25.946 -22.045   9.071  0.00  0.00    -0.042 I 
ATOM      4  C   LIG    1       27.439 -20.151   7.047  0.00  0.00    -0.018 A 
ATOM      5  C   LIG    1       27.590 -19.552   5.774  0.00  0.00    +0.019 A 
ATOM      6  I   LIG    1       29.188 -18.275   5.241  0.00  0.00    -0.043 I 
ATOM      7  C   LIG    1       26.668 -19.782   4.741  0.00  0.00    +0.030 A 
ATOM      8  C   LIG    1       25.616 -20.681   4.913  0.00  0.00    +0.037 A 
ATOM      9  I   LIG    1       24.169 -20.714   3.367  0.00  0.00    -0.042 I 
ENDROOT
BRANCH   1  11
ATOM     10  C   LIG    1       24.931 -23.771   6.166  0.00  0.00    +0.217 C 
ATOM     11  N   LIG    1       24.530 -22.439   6.257  0.00  0.00    -0.284 N 
ATOM     12  H   LIG    1       23.794 -22.278   6.938  0.00  0.00    +0.155 HD
ATOM     13  O   LIG    1       26.089 -24.146   6.003  0.00  0.00    -0.276 OA
BRANCH  10  14
ATOM     14  C   LIG    1       23.805 -24.767   6.353  0.00  0.00    +0.096 C 
BRANCH  14  16
ATOM     15  C   LIG    1       24.579 -27.158   6.452  0.00  0.00    +0.004 C 
ATOM     16  C   LIG    1       24.038 -26.048   5.560  0.00  0.00    +0.006 C 
ENDBRANCH  14  16
ENDBRANCH  10  14
ENDBRANCH   1  11
BRANCH   4  17
ATOM     17  C   LIG    1       28.446 -19.890   8.171  0.00  0.00    +0.052 C 
BRANCH  17  18
ATOM     18  C   LIG    1       29.884 -20.436   8.000  0.00  0.00    +0.102 C 
BRANCH  18  19
ATOM     19  C   LIG    1       30.046 -21.840   8.642  0.00  0.00    +0.011 C 
ATOM     20  C   LIG    1       31.468 -22.233   9.037  0.00  0.00    +0.004 C 
ENDBRANCH  18  19
BRANCH  18  21
ATOM     21  C   LIG    1       30.968 -19.485   8.516  0.00  0.00    +0.308 C 
ATOM     22  O   LIG    1       31.911 -19.057   7.878  0.00  0.00    -0.251 OA
BRANCH  21  23
ATOM     23  O   LIG    1       30.786 -19.135   9.813  0.00  0.00    -0.480 OA
ATOM     24  H   LIG    1       31.466 -19.465  10.420  0.00  0.00    +0.295 HD
ENDBRANCH  21  23
ENDBRANCH  18  21
ENDBRANCH  17  18
ENDBRANCH   4  17
TORSDOF 8
ENDMDL
MODEL 4
REMARK VINA RESULT:      -4.5      3.443      7.086
REMARK  Name = *****
REMARK                            x       y       z     vdW  Elec       q    Type
REMARK                         _______ _______ _______ _____ _____    ______ ____
ROOT
ATOM      1  C   LIG    1       21.284 -29.498  12.172  0.00  0.00    +0.060 A 
ATOM      2  C   LIG    1       22.419 -30.149  11.612  0.00  0.00    +0.040 A 
ATOM      3  I   LIG    1       22.026 -31.888  10.404  0.00  0.00    -0.042 I 
ATOM      4  C   LIG    1       23.748 -29.657  11.808  0.00  0.00    -0.018 A 
ATOM      5  C   LIG    1       23.883 -28.518  12.637  0.00  0.00    +0.019 A 
ATOM      6  I   LIG    1       25.708 -27.512  12.991  0.00  0.00    -0.043 I 
ATOM      7  C   LIG    1       22.778 -27.951  13.290  0.00  0.00    +0.030 A 
ATOM      8  C   LIG    1       21.492 -28.444  13.073  0.00  0.00    +0.037 A 
ATOM      9  I   LIG    1       19.977 -27.661  14.328  0.00  0.00    -0.042 I 
ENDROOT
BRANCH   1  11
ATOM     10  C   LIG    1       19.313 -30.900  12.522  0.00  0.00    +0.217 C 
ATOM     11  N   LIG    1       19.972 -29.908  11.797  0.00  0.00    -0.284 N 
ATOM     12  H   LIG    1       19.359 -29.174  11.456  0.00  0.00    +0.155 HD
ATOM     13  O   LIG    1       19.761 -31.454  13.521  0.00  0.00    -0.276 OA
BRANCH  10  14
ATOM     14  C   LIG    1       17.922 -31.215  12.010  0.00  0.00    +0.096 C 
BRANCH  14  16
ATOM     15  C   LIG    1       17.739 -31.111   9.504  0.00  0.00    +0.004 C 
ATOM     16  C   LIG    1       17.959 -32.013  10.711  0.00  0.00    +0.006 C 
ENDBRANCH  14  16
ENDBRANCH  10  14
ENDBRANCH   1  11
BRANCH   4  17
ATOM     17  C   LIG    1       24.960 -30.273  11.105  0.00  0.00    +0.052 C 
BRANCH  17  18
ATOM     18  C   LIG    1       25.359 -29.713   9.719  0.00  0.00    +0.102 C 
BRANCH  18  19
ATOM     19  C   LIG    1       25.056 -30.725   8.580  0.00  0.00    +0.011 C 
ATOM     20  C   LIG    1       24.306 -30.166   7.373  0.00  0.00    +0.004 C 
ENDBRANCH  18  19
BRANCH  18  21
ATOM     21  C   LIG    1       26.813 -29.242   9.640  0.00  0.00    +0.308 C 
ATOM     22  O   LIG    1       27.738 -29.650  10.317  0.00  0.00    -0.251 OA
BRANCH  21  23
ATOM     23  O   LIG    1       27.006 -28.280   8.703  0.00  0.00    -0.480 OA
ATOM     24  H   LIG    1       26.303 -28.217   8.039  0.00  0.00    +0.295 HD
ENDBRANCH  21  23
ENDBRANCH  18  21
ENDBRANCH  17  18
ENDBRANCH   4  17
TORSDOF 8
ENDMDL
MODEL 5
REMARK VINA RESULT:      -4.5      3.200      4.488
REMARK  Name = *****
REMARK                            x       y       z     vdW  Elec       q    Type
REMARK                         _______ _______ _______ _____ _____    ______ ____
ROOT
ATOM      1  C   LIG    1       23.968 -30.469  10.368  0.00  0.00    +0.060 A 
ATOM      2  C   LIG    1       25.094 -29.761  10.873  0.00  0.00    +0.040 A 
ATOM      3  I   LIG    1       27.001 -30.247   9.998  0.00  0.00    -0.042 I 
ATOM      4  C   LIG    1       24.966 -28.755  11.882  0.00  0.00    -0.018 A 
ATOM      5  C   LIG    1       23.665 -28.537  12.394  0.00  0.00    +0.019 A 
ATOM      6  I   LIG    1       23.172 -27.031  13.792  0.00  0.00    -0.043 I 
ATOM      7  C   LIG    1       22.575 -29.322  11.986  0.00  0.00    +0.030 A 
ATOM      8  C   LIG    1       22.726 -30.289  10.993  0.00  0.00    +0.037 A 
ATOM      9  I   LIG    1       21.063 -31.561  10.682  0.00  0.00    -0.042 I 
ENDROOT
BRANCH   1  11
ATOM     10  C   LIG    1       23.989 -30.806   7.947  0.00  0.00    +0.217 C 
ATOM     11  N   LIG    1       24.113 -31.322   9.236  0.00  0.00    -0.284 N 
ATOM     12  H   LIG    1       24.814 -32.053   9.318  0.00  0.00    +0.155 HD
ATOM     13  O   LIG    1       23.793 -29.624   7.680  0.00  0.00    -0.276 OA
BRANCH  10  14
ATOM     14  C   LIG    1       24.183 -31.834   6.851  0.00  0.00    +0.096 C 
BRANCH  14  16
ATOM     15  C   LIG    1       26.605 -32.282   6.347  0.00  0.00    +0.004 C 
ATOM     16  C   LIG    1       25.365 -31.492   5.951  0.00  0.00    +0.006 C 
ENDBRANCH  14  16
ENDBRANCH  10  14
ENDBRANCH   1  11
BRANCH   4  17
ATOM     17  C   LIG    1       26.151 -27.899  12.338  0.00  0.00    +0.052 C 
BRANCH  17  18
ATOM     18  C   LIG    1       26.787 -28.213  13.713  0.00  0.00    +0.102 C 
BRANCH  18  19
ATOM     19  C   LIG    1       27.305 -26.927  14.414  0.00  0.00    +0.011 C 
ATOM     20  C   LIG    1       27.106 -25.622  13.646  0.00  0.00    +0.004 C 
ENDBRANCH  18  19
BRANCH  18  21
ATOM     21  C   LIG    1       27.894 -29.269  13.652  0.00  0.00    +0.308 C 
ATOM     22  O   LIG    1       27.738 -30.475  13.678  0.00  0.00    -0.251 OA
BRANCH  21  23
ATOM     23  O   LIG    1       29.134 -28.727  13.560  0.00  0.00    -0.480 OA
ATOM     24  H   LIG    1       29.576 -28.873  12.710  0.00  0.00    +0.295 HD
ENDBRANCH  21  23
ENDBRANCH  18  21
ENDBRANCH  17  18
ENDBRANCH   4  17
TORSDOF 8
ENDMDL
MODEL 6
REMARK VINA RESULT:      -4.5      1.459      1.897
REMARK  Name = *****
REMARK                            x       y       z     vdW  Elec       q    Type
REMARK                         _______ _______ _______ _____ _____    ______ ____
ROOT
ATOM      1  C   LIG    1       25.242 -30.926   7.992  0.00  0.00    +0.060 A 
ATOM      2  C   LIG    1       25.413 -30.641   9.376  0.00  0.00    +0.040 A 
ATOM      3  I   LIG    1       26.603 -28.912   9.857  0.00  0.00    -0.042 I 
ATOM      4  C   LIG    1       24.800 -31.437  10.395  0.00  0.00    -0.018 A 
ATOM      5  C   LIG    1       24.057 -32.558   9.957  0.00  0.00    +0.019 A 
ATOM      6  I   LIG    1       22.948 -33.825  11.235  0.00  0.00    -0.043 I 
ATOM      7  C   LIG    1       23.992 -32.911   8.600  0.00  0.00    +0.030 A 
ATOM      8  C   LIG    1       24.591 -32.112   7.627  0.00  0.00    +0.037 A 
ATOM      9  I   LIG    1       24.632 -32.917   5.669  0.00  0.00    -0.042 I 
ENDROOT
BRANCH   1  11
ATOM     10  C   LIG    1       24.825 -29.111   6.409  0.00  0.00    +0.217 C 
ATOM     11  N   LIG    1       25.710 -30.003   7.012  0.00  0.00    -0.284 N 
ATOM     12  H   LIG    1       26.635 -29.616   7.174  0.00  0.00    +0.155 HD
ATOM     13  O   LIG    1       23.631 -29.016   6.680  0.00  0.00    -0.276 OA
BRANCH  10  14
ATOM     14  C   LIG    1       25.475 -28.187   5.400  0.00  0.00    +0.096 C 
BRANCH  14  16
ATOM     15  C   LIG    1       25.625 -25.912   6.462  0.00  0.00    +0.004 C 
ATOM     16  C   LIG    1       24.887 -26.781   5.452  0.00  0.00    +0.006 C 
ENDBRANCH  14  16
ENDBRANCH  10  14
ENDBRANCH   1  11
BRANCH   4  17
ATOM     17  C   LIG    1       24.872 -31.063  11.877  0.00  0.00    +0.052 C 
BRANCH  17  18
ATOM     18  C   LIG    1       23.762 -30.150  12.451  0.00  0.00    +0.102 C 
BRANCH  18  19
ATOM     19  C   LIG    1       22.746 -29.721  11.357  0.00  0.00    +0.011 C 
ATOM     20  C   LIG    1       21.288 -30.093  11.618  0.00  0.00    +0.004 C 
ENDBRANCH  18  19
BRANCH  18  21
ATOM     21  C   LIG    1       24.297 -28.921  13.191  0.00  0.00    +0.308 C 
ATOM     22  O   LIG    1       24.211 -27.765  12.822  0.00  0.00    -0.251 OA
BRANCH  21  23
ATOM     23  O   LIG    1       24.911 -29.236  14.359  0.00  0.00    -0.480 OA
ATOM     24  H   LIG    1       24.567 -28.767  15.135  0.00  0.00    +0.295 HD
ENDBRANCH  21  23
ENDBRANCH  18  21
ENDBRANCH  17  18
ENDBRANCH   4  17
TORSDOF 8
ENDMDL
MODEL 7
REMARK VINA RESULT:      -4.4      2.704      6.881
REMARK  Name = *****
REMARK                            x       y       z     vdW  Elec       q    Type
REMARK                         _______ _______ _______ _____ _____    ______ ____
ROOT
ATOM      1  C   LIG    1       22.797 -31.853  10.545  0.00  0.00    +0.060 A 
ATOM      2  C   LIG    1       23.613 -32.000   9.388  0.00  0.00    +0.040 A 
ATOM      3  I   LIG    1       22.993 -33.489   7.961  0.00  0.00    -0.042 I 
ATOM      4  C   LIG    1       24.764 -31.179   9.164  0.00  0.00    -0.018 A 
ATOM      5  C   LIG    1       25.082 -30.249  10.182  0.00  0.00    +0.019 A 
ATOM      6  I   LIG    1       26.646 -28.833  10.054  0.00  0.00    -0.043 I 
ATOM      7  C   LIG    1       24.351 -30.191  11.378  0.00  0.00    +0.030 A 
ATOM      8  C   LIG    1       23.228 -30.996  11.566  0.00  0.00    +0.037 A 
ATOM      9  I   LIG    1       22.399 -30.984  13.514  0.00  0.00    -0.042 I 
ENDROOT
BRANCH   1  11
ATOM     10  C   LIG    1       20.356 -31.889  10.417  0.00  0.00    +0.217 C 
ATOM     11  N   LIG    1       21.560 -32.556  10.636  0.00  0.00    -0.284 N 
ATOM     12  H   LIG    1       21.567 -33.512  10.295  0.00  0.00    +0.155 HD
ATOM     13  O   LIG    1       20.256 -30.707  10.102  0.00  0.00    -0.276 OA
BRANCH  10  14
ATOM     14  C   LIG    1       19.132 -32.773  10.537  0.00  0.00    +0.096 C 
BRANCH  14  16
ATOM     15  C   LIG    1       17.337 -31.594  11.844  0.00  0.00    +0.004 C 
ATOM     16  C   LIG    1       17.838 -31.971  10.457  0.00  0.00    +0.006 C 
ENDBRANCH  14  16
ENDBRANCH  10  14
ENDBRANCH   1  11
BRANCH   4  17
ATOM     17  C   LIG    1       25.571 -31.241   7.865  0.00  0.00    +0.052 C 
BRANCH  17  18
ATOM     18  C   LIG    1       24.816 -31.033   6.530  0.00  0.00    +0.102 C 
BRANCH  18  19
ATOM     19  C   LIG    1       25.678 -31.458   5.310  0.00  0.00    +0.011 C 
ATOM     20  C   LIG    1       26.716 -32.547   5.573  0.00  0.00    +0.004 C 
ENDBRANCH  18  19
BRANCH  18  21
ATOM     21  C   LIG    1       24.286 -29.609   6.338  0.00  0.00    +0.308 C 
ATOM     22  O   LIG    1       24.747 -28.598   6.833  0.00  0.00    -0.251 OA
BRANCH  21  23
ATOM     23  O   LIG    1       23.201 -29.557   5.526  0.00  0.00    -0.480 OA
ATOM     24  H   LIG    1       22.358 -29.436   5.987  0.00  0.00    +0.295 HD
ENDBRANCH  21  23
ENDBRANCH  18  21
ENDBRANCH  17  18
ENDBRANCH   4  17
TORSDOF 8
ENDMDL
MODEL 8
REMARK VINA RESULT:      -4.4      3.005      7.475
REMARK  Name = *****
REMARK                            x       y       z     vdW  Elec       q    Type
REMARK                         _______ _______ _______ _____ _____    ______ ____
ROOT
ATOM      1  C   LIG    1       22.226 -28.584  12.600  0.00  0.00    +0.060 A 
ATOM      2  C   LIG    1       22.619 -29.632  11.721  0.00  0.00    +0.040 A 
ATOM      3  I   LIG    1       21.048 -30.918  11.001  0.00  0.00    -0.042 I 
ATOM      4  C   LIG    1       23.978 -29.804  11.308  0.00  0.00    -0.018 A 
ATOM      5  C   LIG    1       24.923 -28.910  11.863  0.00  0.00    +0.019 A 
ATOM      6  I   LIG    1       26.968 -28.857  11.331  0.00  0.00    -0.043 I 
ATOM      7  C   LIG    1       24.555 -27.957  12.825  0.00  0.00    +0.030 A 
ATOM      8  C   LIG    1       23.222 -27.804  13.203  0.00  0.00    +0.037 A 
ATOM      9  I   LIG    1       22.869 -26.519  14.848  0.00  0.00    -0.042 I 
ENDROOT
BRANCH   1  11
ATOM     10  C   LIG    1       20.198 -28.917  13.925  0.00  0.00    +0.217 C 
ATOM     11  N   LIG    1       20.842 -28.334  12.835  0.00  0.00    -0.284 N 
ATOM     12  H   LIG    1       20.520 -27.395  12.623  0.00  0.00    +0.155 HD
ATOM     13  O   LIG    1       20.743 -29.630  14.762  0.00  0.00    -0.276 OA
BRANCH  10  14
ATOM     14  C   LIG    1       18.735 -28.544  14.047  0.00  0.00    +0.096 C 
BRANCH  14  16
ATOM     15  C   LIG    1       18.207 -26.088  13.946  0.00  0.00    +0.004 C 
ATOM     16  C   LIG    1       18.537 -27.266  14.853  0.00  0.00    +0.006 C 
ENDBRANCH  14  16
ENDBRANCH  10  14
ENDBRANCH   1  11
BRANCH   4  17
ATOM     17  C   LIG    1       24.389 -30.845  10.264  0.00  0.00    +0.052 C 
BRANCH  17  18
ATOM     18  C   LIG    1       24.105 -30.533   8.775  0.00  0.00    +0.102 C 
BRANCH  18  19
ATOM     19  C   LIG    1       23.657 -31.800   7.997  0.00  0.00    +0.011 C 
ATOM     20  C   LIG    1       23.788 -33.124   8.746  0.00  0.00    +0.004 C 
ENDBRANCH  18  19
BRANCH  18  21
ATOM     21  C   LIG    1       25.271 -29.851   8.056  0.00  0.00    +0.308 C 
ATOM     22  O   LIG    1       25.371 -28.663   7.814  0.00  0.00    -0.251 OA
BRANCH  21  23
ATOM     23  O   LIG    1       26.244 -30.722   7.687  0.00  0.00    -0.480 OA
ATOM     24  H   LIG    1       26.330 -31.497   8.262  0.00  0.00    +0.295 HD
ENDBRANCH  21  23
ENDBRANCH  18  21
ENDBRANCH  17  18
ENDBRANCH   4  17
TORSDOF 8
ENDMDL
MODEL 9
REMARK VINA RESULT:      -4.1      2.060      2.571
REMARK  Name = *****
REMARK                            x       y       z     vdW  Elec       q    Type
REMARK                         _______ _______ _______ _____ _____    ______ ____
ROOT
ATOM      1  C   LIG    1       24.979 -30.963   7.918  0.00  0.00    +0.060 A 
ATOM      2  C   LIG    1       25.102 -30.614   9.293  0.00  0.00    +0.040 A 
ATOM      3  I   LIG    1       26.431 -28.983   9.751  0.00  0.00    -0.042 I 
ATOM      4  C   LIG    1       24.357 -31.284  10.313  0.00  0.00    -0.018 A 
ATOM      5  C   LIG    1       23.531 -32.353   9.892  0.00  0.00    +0.019 A 
ATOM      6  I   LIG    1       22.231 -33.428  11.167  0.00  0.00    -0.043 I 
ATOM      7  C   LIG    1       23.505 -32.778   8.555  0.00  0.00    +0.030 A 
ATOM      8  C   LIG    1       24.233 -32.100   7.578  0.00  0.00    +0.037 A 
ATOM      9  I   LIG    1       24.301 -33.020   5.672  0.00  0.00    -0.042 I 
ENDROOT
BRANCH   1  11
ATOM     10  C   LIG    1       24.834 -29.211   6.220  0.00  0.00    +0.217 C 
ATOM     11  N   LIG    1       25.590 -30.149   6.920  0.00  0.00    -0.284 N 
ATOM     12  H   LIG    1       26.540 -29.848   7.115  0.00  0.00    +0.155 HD
ATOM     13  O   LIG    1       23.644 -28.981   6.415  0.00  0.00    -0.276 OA
BRANCH  10  14
ATOM     14  C   LIG    1       25.628 -28.415   5.204  0.00  0.00    +0.096 C 
BRANCH  14  16
ATOM     15  C   LIG    1       26.043 -26.332   6.550  0.00  0.00    +0.004 C 
ATOM     16  C   LIG    1       25.365 -26.918   5.319  0.00  0.00    +0.006 C 
ENDBRANCH  14  16
ENDBRANCH  10  14
ENDBRANCH   1  11
BRANCH   4  17
ATOM     17  C   LIG    1       24.384 -30.832  11.775  0.00  0.00    +0.052 C 
BRANCH  17  18
ATOM     18  C   LIG    1       25.446 -31.457  12.711  0.00  0.00    +0.102 C 
BRANCH  18  19
ATOM     19  C   LIG    1       24.793 -32.295  13.844  0.00  0.00    +0.011 C 
ATOM     20  C   LIG    1       23.567 -31.675  14.510  0.00  0.00    +0.004 C 
ENDBRANCH  18  19
BRANCH  18  21
ATOM     21  C   LIG    1       26.426 -30.438  13.298  0.00  0.00    +0.308 C 
ATOM     22  O   LIG    1       27.594 -30.639  13.572  0.00  0.00    -0.251 OA
BRANCH  21  23
ATOM     23  O   LIG    1       25.861 -29.222  13.501  0.00  0.00    -0.480 OA
ATOM     24  H   LIG    1       26.369 -28.632  14.078  0.00  0.00    +0.295 HD
ENDBRANCH  21  23
ENDBRANCH  18  21
ENDBRANCH  17  18
ENDBRANCH   4  17
TORSDOF 8
ENDMDL
