MODEL 1
REMARK VINA RESULT:      -5.3      0.000      0.000
REMARK  Name = *****
REMARK                            x       y       z     vdW  Elec       q    Type
REMARK                         _______ _______ _______ _____ _____    ______ ____
ROOT
ATOM      1  C   LIG    1       25.623 -15.629   3.419  0.00  0.00    +0.121 C 
ATOM      2  C   LIG    1       25.409 -17.010   3.291  0.00  0.00    +0.056 C 
ATOM      3  C   LIG    1       24.204 -17.575   3.764  0.00  0.00    +0.006 C 
ATOM      4  C   LIG    1       23.220 -16.721   4.258  0.00  0.00    +0.047 C 
ATOM      5  N   LIG    1       22.130 -17.490   4.579  0.00  0.00    -0.360 NA
ATOM      6  H   LIG    1       21.255 -17.120   4.927  0.00  0.00    +0.165 HD
ATOM      7  C   LIG    1       22.420 -18.814   4.396  0.00  0.00    +0.087 C 
ATOM      8  C   LIG    1       23.397 -15.343   4.368  0.00  0.00    +0.030 C 
ATOM      9  C   LIG    1       23.714 -18.914   3.918  0.00  0.00    -0.021 C 
ATOM     10  C   LIG    1       24.625 -14.820   3.965  0.00  0.00    +0.048 C 
ENDROOT
BRANCH   1  12
ATOM     11  C   LIG    1       26.863 -13.815   2.552  0.00  0.00    +0.277 C 
ATOM     12  O   LIG    1       26.848 -15.168   3.005  0.00  0.00    -0.495 OA
ENDBRANCH   1  12
BRANCH   9  13
ATOM     13  C   LIG    1       24.466 -20.182   3.633  0.00  0.00    +0.056 C 
BRANCH  13  14
ATOM     14  C   LIG    1       25.340 -20.659   4.803  0.00  0.00    +0.109 C 
BRANCH  14  15
ATOM     15  N   LIG    1       26.688 -20.117   4.818  0.00  0.00    -0.315 N 
ATOM     16  H   LIG    1       27.133 -19.946   3.925  0.00  0.00    +0.149 HD
ATOM     17  C   LIG    1       27.443 -20.043   5.967  0.00  0.00    +0.210 C 
ATOM     18  O   LIG    1       27.052 -20.409   7.061  0.00  0.00    -0.276 OA
ATOM     19  C   LIG    1       28.794 -19.398   5.766  0.00  0.00    +0.109 C 
ENDBRANCH  14  15
ENDBRANCH  13  14
ENDBRANCH   9  13
TORSDOF 4
ENDMDL
MODEL 2
REMARK VINA RESULT:      -5.2      2.343      3.435
REMARK  Name = *****
REMARK                            x       y       z     vdW  Elec       q    Type
REMARK                         _______ _______ _______ _____ _____    ______ ____
ROOT
ATOM      1  C   LIG    1       24.927 -13.628   3.878  0.00  0.00    +0.121 C 
ATOM      2  C   LIG    1       24.180 -14.790   4.120  0.00  0.00    +0.056 C 
ATOM      3  C   LIG    1       24.739 -16.052   3.818  0.00  0.00    +0.006 C 
ATOM      4  C   LIG    1       26.061 -16.104   3.378  0.00  0.00    +0.047 C 
ATOM      5  N   LIG    1       26.394 -17.427   3.228  0.00  0.00    -0.360 NA
ATOM      6  H   LIG    1       27.309 -17.755   2.954  0.00  0.00    +0.165 HD
ATOM      7  C   LIG    1       25.301 -18.215   3.467  0.00  0.00    +0.087 C 
ATOM      8  C   LIG    1       26.832 -14.964   3.158  0.00  0.00    +0.030 C 
ATOM      9  C   LIG    1       24.239 -17.397   3.808  0.00  0.00    -0.021 C 
ATOM     10  C   LIG    1       26.230 -13.729   3.390  0.00  0.00    +0.048 C 
ENDROOT
BRANCH   1  12
ATOM     11  C   LIG    1       23.888 -11.712   2.964  0.00  0.00    +0.277 C 
ATOM     12  O   LIG    1       24.286 -12.438   4.126  0.00  0.00    -0.495 OA
ENDBRANCH   1  12
BRANCH   9  13
ATOM     13  C   LIG    1       22.832 -17.832   4.094  0.00  0.00    +0.056 C 
BRANCH  13  14
ATOM     14  C   LIG    1       22.637 -19.355   4.057  0.00  0.00    +0.109 C 
BRANCH  14  15
ATOM     15  N   LIG    1       22.659 -20.005   5.356  0.00  0.00    -0.315 N 
ATOM     16  H   LIG    1       22.090 -19.602   6.090  0.00  0.00    +0.149 HD
ATOM     17  C   LIG    1       23.572 -20.984   5.678  0.00  0.00    +0.210 C 
ATOM     18  O   LIG    1       24.425 -21.397   4.912  0.00  0.00    -0.276 OA
ATOM     19  C   LIG    1       23.383 -21.561   7.062  0.00  0.00    +0.109 C 
ENDBRANCH  14  15
ENDBRANCH  13  14
ENDBRANCH   9  13
TORSDOF 4
ENDMDL
MODEL 3
REMARK VINA RESULT:      -4.8      2.608      5.671
REMARK  Name = *****
REMARK                            x       y       z     vdW  Elec       q    Type
REMARK                         _______ _______ _______ _____ _____    ______ ____
ROOT
ATOM      1  C   LIG    1       24.404 -20.268   4.643  0.00  0.00    +0.121 C 
ATOM      2  C   LIG    1       25.643 -19.637   4.463  0.00  0.00    +0.056 C 
ATOM      3  C   LIG    1       26.707 -19.925   5.347  0.00  0.00    +0.006 C 
ATOM      4  C   LIG    1       26.515 -20.909   6.317  0.00  0.00    +0.047 C 
ATOM      5  N   LIG    1       27.701 -21.059   6.991  0.00  0.00    -0.360 NA
ATOM      6  H   LIG    1       27.855 -21.736   7.726  0.00  0.00    +0.165 HD
ATOM      7  C   LIG    1       28.612 -20.140   6.549  0.00  0.00    +0.087 C 
ATOM      8  C   LIG    1       25.302 -21.571   6.495  0.00  0.00    +0.030 C 
ATOM      9  C   LIG    1       28.023 -19.392   5.545  0.00  0.00    -0.021 C 
ATOM     10  C   LIG    1       24.246 -21.212   5.659  0.00  0.00    +0.048 C 
ENDROOT
BRANCH   1  12
ATOM     11  C   LIG    1       22.532 -18.868   4.300  0.00  0.00    +0.277 C 
ATOM     12  O   LIG    1       23.400 -19.879   3.791  0.00  0.00    -0.495 OA
ENDBRANCH   1  12
BRANCH   9  13
ATOM     13  C   LIG    1       28.639 -18.234   4.815  0.00  0.00    +0.056 C 
BRANCH  13  14
ATOM     14  C   LIG    1       27.609 -17.267   4.211  0.00  0.00    +0.109 C 
BRANCH  14  15
ATOM     15  N   LIG    1       27.997 -15.866   4.240  0.00  0.00    -0.315 N 
ATOM     16  H   LIG    1       28.681 -15.585   4.932  0.00  0.00    +0.149 HD
ATOM     17  C   LIG    1       27.321 -14.897   3.534  0.00  0.00    +0.210 C 
ATOM     18  O   LIG    1       26.358 -15.121   2.822  0.00  0.00    -0.276 OA
ATOM     19  C   LIG    1       27.924 -13.518   3.665  0.00  0.00    +0.109 C 
ENDBRANCH  14  15
ENDBRANCH  13  14
ENDBRANCH   9  13
TORSDOF 4
ENDMDL
MODEL 4
REMARK VINA RESULT:      -4.8      2.458      3.781
REMARK  Name = *****
REMARK                            x       y       z     vdW  Elec       q    Type
REMARK                         _______ _______ _______ _____ _____    ______ ____
ROOT
ATOM      1  C   LIG    1       24.928 -13.495   3.444  0.00  0.00    +0.121 C 
ATOM      2  C   LIG    1       24.462 -14.802   3.646  0.00  0.00    +0.056 C 
ATOM      3  C   LIG    1       25.370 -15.883   3.586  0.00  0.00    +0.006 C 
ATOM      4  C   LIG    1       26.726 -15.601   3.422  0.00  0.00    +0.047 C 
ATOM      5  N   LIG    1       27.403 -16.794   3.472  0.00  0.00    -0.360 NA
ATOM      6  H   LIG    1       28.409 -16.879   3.417  0.00  0.00    +0.165 HD
ATOM      7  C   LIG    1       26.517 -17.832   3.565  0.00  0.00    +0.087 C 
ATOM      8  C   LIG    1       27.216 -14.308   3.249  0.00  0.00    +0.030 C 
ATOM      9  C   LIG    1       25.237 -17.311   3.608  0.00  0.00    -0.021 C 
ATOM     10  C   LIG    1       26.289 -13.268   3.236  0.00  0.00    +0.048 C 
ENDROOT
BRANCH   1  12
ATOM     11  C   LIG    1       23.735 -11.896   4.709  0.00  0.00    +0.277 C 
ATOM     12  O   LIG    1       23.973 -12.508   3.443  0.00  0.00    -0.495 OA
ENDBRANCH   1  12
BRANCH   9  13
ATOM     13  C   LIG    1       23.955 -18.090   3.652  0.00  0.00    +0.056 C 
BRANCH  13  14
ATOM     14  C   LIG    1       24.160 -19.608   3.783  0.00  0.00    +0.109 C 
BRANCH  14  15
ATOM     15  N   LIG    1       24.064 -20.121   5.140  0.00  0.00    -0.315 N 
ATOM     16  H   LIG    1       24.899 -20.088   5.711  0.00  0.00    +0.149 HD
ATOM     17  C   LIG    1       22.974 -20.835   5.585  0.00  0.00    +0.210 C 
ATOM     18  O   LIG    1       22.000 -21.088   4.898  0.00  0.00    -0.276 OA
ATOM     19  C   LIG    1       23.058 -21.226   7.042  0.00  0.00    +0.109 C 
ENDBRANCH  14  15
ENDBRANCH  13  14
ENDBRANCH   9  13
TORSDOF 4
ENDMDL
MODEL 5
REMARK VINA RESULT:      -4.6      2.096      3.522
REMARK  Name = *****
REMARK                            x       y       z     vdW  Elec       q    Type
REMARK                         _______ _______ _______ _____ _____    ______ ____
ROOT
ATOM      1  C   LIG    1       25.261 -13.431   3.307  0.00  0.00    +0.121 C 
ATOM      2  C   LIG    1       24.899 -14.783   3.405  0.00  0.00    +0.056 C 
ATOM      3  C   LIG    1       25.903 -15.761   3.587  0.00  0.00    +0.006 C 
ATOM      4  C   LIG    1       27.219 -15.336   3.763  0.00  0.00    +0.047 C 
ATOM      5  N   LIG    1       27.984 -16.451   3.996  0.00  0.00    -0.360 NA
ATOM      6  H   LIG    1       28.975 -16.429   4.195  0.00  0.00    +0.165 HD
ATOM      7  C   LIG    1       27.218 -17.578   3.880  0.00  0.00    +0.087 C 
ATOM      8  C   LIG    1       27.598 -13.996   3.701  0.00  0.00    +0.030 C 
ATOM      9  C   LIG    1       25.919 -17.195   3.595  0.00  0.00    -0.021 C 
ATOM     10  C   LIG    1       26.599 -13.059   3.443  0.00  0.00    +0.048 C 
ENDROOT
BRANCH   1  12
ATOM     11  C   LIG    1       24.404 -11.749   1.887  0.00  0.00    +0.277 C 
ATOM     12  O   LIG    1       24.238 -12.551   3.055  0.00  0.00    -0.495 OA
ENDBRANCH   1  12
BRANCH   9  13
ATOM     13  C   LIG    1       24.757 -18.106   3.328  0.00  0.00    +0.056 C 
BRANCH  13  14
ATOM     14  C   LIG    1       25.014 -19.568   3.725  0.00  0.00    +0.109 C 
BRANCH  14  15
ATOM     15  N   LIG    1       24.124 -20.088   4.749  0.00  0.00    -0.315 N 
ATOM     16  H   LIG    1       23.128 -19.988   4.597  0.00  0.00    +0.149 HD
ATOM     17  C   LIG    1       24.576 -20.493   5.985  0.00  0.00    +0.210 C 
ATOM     18  O   LIG    1       25.746 -20.466   6.323  0.00  0.00    -0.276 OA
ATOM     19  C   LIG    1       23.490 -21.049   6.877  0.00  0.00    +0.109 C 
ENDBRANCH  14  15
ENDBRANCH  13  14
ENDBRANCH   9  13
TORSDOF 4
ENDMDL
MODEL 6
REMARK VINA RESULT:      -4.6      2.325      6.155
REMARK  Name = *****
REMARK                            x       y       z     vdW  Elec       q    Type
REMARK                         _______ _______ _______ _____ _____    ______ ____
ROOT
ATOM      1  C   LIG    1       23.992 -21.073   6.027  0.00  0.00    +0.121 C 
ATOM      2  C   LIG    1       24.502 -20.203   5.051  0.00  0.00    +0.056 C 
ATOM      3  C   LIG    1       25.854 -19.800   5.116  0.00  0.00    +0.006 C 
ATOM      4  C   LIG    1       26.667 -20.361   6.100  0.00  0.00    +0.047 C 
ATOM      5  N   LIG    1       27.937 -19.877   5.910  0.00  0.00    -0.360 NA
ATOM      6  H   LIG    1       28.738 -20.150   6.463  0.00  0.00    +0.165 HD
ATOM      7  C   LIG    1       27.941 -18.954   4.901  0.00  0.00    +0.087 C 
ATOM      8  C   LIG    1       26.190 -21.250   7.062  0.00  0.00    +0.030 C 
ATOM      9  C   LIG    1       26.656 -18.853   4.398  0.00  0.00    -0.021 C 
ATOM     10  C   LIG    1       24.835 -21.571   7.022  0.00  0.00    +0.048 C 
ENDROOT
BRANCH   1  12
ATOM     11  C   LIG    1       21.971 -20.734   4.851  0.00  0.00    +0.277 C 
ATOM     12  O   LIG    1       22.651 -21.357   5.939  0.00  0.00    -0.495 OA
ENDBRANCH   1  12
BRANCH   9  13
ATOM     13  C   LIG    1       26.190 -17.918   3.320  0.00  0.00    +0.056 C 
BRANCH  13  14
ATOM     14  C   LIG    1       26.861 -16.537   3.367  0.00  0.00    +0.109 C 
BRANCH  14  15
ATOM     15  N   LIG    1       25.946 -15.419   3.526  0.00  0.00    -0.315 N 
ATOM     16  H   LIG    1       25.137 -15.558   4.119  0.00  0.00    +0.149 HD
ATOM     17  C   LIG    1       26.016 -14.289   2.743  0.00  0.00    +0.210 C 
ATOM     18  O   LIG    1       26.846 -14.119   1.867  0.00  0.00    -0.276 OA
ATOM     19  C   LIG    1       25.004 -13.230   3.112  0.00  0.00    +0.109 C 
ENDBRANCH  14  15
ENDBRANCH  13  14
ENDBRANCH   9  13
TORSDOF 4
ENDMDL
MODEL 7
REMARK VINA RESULT:      -4.4      2.323      2.916
REMARK  Name = *****
REMARK                            x       y       z     vdW  Elec       q    Type
REMARK                         _______ _______ _______ _____ _____    ______ ____
ROOT
ATOM      1  C   LIG    1       26.887 -14.101   3.602  0.00  0.00    +0.121 C 
ATOM      2  C   LIG    1       26.513 -15.428   3.343  0.00  0.00    +0.056 C 
ATOM      3  C   LIG    1       25.211 -15.863   3.676  0.00  0.00    +0.006 C 
ATOM      4  C   LIG    1       24.303 -14.924   4.164  0.00  0.00    +0.047 C 
ATOM      5  N   LIG    1       23.101 -15.564   4.337  0.00  0.00    -0.360 NA
ATOM      6  H   LIG    1       22.254 -15.108   4.647  0.00  0.00    +0.165 HD
ATOM      7  C   LIG    1       23.237 -16.898   4.067  0.00  0.00    +0.087 C 
ATOM      8  C   LIG    1       24.642 -13.593   4.401  0.00  0.00    +0.030 C 
ATOM      9  C   LIG    1       24.545 -17.133   3.681  0.00  0.00    -0.021 C 
ATOM     10  C   LIG    1       25.956 -13.209   4.136  0.00  0.00    +0.048 C 
ENDROOT
BRANCH   1  12
ATOM     11  C   LIG    1       28.722 -12.691   4.079  0.00  0.00    +0.277 C 
ATOM     12  O   LIG    1       28.191 -13.777   3.321  0.00  0.00    -0.495 OA
ENDBRANCH   1  12
BRANCH   9  13
ATOM     13  C   LIG    1       25.153 -18.464   3.348  0.00  0.00    +0.056 C 
BRANCH  13  14
ATOM     14  C   LIG    1       24.219 -19.654   3.619  0.00  0.00    +0.109 C 
BRANCH  14  15
ATOM     15  N   LIG    1       24.244 -20.150   4.984  0.00  0.00    -0.315 N 
ATOM     16  H   LIG    1       25.150 -20.324   5.402  0.00  0.00    +0.149 HD
ATOM     17  C   LIG    1       23.113 -20.595   5.631  0.00  0.00    +0.210 C 
ATOM     18  O   LIG    1       22.002 -20.601   5.130  0.00  0.00    -0.276 OA
ATOM     19  C   LIG    1       23.356 -21.017   7.061  0.00  0.00    +0.109 C 
ENDBRANCH  14  15
ENDBRANCH  13  14
ENDBRANCH   9  13
TORSDOF 4
ENDMDL
MODEL 8
REMARK VINA RESULT:      -4.4      2.566      5.783
REMARK  Name = *****
REMARK                            x       y       z     vdW  Elec       q    Type
REMARK                         _______ _______ _______ _____ _____    ______ ____
ROOT
ATOM      1  C   LIG    1       22.721 -20.886   5.215  0.00  0.00    +0.121 C 
ATOM      2  C   LIG    1       23.629 -20.152   4.437  0.00  0.00    +0.056 C 
ATOM      3  C   LIG    1       24.981 -20.071   4.837  0.00  0.00    +0.006 C 
ATOM      4  C   LIG    1       25.391 -20.811   5.945  0.00  0.00    +0.047 C 
ATOM      5  N   LIG    1       26.744 -20.630   6.084  0.00  0.00    -0.360 NA
ATOM      6  H   LIG    1       27.309 -21.084   6.789  0.00  0.00    +0.165 HD
ATOM      7  C   LIG    1       27.194 -19.727   5.160  0.00  0.00    +0.087 C 
ATOM      8  C   LIG    1       24.513 -21.572   6.715  0.00  0.00    +0.030 C 
ATOM      9  C   LIG    1       26.122 -19.329   4.382  0.00  0.00    -0.021 C 
ATOM     10  C   LIG    1       23.170 -21.572   6.344  0.00  0.00    +0.048 C 
ENDROOT
BRANCH   1  12
ATOM     11  C   LIG    1       21.044 -19.702   4.046  0.00  0.00    +0.277 C 
ATOM     12  O   LIG    1       21.412 -20.854   4.802  0.00  0.00    -0.495 OA
ENDBRANCH   1  12
BRANCH   9  13
ATOM     13  C   LIG    1       26.145 -18.306   3.284  0.00  0.00    +0.056 C 
BRANCH  13  14
ATOM     14  C   LIG    1       26.865 -17.004   3.669  0.00  0.00    +0.109 C 
BRANCH  14  15
ATOM     15  N   LIG    1       26.185 -15.787   3.260  0.00  0.00    -0.315 N 
ATOM     16  H   LIG    1       25.294 -15.885   2.788  0.00  0.00    +0.149 HD
ATOM     17  C   LIG    1       26.795 -14.553   3.289  0.00  0.00    +0.210 C 
ATOM     18  O   LIG    1       27.939 -14.369   3.664  0.00  0.00    -0.276 OA
ATOM     19  C   LIG    1       25.890 -13.417   2.873  0.00  0.00    +0.109 C 
ENDBRANCH  14  15
ENDBRANCH  13  14
ENDBRANCH   9  13
TORSDOF 4
ENDMDL
MODEL 9
REMARK VINA RESULT:      -4.3      2.559      5.301
REMARK  Name = *****
REMARK                            x       y       z     vdW  Elec       q    Type
REMARK                         _______ _______ _______ _____ _____    ______ ____
ROOT
ATOM      1  C   LIG    1       23.793 -19.369   3.807  0.00  0.00    +0.121 C 
ATOM      2  C   LIG    1       24.725 -18.333   3.640  0.00  0.00    +0.056 C 
ATOM      3  C   LIG    1       24.329 -16.996   3.868  0.00  0.00    +0.006 C 
ATOM      4  C   LIG    1       23.042 -16.759   4.348  0.00  0.00    +0.047 C 
ATOM      5  N   LIG    1       22.924 -15.408   4.560  0.00  0.00    -0.360 NA
ATOM      6  H   LIG    1       22.102 -14.962   4.943  0.00  0.00    +0.165 HD
ATOM      7  C   LIG    1       24.058 -14.767   4.141  0.00  0.00    +0.087 C 
ATOM      8  C   LIG    1       22.108 -17.774   4.550  0.00  0.00    +0.030 C 
ATOM      9  C   LIG    1       24.948 -15.717   3.674  0.00  0.00    -0.021 C 
ATOM     10  C   LIG    1       22.501 -19.076   4.245  0.00  0.00    +0.048 C 
ENDROOT
BRANCH   1  12
ATOM     11  C   LIG    1       24.537 -21.461   4.615  0.00  0.00    +0.277 C 
ATOM     12  O   LIG    1       24.234 -20.631   3.494  0.00  0.00    -0.495 OA
ENDBRANCH   1  12
BRANCH   9  13
ATOM     13  C   LIG    1       26.295 -15.457   3.065  0.00  0.00    +0.056 C 
BRANCH  13  14
ATOM     14  C   LIG    1       26.446 -14.044   2.481  0.00  0.00    +0.109 C 
BRANCH  14  15
ATOM     15  N   LIG    1       27.625 -13.322   2.928  0.00  0.00    -0.315 N 
ATOM     16  H   LIG    1       28.371 -13.185   2.257  0.00  0.00    +0.149 HD
ATOM     17  C   LIG    1       27.853 -13.026   4.252  0.00  0.00    +0.210 C 
ATOM     18  O   LIG    1       27.094 -13.326   5.157  0.00  0.00    -0.276 OA
ATOM     19  C   LIG    1       29.112 -12.224   4.489  0.00  0.00    +0.109 C 
ENDBRANCH  14  15
ENDBRANCH  13  14
ENDBRANCH   9  13
TORSDOF 4
ENDMDL
