MODEL 1
REMARK VINA RESULT:      -4.6      0.000      0.000
REMARK  Name = *****
REMARK                            x       y       z     vdW  Elec       q    Type
REMARK                         _______ _______ _______ _____ _____    ______ ____
ROOT
ATOM      1  C   LIG    1       25.155 -14.289   3.724  0.00  0.00    +0.188 C 
ATOM      2  C   LIG    1       26.466 -14.039   3.013  0.00  0.00    +0.268 C 
ATOM      3  O   LIG    1       26.664 -14.150   1.813  0.00  0.00    -0.271 OA
ATOM      4  N   LIG    1       27.363 -13.670   3.959  0.00  0.00    -0.207 N 
ATOM      5  C   LIG    1       28.730 -13.307   3.690  0.00  0.00    +0.144 C 
ATOM      6  C   LIG    1       26.755 -13.522   5.156  0.00  0.00    +0.410 C 
ATOM      7  O   LIG    1       27.265 -13.110   6.186  0.00  0.00    -0.226 OA
ATOM      8  O   LIG    1       25.440 -13.876   5.068  0.00  0.00    -0.434 OA
ATOM      9  C   LIG    1       24.847 -15.783   3.731  0.00  0.00    +0.066 C 
ENDROOT
BRANCH   1  11
ATOM     10  C   LIG    1       23.898 -12.052   3.685  0.00  0.00    +0.008 C 
ATOM     11  C   LIG    1       23.999 -13.472   3.138  0.00  0.00    +0.054 C 
ENDBRANCH   1  11
TORSDOF 1
ENDMDL
MODEL 2
REMARK VINA RESULT:      -4.5      6.008      7.116
REMARK  Name = *****
REMARK                            x       y       z     vdW  Elec       q    Type
REMARK                         _______ _______ _______ _____ _____    ______ ____
ROOT
ATOM      1  C   LIG    1       23.965 -20.031   4.104  0.00  0.00    +0.188 C 
ATOM      2  C   LIG    1       25.255 -20.115   4.886  0.00  0.00    +0.268 C 
ATOM      3  O   LIG    1       26.331 -19.643   4.551  0.00  0.00    -0.271 OA
ATOM      4  N   LIG    1       24.984 -20.808   6.019  0.00  0.00    -0.207 N 
ATOM      5  C   LIG    1       25.942 -21.080   7.058  0.00  0.00    +0.144 C 
ATOM      6  C   LIG    1       23.660 -21.054   6.119  0.00  0.00    +0.410 C 
ATOM      7  O   LIG    1       23.084 -21.572   7.062  0.00  0.00    -0.226 OA
ATOM      8  O   LIG    1       23.009 -20.608   5.005  0.00  0.00    -0.434 OA
ATOM      9  C   LIG    1       24.053 -20.911   2.861  0.00  0.00    +0.066 C 
ENDROOT
BRANCH   1  11
ATOM     10  C   LIG    1       22.306 -18.100   4.437  0.00  0.00    +0.008 C 
ATOM     11  C   LIG    1       23.579 -18.590   3.753  0.00  0.00    +0.054 C 
ENDBRANCH   1  11
TORSDOF 1
ENDMDL
MODEL 3
REMARK VINA RESULT:      -4.5      1.509      3.593
REMARK  Name = *****
REMARK                            x       y       z     vdW  Elec       q    Type
REMARK                         _______ _______ _______ _____ _____    ______ ____
ROOT
ATOM      1  C   LIG    1       26.795 -14.227   3.317  0.00  0.00    +0.188 C 
ATOM      2  C   LIG    1       26.043 -13.599   4.467  0.00  0.00    +0.268 C 
ATOM      3  O   LIG    1       26.326 -13.700   5.651  0.00  0.00    -0.271 OA
ATOM      4  N   LIG    1       25.007 -12.910   3.931  0.00  0.00    -0.207 N 
ATOM      5  C   LIG    1       24.062 -12.134   4.692  0.00  0.00    +0.144 C 
ATOM      6  C   LIG    1       25.086 -12.907   2.583  0.00  0.00    +0.410 C 
ATOM      7  O   LIG    1       24.362 -12.299   1.812  0.00  0.00    -0.226 OA
ATOM      8  O   LIG    1       26.136 -13.675   2.168  0.00  0.00    -0.434 OA
ATOM      9  C   LIG    1       26.581 -15.737   3.320  0.00  0.00    +0.066 C 
ENDROOT
BRANCH   1  11
ATOM     10  C   LIG    1       28.612 -12.571   4.054  0.00  0.00    +0.008 C 
ATOM     11  C   LIG    1       28.284 -13.864   3.314  0.00  0.00    +0.054 C 
ENDBRANCH   1  11
TORSDOF 1
ENDMDL
MODEL 4
REMARK VINA RESULT:      -4.3      5.933      6.824
REMARK  Name = *****
REMARK                            x       y       z     vdW  Elec       q    Type
REMARK                         _______ _______ _______ _____ _____    ______ ____
ROOT
ATOM      1  C   LIG    1       24.192 -20.608   4.927  0.00  0.00    +0.188 C 
ATOM      2  C   LIG    1       25.368 -19.743   4.535  0.00  0.00    +0.268 C 
ATOM      3  O   LIG    1       25.355 -18.846   3.706  0.00  0.00    -0.271 OA
ATOM      4  N   LIG    1       26.424 -20.155   5.278  0.00  0.00    -0.207 N 
ATOM      5  C   LIG    1       27.735 -19.560   5.231  0.00  0.00    +0.144 C 
ATOM      6  C   LIG    1       26.035 -21.075   6.186  0.00  0.00    +0.410 C 
ATOM      7  O   LIG    1       26.725 -21.571   7.062  0.00  0.00    -0.226 OA
ATOM      8  O   LIG    1       24.714 -21.377   6.020  0.00  0.00    -0.434 OA
ATOM      9  C   LIG    1       23.846 -21.560   3.787  0.00  0.00    +0.066 C 
ENDROOT
BRANCH   1  11
ATOM     10  C   LIG    1       22.361 -18.934   4.269  0.00  0.00    +0.008 C 
ATOM     11  C   LIG    1       22.977 -19.788   5.373  0.00  0.00    +0.054 C 
ENDBRANCH   1  11
TORSDOF 1
ENDMDL
MODEL 5
REMARK VINA RESULT:      -4.0      5.262      6.547
REMARK  Name = *****
REMARK                            x       y       z     vdW  Elec       q    Type
REMARK                         _______ _______ _______ _____ _____    ______ ____
ROOT
ATOM      1  C   LIG    1       23.987 -20.451   4.609  0.00  0.00    +0.188 C 
ATOM      2  C   LIG    1       24.175 -19.152   3.861  0.00  0.00    +0.268 C 
ATOM      3  O   LIG    1       23.295 -18.502   3.317  0.00  0.00    -0.271 OA
ATOM      4  N   LIG    1       25.496 -18.853   3.916  0.00  0.00    -0.207 N 
ATOM      5  C   LIG    1       26.088 -17.669   3.350  0.00  0.00    +0.144 C 
ATOM      6  C   LIG    1       26.146 -19.724   4.717  0.00  0.00    +0.410 C 
ATOM      7  O   LIG    1       27.319 -19.673   5.048  0.00  0.00    -0.226 OA
ATOM      8  O   LIG    1       25.291 -20.693   5.158  0.00  0.00    -0.434 OA
ATOM      9  C   LIG    1       23.659 -21.572   3.628  0.00  0.00    +0.066 C 
ENDROOT
BRANCH   1  11
ATOM     10  C   LIG    1       23.394 -20.922   7.062  0.00  0.00    +0.008 C 
ATOM     11  C   LIG    1       22.941 -20.347   5.723  0.00  0.00    +0.054 C 
ENDBRANCH   1  11
TORSDOF 1
ENDMDL
MODEL 6
REMARK VINA RESULT:      -4.0      1.481      3.218
REMARK  Name = *****
REMARK                            x       y       z     vdW  Elec       q    Type
REMARK                         _______ _______ _______ _____ _____    ______ ____
ROOT
ATOM      1  C   LIG    1       27.219 -13.866   4.205  0.00  0.00    +0.188 C 
ATOM      2  C   LIG    1       26.457 -13.723   2.908  0.00  0.00    +0.268 C 
ATOM      3  O   LIG    1       26.822 -14.121   1.812  0.00  0.00    -0.271 OA
ATOM      4  N   LIG    1       25.302 -13.077   3.199  0.00  0.00    -0.207 N 
ATOM      5  C   LIG    1       24.273 -12.773   2.239  0.00  0.00    +0.144 C 
ATOM      6  C   LIG    1       25.173 -12.914   4.533  0.00  0.00    +0.410 C 
ATOM      7  O   LIG    1       24.207 -12.455   5.121  0.00  0.00    -0.226 OA
ATOM      8  O   LIG    1       26.287 -13.370   5.177  0.00  0.00    -0.434 OA
ATOM      9  C   LIG    1       28.439 -12.952   4.193  0.00  0.00    +0.066 C 
ENDROOT
BRANCH   1  11
ATOM     10  C   LIG    1       26.842 -16.351   3.682  0.00  0.00    +0.008 C 
ATOM     11  C   LIG    1       27.600 -15.319   4.511  0.00  0.00    +0.054 C 
ENDBRANCH   1  11
TORSDOF 1
ENDMDL
MODEL 7
REMARK VINA RESULT:      -3.9      1.207      2.869
REMARK  Name = *****
REMARK                            x       y       z     vdW  Elec       q    Type
REMARK                         _______ _______ _______ _____ _____    ______ ____
ROOT
ATOM      1  C   LIG    1       24.523 -13.331   4.096  0.00  0.00    +0.188 C 
ATOM      2  C   LIG    1       25.854 -13.111   4.777  0.00  0.00    +0.268 C 
ATOM      3  O   LIG    1       26.019 -12.717   5.922  0.00  0.00    -0.271 OA
ATOM      4  N   LIG    1       26.815 -13.437   3.878  0.00  0.00    -0.207 N 
ATOM      5  C   LIG    1       28.229 -13.400   4.147  0.00  0.00    +0.144 C 
ATOM      6  C   LIG    1       26.263 -13.964   2.764  0.00  0.00    +0.410 C 
ATOM      7  O   LIG    1       26.858 -14.440   1.812  0.00  0.00    -0.226 OA
ATOM      8  O   LIG    1       24.901 -13.926   2.846  0.00  0.00    -0.434 OA
ATOM      9  C   LIG    1       23.858 -11.988   3.813  0.00  0.00    +0.066 C 
ENDROOT
BRANCH   1  11
ATOM     10  C   LIG    1       23.233 -15.549   4.147  0.00  0.00    +0.008 C 
ATOM     11  C   LIG    1       23.601 -14.266   4.885  0.00  0.00    +0.054 C 
ENDBRANCH   1  11
TORSDOF 1
ENDMDL
MODEL 8
REMARK VINA RESULT:      -3.8      1.824      2.287
REMARK  Name = *****
REMARK                            x       y       z     vdW  Elec       q    Type
REMARK                         _______ _______ _______ _____ _____    ______ ____
ROOT
ATOM      1  C   LIG    1       25.331 -13.219   3.400  0.00  0.00    +0.188 C 
ATOM      2  C   LIG    1       25.579 -14.691   3.635  0.00  0.00    +0.268 C 
ATOM      3  O   LIG    1       24.730 -15.569   3.648  0.00  0.00    -0.271 OA
ATOM      4  N   LIG    1       26.912 -14.840   3.824  0.00  0.00    -0.207 N 
ATOM      5  C   LIG    1       27.568 -16.103   4.045  0.00  0.00    +0.144 C 
ATOM      6  C   LIG    1       27.556 -13.674   3.603  0.00  0.00    +0.410 C 
ATOM      7  O   LIG    1       28.764 -13.498   3.599  0.00  0.00    -0.226 OA
ATOM      8  O   LIG    1       26.659 -12.678   3.344  0.00  0.00    -0.434 OA
ATOM      9  C   LIG    1       24.612 -12.616   4.603  0.00  0.00    +0.066 C 
ENDROOT
BRANCH   1  11
ATOM     10  C   LIG    1       24.331 -11.467   1.812  0.00  0.00    +0.008 C 
ATOM     11  C   LIG    1       24.579 -12.946   2.094  0.00  0.00    +0.054 C 
ENDBRANCH   1  11
TORSDOF 1
ENDMDL
MODEL 9
REMARK VINA RESULT:      -3.7      1.814      3.476
REMARK  Name = *****
REMARK                            x       y       z     vdW  Elec       q    Type
REMARK                         _______ _______ _______ _____ _____    ______ ____
ROOT
ATOM      1  C   LIG    1       26.396 -13.924   3.425  0.00  0.00    +0.188 C 
ATOM      2  C   LIG    1       25.414 -15.043   3.684  0.00  0.00    +0.268 C 
ATOM      3  O   LIG    1       25.618 -16.233   3.501  0.00  0.00    -0.271 OA
ATOM      4  N   LIG    1       24.280 -14.470   4.156  0.00  0.00    -0.207 N 
ATOM      5  C   LIG    1       23.106 -15.199   4.560  0.00  0.00    +0.144 C 
ATOM      6  C   LIG    1       24.465 -13.148   4.357  0.00  0.00    +0.410 C 
ATOM      7  O   LIG    1       23.672 -12.370   4.861  0.00  0.00    -0.226 OA
ATOM      8  O   LIG    1       25.710 -12.774   3.941  0.00  0.00    -0.434 OA
ATOM      9  C   LIG    1       26.589 -13.740   1.923  0.00  0.00    +0.066 C 
ENDROOT
BRANCH   1  11
ATOM     10  C   LIG    1       28.749 -13.017   3.907  0.00  0.00    +0.008 C 
ATOM     11  C   LIG    1       27.732 -14.128   4.148  0.00  0.00    +0.054 C 
ENDBRANCH   1  11
TORSDOF 1
ENDMDL
