MODEL 1
REMARK VINA RESULT:      -7.5      0.000      0.000
REMARK  Name = *****
REMARK                            x       y       z     vdW  Elec       q    Type
REMARK                         _______ _______ _______ _____ _____    ______ ____
ROOT
ATOM      1  C   LIG    1       25.841 -19.519   4.380  0.00  0.00    +0.155 C 
ATOM      2  N   LIG    1       26.603 -20.127   5.453  0.00  0.00    -0.280 N 
ATOM      3  C   LIG    1       26.034 -21.186   6.165  0.00  0.00    +0.333 C 
ATOM      4  O   LIG    1       24.897 -21.594   5.910  0.00  0.00    -0.246 OA
ATOM      5  N   LIG    1       26.809 -21.764   7.188  0.00  0.00    -0.262 N 
ATOM      6  C   LIG    1       26.207 -22.862   7.916  0.00  0.00    +0.157 C 
ATOM      7  C   LIG    1       28.065 -21.313   7.606  0.00  0.00    +0.282 C 
ATOM      8  O   LIG    1       28.668 -21.750   8.583  0.00  0.00    -0.265 OA
ATOM      9  C   LIG    1       28.577 -20.267   6.793  0.00  0.00    +0.152 A 
ATOM     10  N   LIG    1       29.772 -19.605   6.799  0.00  0.00    -0.320 N 
ATOM     11  C   LIG    1       29.716 -18.670   5.797  0.00  0.00    +0.202 A 
ATOM     12  N   LIG    1       28.568 -18.715   5.152  0.00  0.00    -0.218 NA
ATOM     13  C   LIG    1       27.870 -19.706   5.769  0.00  0.00    +0.168 A 
ENDROOT
BRANCH  10  14
ATOM     14  C   LIG    1       30.924 -19.857   7.640  0.00  0.00    +0.184 C 
BRANCH  14  15
ATOM     15  C   LIG    1       30.733 -19.372   9.076  0.00  0.00    +0.270 C 
ATOM     16  O   LIG    1       31.982 -18.855   9.566  0.00  0.00    -0.347 OA
ATOM     17  C   LIG    1       31.634 -17.644  10.234  0.00  0.00    +0.191 C 
ATOM     18  C   LIG    1       30.466 -17.140   9.434  0.00  0.00    +0.191 C 
ATOM     19  O   LIG    1       29.740 -18.329   9.125  0.00  0.00    -0.347 OA
ENDBRANCH  14  15
ENDBRANCH  10  14
TORSDOF 2
ENDMDL
MODEL 2
REMARK VINA RESULT:      -7.4      2.073      3.749
REMARK  Name = *****
REMARK                            x       y       z     vdW  Elec       q    Type
REMARK                         _______ _______ _______ _____ _____    ______ ____
ROOT
ATOM      1  C   LIG    1       22.957 -22.848   6.895  0.00  0.00    +0.155 C 
ATOM      2  N   LIG    1       23.818 -21.873   6.256  0.00  0.00    -0.280 N 
ATOM      3  C   LIG    1       23.273 -21.030   5.285  0.00  0.00    +0.333 C 
ATOM      4  O   LIG    1       22.087 -21.115   4.952  0.00  0.00    -0.246 OA
ATOM      5  N   LIG    1       24.134 -20.083   4.697  0.00  0.00    -0.262 N 
ATOM      6  C   LIG    1       23.555 -19.215   3.694  0.00  0.00    +0.157 C 
ATOM      7  C   LIG    1       25.506 -19.974   4.944  0.00  0.00    +0.282 C 
ATOM      8  O   LIG    1       26.263 -19.227   4.328  0.00  0.00    -0.265 OA
ATOM      9  C   LIG    1       25.954 -20.839   5.977  0.00  0.00    +0.152 A 
ATOM     10  N   LIG    1       27.173 -20.995   6.575  0.00  0.00    -0.320 N 
ATOM     11  C   LIG    1       27.037 -21.996   7.503  0.00  0.00    +0.202 A 
ATOM     12  N   LIG    1       25.807 -22.465   7.538  0.00  0.00    -0.218 NA
ATOM     13  C   LIG    1       25.141 -21.744   6.595  0.00  0.00    +0.168 A 
ENDROOT
BRANCH  10  14
ATOM     14  C   LIG    1       28.380 -20.228   6.347  0.00  0.00    +0.184 C 
BRANCH  14  15
ATOM     15  C   LIG    1       29.383 -20.337   7.494  0.00  0.00    +0.270 C 
ATOM     16  O   LIG    1       30.687 -19.965   7.014  0.00  0.00    -0.347 OA
ATOM     17  C   LIG    1       31.219 -19.123   8.034  0.00  0.00    +0.191 C 
ATOM     18  C   LIG    1       30.000 -18.431   8.573  0.00  0.00    +0.191 C 
ATOM     19  O   LIG    1       29.010 -19.458   8.572  0.00  0.00    -0.347 OA
ENDBRANCH  14  15
ENDBRANCH  10  14
TORSDOF 2
ENDMDL
MODEL 3
REMARK VINA RESULT:      -7.0      1.374      2.666
REMARK  Name = *****
REMARK                            x       y       z     vdW  Elec       q    Type
REMARK                         _______ _______ _______ _____ _____    ______ ____
ROOT
ATOM      1  C   LIG    1       25.863 -22.934   7.582  0.00  0.00    +0.155 C 
ATOM      2  N   LIG    1       26.520 -21.820   6.929  0.00  0.00    -0.280 N 
ATOM      3  C   LIG    1       25.858 -21.167   5.886  0.00  0.00    +0.333 C 
ATOM      4  O   LIG    1       24.743 -21.532   5.504  0.00  0.00    -0.246 OA
ATOM      5  N   LIG    1       26.519 -20.077   5.287  0.00  0.00    -0.262 N 
ATOM      6  C   LIG    1       25.820 -19.408   4.209  0.00  0.00    +0.157 C 
ATOM      7  C   LIG    1       27.814 -19.649   5.590  0.00  0.00    +0.282 C 
ATOM      8  O   LIG    1       28.420 -18.779   4.969  0.00  0.00    -0.265 OA
ATOM      9  C   LIG    1       28.384 -20.343   6.691  0.00  0.00    +0.152 A 
ATOM     10  N   LIG    1       29.569 -20.192   7.354  0.00  0.00    -0.320 N 
ATOM     11  C   LIG    1       29.607 -21.155   8.330  0.00  0.00    +0.202 A 
ATOM     12  N   LIG    1       28.513 -21.888   8.333  0.00  0.00    -0.218 NA
ATOM     13  C   LIG    1       27.759 -21.379   7.321  0.00  0.00    +0.168 A 
ENDROOT
BRANCH  10  14
ATOM     14  C   LIG    1       30.586 -19.183   7.139  0.00  0.00    +0.184 C 
BRANCH  14  15
ATOM     15  C   LIG    1       31.313 -18.784   8.422  0.00  0.00    +0.270 C 
ATOM     16  O   LIG    1       32.106 -17.612   8.166  0.00  0.00    -0.347 OA
ATOM     17  C   LIG    1       31.875 -16.768   9.291  0.00  0.00    +0.191 C 
ATOM     18  C   LIG    1       30.454 -17.083   9.665  0.00  0.00    +0.191 C 
ATOM     19  O   LIG    1       30.364 -18.492   9.466  0.00  0.00    -0.347 OA
ENDBRANCH  14  15
ENDBRANCH  10  14
TORSDOF 2
ENDMDL
MODEL 4
REMARK VINA RESULT:      -6.8      1.878      2.494
REMARK  Name = *****
REMARK                            x       y       z     vdW  Elec       q    Type
REMARK                         _______ _______ _______ _____ _____    ______ ____
ROOT
ATOM      1  C   LIG    1       24.219 -19.956   3.379  0.00  0.00    +0.155 C 
ATOM      2  N   LIG    1       24.578 -20.354   4.726  0.00  0.00    -0.280 N 
ATOM      3  C   LIG    1       23.615 -20.977   5.522  0.00  0.00    +0.333 C 
ATOM      4  O   LIG    1       22.469 -21.175   5.109  0.00  0.00    -0.246 OA
ATOM      5  N   LIG    1       24.005 -21.366   6.819  0.00  0.00    -0.262 N 
ATOM      6  C   LIG    1       22.996 -22.013   7.633  0.00  0.00    +0.157 C 
ATOM      7  C   LIG    1       25.248 -21.105   7.403  0.00  0.00    +0.282 C 
ATOM      8  O   LIG    1       25.524 -21.338   8.577  0.00  0.00    -0.265 OA
ATOM      9  C   LIG    1       26.171 -20.512   6.501  0.00  0.00    +0.152 A 
ATOM     10  N   LIG    1       27.488 -20.172   6.631  0.00  0.00    -0.320 N 
ATOM     11  C   LIG    1       27.875 -19.611   5.441  0.00  0.00    +0.202 A 
ATOM     12  N   LIG    1       26.890 -19.593   4.567  0.00  0.00    -0.218 NA
ATOM     13  C   LIG    1       25.841 -20.155   5.226  0.00  0.00    +0.168 A 
ENDROOT
BRANCH  10  14
ATOM     14  C   LIG    1       28.358 -20.402   7.766  0.00  0.00    +0.184 C 
BRANCH  14  15
ATOM     15  C   LIG    1       29.562 -19.464   7.796  0.00  0.00    +0.270 C 
ATOM     16  O   LIG    1       29.546 -18.719   9.026  0.00  0.00    -0.347 OA
ATOM     17  C   LIG    1       30.896 -18.748   9.483  0.00  0.00    +0.191 C 
ATOM     18  C   LIG    1       31.386 -20.086   9.006  0.00  0.00    +0.191 C 
ATOM     19  O   LIG    1       30.788 -20.217   7.718  0.00  0.00    -0.347 OA
ENDBRANCH  14  15
ENDBRANCH  10  14
TORSDOF 2
ENDMDL
MODEL 5
REMARK VINA RESULT:      -6.4      3.290      6.866
REMARK  Name = *****
REMARK                            x       y       z     vdW  Elec       q    Type
REMARK                         _______ _______ _______ _____ _____    ______ ____
ROOT
ATOM      1  C   LIG    1       28.345 -20.170   6.657  0.00  0.00    +0.155 C 
ATOM      2  N   LIG    1       27.061 -20.578   6.123  0.00  0.00    -0.280 N 
ATOM      3  C   LIG    1       26.507 -19.845   5.072  0.00  0.00    +0.333 C 
ATOM      4  O   LIG    1       27.078 -18.854   4.608  0.00  0.00    -0.246 OA
ATOM      5  N   LIG    1       25.267 -20.281   4.566  0.00  0.00    -0.262 N 
ATOM      6  C   LIG    1       24.705 -19.512   3.475  0.00  0.00    +0.157 C 
ATOM      7  C   LIG    1       24.506 -21.333   5.084  0.00  0.00    +0.282 C 
ATOM      8  O   LIG    1       23.370 -21.616   4.712  0.00  0.00    -0.265 OA
ATOM      9  C   LIG    1       25.174 -22.044   6.117  0.00  0.00    +0.152 A 
ATOM     10  N   LIG    1       24.833 -23.161   6.827  0.00  0.00    -0.320 N 
ATOM     11  C   LIG    1       25.850 -23.392   7.719  0.00  0.00    +0.202 A 
ATOM     12  N   LIG    1       26.813 -22.502   7.602  0.00  0.00    -0.218 NA
ATOM     13  C   LIG    1       26.392 -21.674   6.608  0.00  0.00    +0.168 A 
ENDROOT
BRANCH  10  14
ATOM     14  C   LIG    1       23.667 -24.002   6.656  0.00  0.00    +0.184 C 
BRANCH  14  15
ATOM     15  C   LIG    1       23.917 -25.189   5.728  0.00  0.00    +0.270 C 
ATOM     16  O   LIG    1       25.164 -24.991   5.039  0.00  0.00    -0.347 OA
ATOM     17  C   LIG    1       25.814 -26.258   5.099  0.00  0.00    +0.191 C 
ATOM     18  C   LIG    1       25.355 -26.813   6.417  0.00  0.00    +0.191 C 
ATOM     19  O   LIG    1       23.987 -26.412   6.486  0.00  0.00    -0.347 OA
ENDBRANCH  14  15
ENDBRANCH  10  14
TORSDOF 2
ENDMDL
MODEL 6
REMARK VINA RESULT:      -6.3      7.208     10.184
REMARK  Name = *****
REMARK                            x       y       z     vdW  Elec       q    Type
REMARK                         _______ _______ _______ _____ _____    ______ ____
ROOT
ATOM      1  C   LIG    1       23.513 -32.331   8.015  0.00  0.00    +0.155 C 
ATOM      2  N   LIG    1       24.360 -31.172   8.219  0.00  0.00    -0.280 N 
ATOM      3  C   LIG    1       25.174 -31.126   9.353  0.00  0.00    +0.333 C 
ATOM      4  O   LIG    1       25.170 -32.037  10.185  0.00  0.00    -0.246 OA
ATOM      5  N   LIG    1       25.996 -29.993   9.509  0.00  0.00    -0.262 N 
ATOM      6  C   LIG    1       26.837 -29.959  10.688  0.00  0.00    +0.157 C 
ATOM      7  C   LIG    1       26.002 -28.874   8.670  0.00  0.00    +0.282 C 
ATOM      8  O   LIG    1       26.632 -27.844   8.894  0.00  0.00    -0.265 OA
ATOM      9  C   LIG    1       25.179 -29.037   7.524  0.00  0.00    +0.152 A 
ATOM     10  N   LIG    1       24.960 -28.243   6.434  0.00  0.00    -0.320 N 
ATOM     11  C   LIG    1       24.045 -28.891   5.644  0.00  0.00    +0.202 A 
ATOM     12  N   LIG    1       23.690 -30.050   6.160  0.00  0.00    -0.218 NA
ATOM     13  C   LIG    1       24.397 -30.136   7.319  0.00  0.00    +0.168 A 
ENDROOT
BRANCH  10  14
ATOM     14  C   LIG    1       25.599 -26.984   6.108  0.00  0.00    +0.184 C 
BRANCH  14  15
ATOM     15  C   LIG    1       24.624 -25.943   5.563  0.00  0.00    +0.270 C 
ATOM     16  O   LIG    1       23.693 -25.584   6.599  0.00  0.00    -0.347 OA
ATOM     17  C   LIG    1       23.599 -24.164   6.524  0.00  0.00    +0.191 C 
ATOM     18  C   LIG    1       24.976 -23.756   6.085  0.00  0.00    +0.191 C 
ATOM     19  O   LIG    1       25.334 -24.763   5.140  0.00  0.00    -0.347 OA
ENDBRANCH  14  15
ENDBRANCH  10  14
TORSDOF 2
ENDMDL
MODEL 7
REMARK VINA RESULT:      -6.2      1.787      5.832
REMARK  Name = *****
REMARK                            x       y       z     vdW  Elec       q    Type
REMARK                         _______ _______ _______ _____ _____    ______ ____
ROOT
ATOM      1  C   LIG    1       29.651 -18.047   4.996  0.00  0.00    +0.155 C 
ATOM      2  N   LIG    1       29.279 -19.045   5.979  0.00  0.00    -0.280 N 
ATOM      3  C   LIG    1       30.167 -19.327   7.019  0.00  0.00    +0.333 C 
ATOM      4  O   LIG    1       31.260 -18.760   7.104  0.00  0.00    -0.246 OA
ATOM      5  N   LIG    1       29.764 -20.290   7.966  0.00  0.00    -0.262 N 
ATOM      6  C   LIG    1       30.694 -20.570   9.040  0.00  0.00    +0.157 C 
ATOM      7  C   LIG    1       28.590 -21.046   7.903  0.00  0.00    +0.282 C 
ATOM      8  O   LIG    1       28.319 -21.969   8.667  0.00  0.00    -0.265 OA
ATOM      9  C   LIG    1       27.735 -20.654   6.839  0.00  0.00    +0.152 A 
ATOM     10  N   LIG    1       26.485 -21.065   6.471  0.00  0.00    -0.320 N 
ATOM     11  C   LIG    1       26.146 -20.357   5.346  0.00  0.00    +0.202 A 
ATOM     12  N   LIG    1       27.096 -19.515   4.996  0.00  0.00    -0.218 NA
ATOM     13  C   LIG    1       28.074 -19.700   5.924  0.00  0.00    +0.168 A 
ENDROOT
BRANCH  10  14
ATOM     14  C   LIG    1       25.626 -22.015   7.147  0.00  0.00    +0.184 C 
BRANCH  14  15
ATOM     15  C   LIG    1       24.882 -22.939   6.185  0.00  0.00    +0.270 C 
ATOM     16  O   LIG    1       25.042 -24.300   6.624  0.00  0.00    -0.347 OA
ATOM     17  C   LIG    1       23.742 -24.872   6.504  0.00  0.00    +0.191 C 
ATOM     18  C   LIG    1       22.833 -23.714   6.800  0.00  0.00    +0.191 C 
ATOM     19  O   LIG    1       23.479 -22.614   6.161  0.00  0.00    -0.347 OA
ENDBRANCH  14  15
ENDBRANCH  10  14
TORSDOF 2
ENDMDL
MODEL 8
REMARK VINA RESULT:      -6.0      1.999      6.217
REMARK  Name = *****
REMARK                            x       y       z     vdW  Elec       q    Type
REMARK                         _______ _______ _______ _____ _____    ______ ____
ROOT
ATOM      1  C   LIG    1       30.397 -20.335   8.994  0.00  0.00    +0.155 C 
ATOM      2  N   LIG    1       29.501 -20.116   7.875  0.00  0.00    -0.280 N 
ATOM      3  C   LIG    1       29.843 -19.159   6.918  0.00  0.00    +0.333 C 
ATOM      4  O   LIG    1       30.876 -18.489   7.018  0.00  0.00    -0.246 OA
ATOM      5  N   LIG    1       28.959 -18.985   5.836  0.00  0.00    -0.262 N 
ATOM      6  C   LIG    1       29.327 -17.991   4.849  0.00  0.00    +0.157 C 
ATOM      7  C   LIG    1       27.727 -19.630   5.685  0.00  0.00    +0.282 C 
ATOM      8  O   LIG    1       26.913 -19.371   4.802  0.00  0.00    -0.265 OA
ATOM      9  C   LIG    1       27.492 -20.616   6.681  0.00  0.00    +0.152 A 
ATOM     10  N   LIG    1       26.476 -21.511   6.860  0.00  0.00    -0.320 N 
ATOM     11  C   LIG    1       26.756 -22.209   8.008  0.00  0.00    +0.202 A 
ATOM     12  N   LIG    1       27.891 -21.819   8.550  0.00  0.00    -0.218 NA
ATOM     13  C   LIG    1       28.344 -20.837   7.724  0.00  0.00    +0.168 A 
ENDROOT
BRANCH  10  14
ATOM     14  C   LIG    1       25.340 -21.753   5.994  0.00  0.00    +0.184 C 
BRANCH  14  15
ATOM     15  C   LIG    1       24.126 -20.897   6.349  0.00  0.00    +0.270 C 
ATOM     16  O   LIG    1       23.977 -19.863   5.359  0.00  0.00    -0.347 OA
ATOM     17  C   LIG    1       22.581 -19.841   5.070  0.00  0.00    +0.191 C 
ATOM     18  C   LIG    1       22.176 -21.278   5.239  0.00  0.00    +0.191 C 
ATOM     19  O   LIG    1       22.933 -21.703   6.371  0.00  0.00    -0.347 OA
ENDBRANCH  14  15
ENDBRANCH  10  14
TORSDOF 2
ENDMDL
MODEL 9
REMARK VINA RESULT:      -6.0      1.729      5.390
REMARK  Name = *****
REMARK                            x       y       z     vdW  Elec       q    Type
REMARK                         _______ _______ _______ _____ _____    ______ ____
ROOT
ATOM      1  C   LIG    1       31.920 -17.738   7.980  0.00  0.00    +0.155 C 
ATOM      2  N   LIG    1       31.056 -18.893   7.840  0.00  0.00    -0.280 N 
ATOM      3  C   LIG    1       31.254 -19.987   8.685  0.00  0.00    +0.333 C 
ATOM      4  O   LIG    1       32.156 -19.994   9.528  0.00  0.00    -0.246 OA
ATOM      5  N   LIG    1       30.385 -21.085   8.532  0.00  0.00    -0.262 N 
ATOM      6  C   LIG    1       30.600 -22.211   9.417  0.00  0.00    +0.157 C 
ATOM      7  C   LIG    1       29.397 -21.204   7.550  0.00  0.00    +0.282 C 
ATOM      8  O   LIG    1       28.736 -22.221   7.353  0.00  0.00    -0.265 OA
ATOM      9  C   LIG    1       29.242 -20.025   6.773  0.00  0.00    +0.152 A 
ATOM     10  N   LIG    1       28.361 -19.691   5.783  0.00  0.00    -0.320 N 
ATOM     11  C   LIG    1       28.687 -18.424   5.370  0.00  0.00    +0.202 A 
ATOM     12  N   LIG    1       29.705 -17.937   6.049  0.00  0.00    -0.218 NA
ATOM     13  C   LIG    1       30.041 -18.929   6.917  0.00  0.00    +0.168 A 
ENDROOT
BRANCH  10  14
ATOM     14  C   LIG    1       27.246 -20.469   5.285  0.00  0.00    +0.184 C 
BRANCH  14  15
ATOM     15  C   LIG    1       25.996 -20.348   6.155  0.00  0.00    +0.270 C 
ATOM     16  O   LIG    1       24.864 -20.069   5.312  0.00  0.00    -0.347 OA
ATOM     17  C   LIG    1       23.832 -20.922   5.802  0.00  0.00    +0.191 C 
ATOM     18  C   LIG    1       24.588 -22.131   6.276  0.00  0.00    +0.191 C 
ATOM     19  O   LIG    1       25.760 -21.576   6.869  0.00  0.00    -0.347 OA
ENDBRANCH  14  15
ENDBRANCH  10  14
TORSDOF 2
ENDMDL
