MODEL 1
REMARK VINA RESULT:      -8.1      0.000      0.000
REMARK  Name = *****
REMARK                            x       y       z     vdW  Elec       q    Type
REMARK                         _______ _______ _______ _____ _____    ______ ____
ROOT
ATOM      1  C   LIG    1       23.318 -31.933  10.420  0.00  0.00    +0.035 C 
ATOM      2  N   LIG    1       23.936 -30.780  10.332  0.00  0.00    -0.342 NA
ATOM      3  C   LIG    1       24.491 -30.430  11.662  0.00  0.00    +0.058 C 
ATOM      4  C   LIG    1       23.152 -30.118  11.930  0.00  0.00    +0.020 C 
ATOM      5  C   LIG    1       22.483 -31.428  11.469  0.00  0.00    +0.066 C 
ENDROOT
BRANCH   3   6
ATOM      6  C   LIG    1       25.932 -29.999  11.969  0.00  0.00    -0.001 C 
ATOM      7  C   LIG    1       26.801 -29.667  10.915  0.00  0.00    +0.013 C 
ATOM      8  C   LIG    1       28.184 -29.480  11.136  0.00  0.00    +0.039 C 
ATOM      9  C   LIG    1       28.720 -29.598  12.415  0.00  0.00    +0.123 C 
ATOM     10  F   LIG    1       30.028 -29.427  12.631  0.00  0.00    -0.205 F 
ATOM     11  C   LIG    1       27.903 -29.832  13.484  0.00  0.00    +0.039 C 
ATOM     12  C   LIG    1       26.539 -29.954  13.243  0.00  0.00    +0.013 C 
ENDBRANCH   3   6
BRANCH   4  13
ATOM     13  C   LIG    1       22.732 -28.804  12.393  0.00  0.00    -0.015 C 
ATOM     14  C   LIG    1       23.573 -27.868  12.972  0.00  0.00    +0.008 C 
ATOM     15  C   LIG    1       23.030 -26.650  13.431  0.00  0.00    +0.001 C 
ATOM     16  C   LIG    1       21.651 -26.415  13.446  0.00  0.00    +0.000 C 
ATOM     17  C   LIG    1       20.803 -27.402  13.016  0.00  0.00    +0.001 C 
ATOM     18  C   LIG    1       21.376 -28.511  12.412  0.00  0.00    +0.008 C 
ENDBRANCH   4  13
BRANCH   5  19
ATOM     19  C   LIG    1       21.252 -31.967  12.014  0.00  0.00    +0.251 C 
ATOM     20  N   LIG    1       20.107 -31.611  11.322  0.00  0.00    -0.281 N 
ATOM     21  H   LIG    1       20.290 -31.355  10.371  0.00  0.00    +0.155 HD
ATOM     22  O   LIG    1       21.290 -32.759  12.934  0.00  0.00    -0.270 OA
BRANCH  20  23
ATOM     23  C   LIG    1       18.791 -32.078  11.536  0.00  0.00    +0.034 C 
ATOM     24  C   LIG    1       18.367 -33.322  11.073  0.00  0.00    +0.023 C 
ATOM     25  C   LIG    1       17.106 -33.824  11.444  0.00  0.00    +0.002 C 
ATOM     26  C   LIG    1       16.259 -33.083  12.268  0.00  0.00    +0.000 C 
ATOM     27  C   LIG    1       16.678 -31.842  12.738  0.00  0.00    +0.002 C 
ATOM     28  C   LIG    1       17.945 -31.353  12.391  0.00  0.00    +0.023 C 
ENDBRANCH  20  23
ENDBRANCH   5  19
BRANCH   1  30
ATOM     29  C   LIG    1       22.672 -33.184   8.278  0.00  0.00    +0.014 C 
ATOM     30  C   LIG    1       23.549 -33.130   9.453  0.00  0.00    +0.030 C 
ATOM     31  C   LIG    1       24.915 -33.350   8.778  0.00  0.00    +0.014 C 
ENDBRANCH   1  30
BRANCH   2  32
ATOM     32  C   LIG    1       23.791 -29.866   9.208  0.00  0.00    +0.124 C 
BRANCH  32  33
ATOM     33  C   LIG    1       24.499 -29.879   7.499  0.00  0.00    +0.053 C 
BRANCH  33  34
ATOM     34  C   LIG    1       24.218 -28.945   6.344  0.00  0.00    +0.119 C 
BRANCH  34  35
ATOM     35  O   LIG    1       23.219 -29.657   5.533  0.00  0.00    -0.392 OA
ATOM     36  H   LIG    1       23.196 -29.261   4.641  0.00  0.00    +0.210 HD
ENDBRANCH  34  35
BRANCH  34  37
ATOM     37  C   LIG    1       25.322 -28.541   5.325  0.00  0.00    +0.063 C 
BRANCH  37  38
ATOM     38  C   LIG    1       25.874 -27.099   5.257  0.00  0.00    +0.128 C 
BRANCH  38  39
ATOM     39  O   LIG    1       27.278 -27.102   5.061  0.00  0.00    -0.391 OA
ATOM     40  H   LIG    1       27.447 -27.797   4.386  0.00  0.00    +0.210 HD
ENDBRANCH  38  39
BRANCH  38  41
ATOM     41  C   LIG    1       25.737 -26.279   6.499  0.00  0.00    +0.151 C 
BRANCH  41  42
ATOM     42  C   LIG    1       25.433 -25.154   5.968  0.00  0.00    +0.307 C 
ATOM     43  O   LIG    1       25.104 -25.136   4.600  0.00  0.00    -0.251 OA
BRANCH  42  44
ATOM     44  O   LIG    1       26.018 -24.162   7.112  0.00  0.00    -0.481 OA
ATOM     45  H   LIG    1       26.946 -24.061   7.420  0.00  0.00    +0.295 HD
ENDBRANCH  42  44
ENDBRANCH  41  42
ENDBRANCH  38  41
ENDBRANCH  37  38
ENDBRANCH  34  37
ENDBRANCH  33  34
ENDBRANCH  32  33
ENDBRANCH   2  32
TORSDOF 15
ENDMDL
MODEL 2
REMARK VINA RESULT:      -7.5      3.267      6.430
REMARK  Name = *****
REMARK                            x       y       z     vdW  Elec       q    Type
REMARK                         _______ _______ _______ _____ _____    ______ ____
ROOT
ATOM      1  C   LIG    1       24.185 -30.112  10.149  0.00  0.00    +0.035 C 
ATOM      2  N   LIG    1       25.118 -29.941   9.243  0.00  0.00    -0.342 NA
ATOM      3  C   LIG    1       24.478 -29.547   7.965  0.00  0.00    +0.058 C 
ATOM      4  C   LIG    1       24.161 -30.911   7.920  0.00  0.00    +0.020 C 
ATOM      5  C   LIG    1       23.525 -31.074   9.316  0.00  0.00    +0.066 C 
ENDROOT
BRANCH   3   6
ATOM      6  C   LIG    1       24.859 -28.351   7.081  0.00  0.00    -0.001 C 
ATOM      7  C   LIG    1       25.876 -27.473   7.494  0.00  0.00    +0.013 C 
ATOM      8  C   LIG    1       26.105 -26.249   6.826  0.00  0.00    +0.039 C 
ATOM      9  C   LIG    1       25.339 -25.892   5.720  0.00  0.00    +0.123 C 
ATOM     10  F   LIG    1       25.546 -24.733   5.085  0.00  0.00    -0.205 F 
ATOM     11  C   LIG    1       24.399 -26.750   5.228  0.00  0.00    +0.039 C 
ATOM     12  C   LIG    1       24.236 -27.972   5.871  0.00  0.00    +0.013 C 
ENDBRANCH   3   6
BRANCH   4  13
ATOM     13  C   LIG    1       24.541 -31.767   6.808  0.00  0.00    -0.015 C 
ATOM     14  C   LIG    1       25.813 -31.831   6.264  0.00  0.00    +0.008 C 
ATOM     15  C   LIG    1       26.040 -32.662   5.147  0.00  0.00    +0.001 C 
ATOM     16  C   LIG    1       24.993 -33.316   4.487  0.00  0.00    +0.000 C 
ATOM     17  C   LIG    1       23.709 -33.131   4.931  0.00  0.00    +0.001 C 
ATOM     18  C   LIG    1       23.544 -32.453   6.129  0.00  0.00    +0.008 C 
ENDBRANCH   4  13
BRANCH   5  19
ATOM     19  C   LIG    1       22.493 -32.036   9.649  0.00  0.00    +0.251 C 
ATOM     20  N   LIG    1       21.414 -31.512  10.342  0.00  0.00    -0.281 N 
ATOM     21  H   LIG    1       21.305 -30.526  10.206  0.00  0.00    +0.155 HD
ATOM     22  O   LIG    1       22.561 -33.173   9.227  0.00  0.00    -0.270 OA
BRANCH  20  23
ATOM     23  C   LIG    1       20.214 -32.169  10.691  0.00  0.00    +0.034 C 
ATOM     24  C   LIG    1       20.177 -33.171  11.659  0.00  0.00    +0.023 C 
ATOM     25  C   LIG    1       18.945 -33.688  12.096  0.00  0.00    +0.002 C 
ATOM     26  C   LIG    1       17.744 -33.217  11.564  0.00  0.00    +0.000 C 
ATOM     27  C   LIG    1       17.773 -32.214  10.601  0.00  0.00    +0.002 C 
ATOM     28  C   LIG    1       19.000 -31.678  10.183  0.00  0.00    +0.023 C 
ENDBRANCH  20  23
ENDBRANCH   5  19
BRANCH   1  30
ATOM     29  C   LIG    1       22.957 -28.846  12.009  0.00  0.00    +0.014 C 
ATOM     30  C   LIG    1       24.208 -29.473  11.568  0.00  0.00    +0.030 C 
ATOM     31  C   LIG    1       24.538 -30.318  12.811  0.00  0.00    +0.014 C 
ENDBRANCH   1  30
BRANCH   2  32
ATOM     32  C   LIG    1       26.492 -30.398   9.398  0.00  0.00    +0.124 C 
BRANCH  32  33
ATOM     33  C   LIG    1       27.675 -30.309  10.817  0.00  0.00    +0.053 C 
BRANCH  33  34
ATOM     34  C   LIG    1       28.140 -29.100  11.596  0.00  0.00    +0.119 C 
BRANCH  34  35
ATOM     35  O   LIG    1       29.603 -29.242  11.656  0.00  0.00    -0.392 OA
ATOM     36  H   LIG    1       29.939 -28.732  12.417  0.00  0.00    +0.210 HD
ENDBRANCH  34  35
BRANCH  34  37
ATOM     37  C   LIG    1       27.717 -28.860  13.073  0.00  0.00    +0.063 C 
BRANCH  37  38
ATOM     38  C   LIG    1       27.245 -27.474  13.567  0.00  0.00    +0.128 C 
BRANCH  38  39
ATOM     39  O   LIG    1       26.304 -27.603  14.620  0.00  0.00    -0.391 OA
ATOM     40  H   LIG    1       26.803 -27.404  15.443  0.00  0.00    +0.210 HD
ENDBRANCH  38  39
BRANCH  38  41
ATOM     41  C   LIG    1       26.492 -26.641  12.581  0.00  0.00    +0.151 C 
BRANCH  41  42
ATOM     42  C   LIG    1       26.282 -25.606  13.305  0.00  0.00    +0.307 C 
ATOM     43  O   LIG    1       24.953 -25.172  13.466  0.00  0.00    -0.251 OA
BRANCH  42  44
ATOM     44  O   LIG    1       27.791 -25.011  13.350  0.00  0.00    -0.481 OA
ATOM     45  H   LIG    1       28.127 -24.228  13.841  0.00  0.00    +0.295 HD
ENDBRANCH  42  44
ENDBRANCH  41  42
ENDBRANCH  38  41
ENDBRANCH  37  38
ENDBRANCH  34  37
ENDBRANCH  33  34
ENDBRANCH  32  33
ENDBRANCH   2  32
TORSDOF 15
ENDMDL
MODEL 3
REMARK VINA RESULT:      -6.7      3.653      6.956
REMARK  Name = *****
REMARK                            x       y       z     vdW  Elec       q    Type
REMARK                         _______ _______ _______ _____ _____    ______ ____
ROOT
ATOM      1  C   LIG    1       24.045 -30.139  10.476  0.00  0.00    +0.035 C 
ATOM      2  N   LIG    1       25.021 -30.045   9.605  0.00  0.00    -0.342 NA
ATOM      3  C   LIG    1       24.441 -29.837   8.256  0.00  0.00    +0.058 C 
ATOM      4  C   LIG    1       24.170 -31.207   8.367  0.00  0.00    +0.020 C 
ATOM      5  C   LIG    1       23.464 -31.221   9.738  0.00  0.00    +0.066 C 
ENDROOT
BRANCH   3   6
ATOM      6  C   LIG    1       24.831 -28.745   7.250  0.00  0.00    -0.001 C 
ATOM      7  C   LIG    1       25.808 -27.796   7.594  0.00  0.00    +0.013 C 
ATOM      8  C   LIG    1       26.037 -26.654   6.792  0.00  0.00    +0.039 C 
ATOM      9  C   LIG    1       25.311 -26.454   5.622  0.00  0.00    +0.123 C 
ATOM     10  F   LIG    1       25.518 -25.374   4.861  0.00  0.00    -0.205 F 
ATOM     11  C   LIG    1       24.413 -27.391   5.200  0.00  0.00    +0.039 C 
ATOM     12  C   LIG    1       24.251 -28.531   5.980  0.00  0.00    +0.013 C 
ENDBRANCH   3   6
BRANCH   4  13
ATOM     13  C   LIG    1       24.640 -32.178   7.392  0.00  0.00    -0.015 C 
ATOM     14  C   LIG    1       25.808 -32.912   7.512  0.00  0.00    +0.008 C 
ATOM     15  C   LIG    1       26.182 -33.782   6.466  0.00  0.00    +0.001 C 
ATOM     16  C   LIG    1       25.482 -33.825   5.255  0.00  0.00    +0.000 C 
ATOM     17  C   LIG    1       24.414 -32.985   5.074  0.00  0.00    +0.001 C 
ATOM     18  C   LIG    1       23.972 -32.275   6.179  0.00  0.00    +0.008 C 
ENDBRANCH   4  13
BRANCH   5  19
ATOM     19  C   LIG    1       22.447 -32.174  10.136  0.00  0.00    +0.251 C 
ATOM     20  N   LIG    1       21.185 -31.632  10.322  0.00  0.00    -0.281 N 
ATOM     21  H   LIG    1       21.053 -30.774   9.823  0.00  0.00    +0.155 HD
ATOM     22  O   LIG    1       22.705 -33.360  10.174  0.00  0.00    -0.270 OA
BRANCH  20  23
ATOM     23  C   LIG    1       19.983 -32.323  10.586  0.00  0.00    +0.034 C 
ATOM     24  C   LIG    1       19.322 -32.211  11.808  0.00  0.00    +0.023 C 
ATOM     25  C   LIG    1       18.047 -32.780  11.979  0.00  0.00    +0.002 C 
ATOM     26  C   LIG    1       17.430 -33.472  10.937  0.00  0.00    +0.000 C 
ATOM     27  C   LIG    1       18.082 -33.585   9.713  0.00  0.00    +0.002 C 
ATOM     28  C   LIG    1       19.341 -32.995   9.532  0.00  0.00    +0.023 C 
ENDBRANCH  20  23
ENDBRANCH   5  19
BRANCH   1  30
ATOM     29  C   LIG    1       22.623 -28.947  12.245  0.00  0.00    +0.014 C 
ATOM     30  C   LIG    1       23.969 -29.329  11.803  0.00  0.00    +0.030 C 
ATOM     31  C   LIG    1       24.529 -29.906  13.115  0.00  0.00    +0.014 C 
ENDBRANCH   1  30
BRANCH   2  32
ATOM     32  C   LIG    1       26.398 -30.425   9.886  0.00  0.00    +0.124 C 
BRANCH  32  33
ATOM     33  C   LIG    1       27.772 -29.549  10.761  0.00  0.00    +0.053 C 
BRANCH  33  34
ATOM     34  C   LIG    1       27.979 -29.342  12.244  0.00  0.00    +0.119 C 
BRANCH  34  35
ATOM     35  O   LIG    1       27.762 -27.901  12.446  0.00  0.00    -0.392 OA
ATOM     36  H   LIG    1       28.149 -27.414  11.694  0.00  0.00    +0.210 HD
ENDBRANCH  34  35
BRANCH  34  37
ATOM     37  C   LIG    1       29.344 -29.624  12.933  0.00  0.00    +0.063 C 
BRANCH  37  38
ATOM     38  C   LIG    1       29.560 -29.369  14.442  0.00  0.00    +0.128 C 
BRANCH  38  39
ATOM     39  O   LIG    1       29.430 -27.991  14.747  0.00  0.00    -0.391 OA
ATOM     40  H   LIG    1       30.159 -27.545  14.261  0.00  0.00    +0.210 HD
ENDBRANCH  38  39
BRANCH  38  41
ATOM     41  C   LIG    1       30.920 -29.677  14.977  0.00  0.00    +0.151 C 
BRANCH  41  42
ATOM     42  C   LIG    1       31.595 -29.572  13.893  0.00  0.00    +0.307 C 
ATOM     43  O   LIG    1       32.012 -30.757  13.259  0.00  0.00    -0.251 OA
BRANCH  42  44
ATOM     44  O   LIG    1       32.027 -28.012  14.007  0.00  0.00    -0.481 OA
ATOM     45  H   LIG    1       32.881 -27.593  13.760  0.00  0.00    +0.295 HD
ENDBRANCH  42  44
ENDBRANCH  41  42
ENDBRANCH  38  41
ENDBRANCH  37  38
ENDBRANCH  34  37
ENDBRANCH  33  34
ENDBRANCH  32  33
ENDBRANCH   2  32
TORSDOF 15
ENDMDL
MODEL 4
REMARK VINA RESULT:      -6.6      2.001      3.182
REMARK  Name = *****
REMARK                            x       y       z     vdW  Elec       q    Type
REMARK                         _______ _______ _______ _____ _____    ______ ____
ROOT
ATOM      1  C   LIG    1       23.116 -32.170  10.739  0.00  0.00    +0.035 C 
ATOM      2  N   LIG    1       23.675 -31.016  10.466  0.00  0.00    -0.342 NA
ATOM      3  C   LIG    1       24.376 -30.525  11.677  0.00  0.00    +0.058 C 
ATOM      4  C   LIG    1       23.070 -30.221  12.081  0.00  0.00    +0.020 C 
ATOM      5  C   LIG    1       22.398 -31.586  11.833  0.00  0.00    +0.066 C 
ENDROOT
BRANCH   3   6
ATOM      6  C   LIG    1       25.828 -30.030  11.758  0.00  0.00    -0.001 C 
ATOM      7  C   LIG    1       26.578 -29.874  10.580  0.00  0.00    +0.013 C 
ATOM      8  C   LIG    1       27.971 -29.635  10.624  0.00  0.00    +0.039 C 
ATOM      9  C   LIG    1       28.633 -29.525  11.843  0.00  0.00    +0.123 C 
ATOM     10  F   LIG    1       29.950 -29.304  11.893  0.00  0.00    -0.205 F 
ATOM     11  C   LIG    1       27.932 -29.582  13.014  0.00  0.00    +0.039 C 
ATOM     12  C   LIG    1       26.555 -29.759  12.938  0.00  0.00    +0.013 C 
ENDBRANCH   3   6
BRANCH   4  13
ATOM     13  C   LIG    1       22.662 -28.879  12.467  0.00  0.00    -0.015 C 
ATOM     14  C   LIG    1       23.493 -27.946  13.065  0.00  0.00    +0.008 C 
ATOM     15  C   LIG    1       22.960 -26.696  13.444  0.00  0.00    +0.001 C 
ATOM     16  C   LIG    1       21.590 -26.421  13.361  0.00  0.00    +0.000 C 
ATOM     17  C   LIG    1       20.741 -27.400  12.914  0.00  0.00    +0.001 C 
ATOM     18  C   LIG    1       21.317 -28.547  12.388  0.00  0.00    +0.008 C 
ENDBRANCH   4  13
BRANCH   5  19
ATOM     19  C   LIG    1       21.265 -32.100  12.577  0.00  0.00    +0.251 C 
ATOM     20  N   LIG    1       20.068 -31.443  12.338  0.00  0.00    -0.281 N 
ATOM     21  H   LIG    1       20.053 -30.971  11.455  0.00  0.00    +0.155 HD
ATOM     22  O   LIG    1       21.383 -33.103  13.252  0.00  0.00    -0.270 OA
BRANCH  20  23
ATOM     23  C   LIG    1       18.786 -31.791  12.814  0.00  0.00    +0.034 C 
ATOM     24  C   LIG    1       18.416 -31.595  14.144  0.00  0.00    +0.023 C 
ATOM     25  C   LIG    1       17.083 -31.799  14.545  0.00  0.00    +0.002 C 
ATOM     26  C   LIG    1       16.117 -32.210  13.627  0.00  0.00    +0.000 C 
ATOM     27  C   LIG    1       16.478 -32.404  12.297  0.00  0.00    +0.002 C 
ATOM     28  C   LIG    1       17.800 -32.174  11.890  0.00  0.00    +0.023 C 
ENDBRANCH  20  23
ENDBRANCH   5  19
BRANCH   1  30
ATOM     29  C   LIG    1       22.335 -33.576   8.743  0.00  0.00    +0.014 C 
ATOM     30  C   LIG    1       23.270 -33.450   9.867  0.00  0.00    +0.030 C 
ATOM     31  C   LIG    1       24.595 -33.764   9.150  0.00  0.00    +0.014 C 
ENDBRANCH   1  30
BRANCH   2  32
ATOM     32  C   LIG    1       23.359 -30.220   9.288  0.00  0.00    +0.124 C 
BRANCH  32  33
ATOM     33  C   LIG    1       24.378 -29.694   7.838  0.00  0.00    +0.053 C 
BRANCH  33  34
ATOM     34  C   LIG    1       24.407 -30.262   6.437  0.00  0.00    +0.119 C 
BRANCH  34  35
ATOM     35  O   LIG    1       23.236 -29.667   5.776  0.00  0.00    -0.392 OA
ATOM     36  H   LIG    1       22.479 -30.277   5.865  0.00  0.00    +0.210 HD
ENDBRANCH  34  35
BRANCH  34  37
ATOM     37  C   LIG    1       24.268 -31.787   6.164  0.00  0.00    +0.063 C 
BRANCH  37  38
ATOM     38  C   LIG    1       25.412 -32.604   5.522  0.00  0.00    +0.128 C 
BRANCH  38  39
ATOM     39  O   LIG    1       26.612 -32.467   6.263  0.00  0.00    -0.391 OA
ATOM     40  H   LIG    1       26.430 -32.884   7.135  0.00  0.00    +0.210 HD
ENDBRANCH  38  39
BRANCH  38  41
ATOM     41  C   LIG    1       25.842 -32.178   4.156  0.00  0.00    +0.151 C 
BRANCH  41  42
ATOM     42  C   LIG    1       26.224 -33.312   3.698  0.00  0.00    +0.307 C 
ATOM     43  O   LIG    1       27.605 -33.581   3.668  0.00  0.00    -0.251 OA
BRANCH  42  44
ATOM     44  O   LIG    1       24.860 -33.757   2.938  0.00  0.00    -0.481 OA
ATOM     45  H   LIG    1       24.735 -33.990   1.991  0.00  0.00    +0.295 HD
ENDBRANCH  42  44
ENDBRANCH  41  42
ENDBRANCH  38  41
ENDBRANCH  37  38
ENDBRANCH  34  37
ENDBRANCH  33  34
ENDBRANCH  32  33
ENDBRANCH   2  32
TORSDOF 15
ENDMDL
MODEL 5
REMARK VINA RESULT:      -5.3      2.497      4.118
REMARK  Name = *****
REMARK                            x       y       z     vdW  Elec       q    Type
REMARK                         _______ _______ _______ _____ _____    ______ ____
ROOT
ATOM      1  C   LIG    1       22.942 -32.966   9.419  0.00  0.00    +0.035 C 
ATOM      2  N   LIG    1       23.789 -32.316   8.657  0.00  0.00    -0.342 NA
ATOM      3  C   LIG    1       25.170 -32.651   9.081  0.00  0.00    +0.058 C 
ATOM      4  C   LIG    1       24.860 -31.774  10.128  0.00  0.00    +0.020 C 
ATOM      5  C   LIG    1       23.524 -32.387  10.593  0.00  0.00    +0.066 C 
ENDROOT
BRANCH   3   6
ATOM      6  C   LIG    1       26.319 -33.116   8.175  0.00  0.00    -0.001 C 
ATOM      7  C   LIG    1       27.509 -33.595   8.747  0.00  0.00    +0.013 C 
ATOM      8  C   LIG    1       28.662 -33.824   7.961  0.00  0.00    +0.039 C 
ATOM      9  C   LIG    1       28.637 -33.601   6.587  0.00  0.00    +0.123 C 
ATOM     10  F   LIG    1       29.724 -33.810   5.838  0.00  0.00    -0.205 F 
ATOM     11  C   LIG    1       27.480 -33.219   5.973  0.00  0.00    +0.039 C 
ATOM     12  C   LIG    1       26.348 -33.059   6.764  0.00  0.00    +0.013 C 
ENDBRANCH   3   6
BRANCH   4  13
ATOM     13  C   LIG    1       25.663 -30.598  10.428  0.00  0.00    -0.015 C 
ATOM     14  C   LIG    1       26.143 -29.711   9.479  0.00  0.00    +0.008 C 
ATOM     15  C   LIG    1       26.961 -28.639   9.894  0.00  0.00    +0.001 C 
ATOM     16  C   LIG    1       27.413 -28.523  11.213  0.00  0.00    +0.000 C 
ATOM     17  C   LIG    1       27.066 -29.487  12.123  0.00  0.00    +0.001 C 
ATOM     18  C   LIG    1       26.124 -30.424  11.725  0.00  0.00    +0.008 C 
ENDBRANCH   4  13
BRANCH   5  19
ATOM     19  C   LIG    1       23.015 -32.334  11.950  0.00  0.00    +0.251 C 
ATOM     20  N   LIG    1       21.789 -31.703  12.084  0.00  0.00    -0.281 N 
ATOM     21  H   LIG    1       21.259 -31.697  11.235  0.00  0.00    +0.155 HD
ATOM     22  O   LIG    1       23.598 -32.916  12.842  0.00  0.00    -0.270 OA
BRANCH  20  23
ATOM     23  C   LIG    1       20.993 -31.608  13.247  0.00  0.00    +0.034 C 
ATOM     24  C   LIG    1       21.087 -30.523  14.116  0.00  0.00    +0.023 C 
ATOM     25  C   LIG    1       20.168 -30.380  15.172  0.00  0.00    +0.002 C 
ATOM     26  C   LIG    1       19.161 -31.324  15.373  0.00  0.00    +0.000 C 
ATOM     27  C   LIG    1       19.059 -32.408  14.506  0.00  0.00    +0.002 C 
ATOM     28  C   LIG    1       19.957 -32.537  13.437  0.00  0.00    +0.023 C 
ENDBRANCH  20  23
ENDBRANCH   5  19
BRANCH   1  30
ATOM     29  C   LIG    1       20.441 -33.527   9.465  0.00  0.00    +0.014 C 
ATOM     30  C   LIG    1       21.757 -33.821   8.885  0.00  0.00    +0.030 C 
ATOM     31  C   LIG    1       21.395 -33.825   7.389  0.00  0.00    +0.014 C 
ENDBRANCH   1  30
BRANCH   2  32
ATOM     32  C   LIG    1       23.414 -31.208   7.789  0.00  0.00    +0.124 C 
BRANCH  32  33
ATOM     33  C   LIG    1       24.416 -30.064   6.736  0.00  0.00    +0.053 C 
BRANCH  33  34
ATOM     34  C   LIG    1       24.008 -28.759   6.092  0.00  0.00    +0.119 C 
BRANCH  34  35
ATOM     35  O   LIG    1       24.332 -28.935   4.668  0.00  0.00    -0.392 OA
ATOM     36  H   LIG    1       24.336 -29.889   4.460  0.00  0.00    +0.210 HD
ENDBRANCH  34  35
BRANCH  34  37
ATOM     37  C   LIG    1       24.677 -27.408   6.473  0.00  0.00    +0.063 C 
BRANCH  37  38
ATOM     38  C   LIG    1       25.374 -26.521   5.417  0.00  0.00    +0.128 C 
BRANCH  38  39
ATOM     39  O   LIG    1       26.586 -27.110   4.979  0.00  0.00    -0.391 OA
ATOM     40  H   LIG    1       26.360 -28.042   4.760  0.00  0.00    +0.210 HD
ENDBRANCH  38  39
BRANCH  38  41
ATOM     41  C   LIG    1       25.834 -25.177   5.881  0.00  0.00    +0.151 C 
BRANCH  41  42
ATOM     42  C   LIG    1       24.732 -24.534   5.770  0.00  0.00    +0.307 C 
ATOM     43  O   LIG    1       23.735 -24.760   6.736  0.00  0.00    -0.251 OA
BRANCH  42  44
ATOM     44  O   LIG    1       24.873 -24.045   4.229  0.00  0.00    -0.481 OA
ATOM     45  H   LIG    1       25.043 -23.139   3.886  0.00  0.00    +0.295 HD
ENDBRANCH  42  44
ENDBRANCH  41  42
ENDBRANCH  38  41
ENDBRANCH  37  38
ENDBRANCH  34  37
ENDBRANCH  33  34
ENDBRANCH  32  33
ENDBRANCH   2  32
TORSDOF 15
ENDMDL
