MODEL 1
REMARK VINA RESULT:      -9.5      0.000      0.000
REMARK  Name = *****
REMARK                            x       y       z     vdW  Elec       q    Type
REMARK                         _______ _______ _______ _____ _____    ______ ____
ROOT
ATOM      1  C   LIG    1       25.475 -21.821   6.300  0.00  0.00    -0.006 A 
ATOM      2  C   LIG    1       26.763 -21.381   6.726  0.00  0.00    +0.007 A 
ATOM      3  C   LIG    1       27.488 -21.985   7.779  0.00  0.00    +0.010 A 
ATOM      4  C   LIG    1       28.757 -21.556   8.143  0.00  0.00    +0.001 A 
ATOM      5  C   LIG    1       29.314 -20.477   7.482  0.00  0.00    +0.014 A 
ATOM      6  C   LIG    1       28.608 -19.825   6.452  0.00  0.00    +0.081 A 
ATOM      7  C   LIG    1       27.346 -20.270   6.056  0.00  0.00    +0.084 A 
ATOM      8  N   LIG    1       26.708 -19.645   5.059  0.00  0.00    -0.242 NA
ATOM      9  C   LIG    1       25.469 -20.047   4.660  0.00  0.00    +0.145 A 
ATOM     10  C   LIG    1       24.838 -21.127   5.259  0.00  0.00    +0.039 A 
ENDROOT
BRANCH   6  11
ATOM     11  C   LIG    1       29.273 -18.626   5.820  0.00  0.00    +0.419 C 
ATOM     12  F   LIG    1       30.496 -18.949   5.300  0.00  0.00    -0.166 F 
ATOM     13  F   LIG    1       29.533 -17.658   6.750  0.00  0.00    -0.166 F 
ATOM     14  F   LIG    1       28.611 -17.991   4.818  0.00  0.00    -0.166 F 
ENDBRANCH   6  11
BRANCH   9  15
ATOM     15  C   LIG    1       24.789 -19.291   3.525  0.00  0.00    +0.434 C 
ATOM     16  F   LIG    1       24.437 -20.102   2.485  0.00  0.00    -0.164 F 
ATOM     17  F   LIG    1       25.568 -18.307   2.989  0.00  0.00    -0.164 F 
ATOM     18  F   LIG    1       23.632 -18.670   3.903  0.00  0.00    -0.164 F 
ENDBRANCH   9  15
BRANCH   1  19
ATOM     19  C   LIG    1       24.764 -23.012   6.933  0.00  0.00    +0.162 C 
BRANCH  19  20
ATOM     20  C   LIG    1       25.053 -24.409   6.282  0.00  0.00    +0.087 C 
ATOM     21  N   LIG    1       23.742 -25.082   6.049  0.00  0.00    -0.311 NA
ATOM     22  H   LIG    1       23.279 -25.218   6.951  0.00  0.00    +0.122 HD
ATOM     23  C   LIG    1       23.910 -26.399   5.425  0.00  0.00    +0.081 C 
ATOM     24  C   LIG    1       24.780 -27.325   6.273  0.00  0.00    +0.015 C 
ATOM     25  C   LIG    1       26.140 -26.693   6.532  0.00  0.00    +0.003 C 
ATOM     26  C   LIG    1       25.974 -25.299   7.127  0.00  0.00    +0.021 C 
ENDBRANCH  19  20
BRANCH  19  27
ATOM     27  O   LIG    1       23.342 -22.792   6.873  0.00  0.00    -0.386 OA
ATOM     28  H   LIG    1       23.251 -21.835   6.682  0.00  0.00    +0.210 HD
ENDBRANCH  19  27
ENDBRANCH   1  19
TORSDOF 5
ENDMDL
MODEL 2
REMARK VINA RESULT:      -8.5      3.140      6.015
REMARK  Name = *****
REMARK                            x       y       z     vdW  Elec       q    Type
REMARK                         _______ _______ _______ _____ _____    ______ ____
ROOT
ATOM      1  C   LIG    1       27.545 -19.981   5.705  0.00  0.00    -0.006 A 
ATOM      2  C   LIG    1       26.886 -20.900   6.572  0.00  0.00    +0.007 A 
ATOM      3  C   LIG    1       27.537 -21.595   7.618  0.00  0.00    +0.010 A 
ATOM      4  C   LIG    1       26.857 -22.455   8.469  0.00  0.00    +0.001 A 
ATOM      5  C   LIG    1       25.506 -22.671   8.264  0.00  0.00    +0.014 A 
ATOM      6  C   LIG    1       24.829 -22.026   7.210  0.00  0.00    +0.081 A 
ATOM      7  C   LIG    1       25.497 -21.134   6.370  0.00  0.00    +0.084 A 
ATOM      8  N   LIG    1       24.824 -20.518   5.391  0.00  0.00    -0.242 NA
ATOM      9  C   LIG    1       25.450 -19.654   4.546  0.00  0.00    +0.145 A 
ATOM     10  C   LIG    1       26.800 -19.369   4.684  0.00  0.00    +0.039 A 
ENDROOT
BRANCH   6  11
ATOM     11  C   LIG    1       23.368 -22.359   7.031  0.00  0.00    +0.419 C 
ATOM     12  F   LIG    1       22.607 -21.820   8.031  0.00  0.00    -0.166 F 
ATOM     13  F   LIG    1       23.155 -23.708   7.118  0.00  0.00    -0.166 F 
ATOM     14  F   LIG    1       22.770 -21.976   5.874  0.00  0.00    -0.166 F 
ENDBRANCH   6  11
BRANCH   9  15
ATOM     15  C   LIG    1       24.632 -18.990   3.445  0.00  0.00    +0.434 C 
ATOM     16  F   LIG    1       24.248 -19.864   2.469  0.00  0.00    -0.164 F 
ATOM     17  F   LIG    1       25.301 -17.985   2.808  0.00  0.00    -0.164 F 
ATOM     18  F   LIG    1       23.473 -18.424   3.895  0.00  0.00    -0.164 F 
ENDBRANCH   9  15
BRANCH   1  19
ATOM     19  C   LIG    1       29.024 -19.640   5.841  0.00  0.00    +0.162 C 
BRANCH  19  20
ATOM     20  C   LIG    1       29.539 -19.386   7.301  0.00  0.00    +0.087 C 
ATOM     21  N   LIG    1       29.974 -17.962   7.388  0.00  0.00    -0.311 NA
ATOM     22  H   LIG    1       30.741 -17.813   6.728  0.00  0.00    +0.122 HD
ATOM     23  C   LIG    1       30.461 -17.625   8.730  0.00  0.00    +0.081 C 
ATOM     24  C   LIG    1       31.632 -18.510   9.152  0.00  0.00    +0.015 C 
ATOM     25  C   LIG    1       31.240 -19.980   9.094  0.00  0.00    +0.003 C 
ATOM     26  C   LIG    1       30.678 -20.326   7.719  0.00  0.00    +0.021 C 
ENDBRANCH  19  20
BRANCH  19  27
ATOM     27  O   LIG    1       29.303 -18.455   5.071  0.00  0.00    -0.386 OA
ATOM     28  H   LIG    1       28.494 -18.314   4.537  0.00  0.00    +0.210 HD
ENDBRANCH  19  27
ENDBRANCH   1  19
TORSDOF 5
ENDMDL
MODEL 3
REMARK VINA RESULT:      -8.0      2.819      6.111
REMARK  Name = *****
REMARK                            x       y       z     vdW  Elec       q    Type
REMARK                         _______ _______ _______ _____ _____    ______ ____
ROOT
ATOM      1  C   LIG    1       27.131 -20.464   6.291  0.00  0.00    -0.006 A 
ATOM      2  C   LIG    1       25.895 -21.139   6.512  0.00  0.00    +0.007 A 
ATOM      3  C   LIG    1       25.722 -22.161   7.475  0.00  0.00    +0.010 A 
ATOM      4  C   LIG    1       24.494 -22.772   7.691  0.00  0.00    +0.001 A 
ATOM      5  C   LIG    1       23.414 -22.397   6.913  0.00  0.00    +0.014 A 
ATOM      6  C   LIG    1       23.555 -21.409   5.920  0.00  0.00    +0.081 A 
ATOM      7  C   LIG    1       24.777 -20.766   5.717  0.00  0.00    +0.084 A 
ATOM      8  N   LIG    1       24.875 -19.814   4.781  0.00  0.00    -0.242 NA
ATOM      9  C   LIG    1       26.057 -19.179   4.550  0.00  0.00    +0.145 A 
ATOM     10  C   LIG    1       27.190 -19.482   5.289  0.00  0.00    +0.039 A 
ENDROOT
BRANCH   6  11
ATOM     11  C   LIG    1       22.335 -21.099   5.086  0.00  0.00    +0.419 C 
ATOM     12  F   LIG    1       22.614 -21.164   3.749  0.00  0.00    -0.166 F 
ATOM     13  F   LIG    1       21.908 -19.816   5.292  0.00  0.00    -0.166 F 
ATOM     14  F   LIG    1       21.234 -21.875   5.264  0.00  0.00    -0.166 F 
ENDBRANCH   6  11
BRANCH   9  15
ATOM     15  C   LIG    1       26.110 -18.110   3.465  0.00  0.00    +0.434 C 
ATOM     16  F   LIG    1       26.126 -18.635   2.205  0.00  0.00    -0.164 F 
ATOM     17  F   LIG    1       27.210 -17.307   3.552  0.00  0.00    -0.164 F 
ATOM     18  F   LIG    1       25.039 -17.261   3.485  0.00  0.00    -0.164 F 
ENDBRANCH   9  15
BRANCH   1  19
ATOM     19  C   LIG    1       28.389 -20.768   7.097  0.00  0.00    +0.162 C 
BRANCH  19  20
ATOM     20  C   LIG    1       29.359 -19.560   7.339  0.00  0.00    +0.087 C 
ATOM     21  N   LIG    1       30.754 -20.055   7.158  0.00  0.00    -0.311 NA
ATOM     22  H   LIG    1       30.938 -20.781   7.855  0.00  0.00    +0.122 HD
ATOM     23  C   LIG    1       31.739 -18.985   7.352  0.00  0.00    +0.081 C 
ATOM     24  C   LIG    1       31.631 -18.354   8.738  0.00  0.00    +0.015 C 
ATOM     25  C   LIG    1       30.226 -17.818   8.975  0.00  0.00    +0.003 C 
ATOM     26  C   LIG    1       29.191 -18.909   8.719  0.00  0.00    +0.021 C 
ENDBRANCH  19  20
BRANCH  19  27
ATOM     27  O   LIG    1       29.137 -21.797   6.422  0.00  0.00    -0.386 OA
ATOM     28  H   LIG    1       30.067 -21.636   6.687  0.00  0.00    +0.210 HD
ENDBRANCH  19  27
ENDBRANCH   1  19
TORSDOF 5
ENDMDL
MODEL 4
REMARK VINA RESULT:      -7.8      1.147      3.974
REMARK  Name = *****
REMARK                            x       y       z     vdW  Elec       q    Type
REMARK                         _______ _______ _______ _____ _____    ______ ____
ROOT
ATOM      1  C   LIG    1       25.749 -22.029   6.573  0.00  0.00    -0.006 A 
ATOM      2  C   LIG    1       25.113 -21.246   5.566  0.00  0.00    +0.007 A 
ATOM      3  C   LIG    1       23.842 -21.550   5.024  0.00  0.00    +0.010 A 
ATOM      4  C   LIG    1       23.234 -20.745   4.070  0.00  0.00    +0.001 A 
ATOM      5  C   LIG    1       23.910 -19.631   3.605  0.00  0.00    +0.014 A 
ATOM      6  C   LIG    1       25.192 -19.315   4.093  0.00  0.00    +0.081 A 
ATOM      7  C   LIG    1       25.798 -20.100   5.076  0.00  0.00    +0.084 A 
ATOM      8  N   LIG    1       27.008 -19.763   5.537  0.00  0.00    -0.242 NA
ATOM      9  C   LIG    1       27.631 -20.516   6.485  0.00  0.00    +0.145 A 
ATOM     10  C   LIG    1       27.024 -21.644   7.017  0.00  0.00    +0.039 A 
ENDROOT
BRANCH   6  11
ATOM     11  C   LIG    1       25.874 -18.110   3.493  0.00  0.00    +0.419 C 
ATOM     12  F   LIG    1       25.084 -16.997   3.574  0.00  0.00    -0.166 F 
ATOM     13  F   LIG    1       26.097 -18.284   2.154  0.00  0.00    -0.166 F 
ATOM     14  F   LIG    1       27.075 -17.740   4.010  0.00  0.00    -0.166 F 
ENDBRANCH   6  11
BRANCH   9  15
ATOM     15  C   LIG    1       29.012 -20.087   6.965  0.00  0.00    +0.434 C 
ATOM     16  F   LIG    1       29.773 -21.135   7.395  0.00  0.00    -0.164 F 
ATOM     17  F   LIG    1       28.971 -19.201   8.002  0.00  0.00    -0.164 F 
ATOM     18  F   LIG    1       29.759 -19.476   5.997  0.00  0.00    -0.164 F 
ENDBRANCH   9  15
BRANCH   1  19
ATOM     19  C   LIG    1       25.100 -23.266   7.184  0.00  0.00    +0.162 C 
BRANCH  19  20
ATOM     20  C   LIG    1       25.284 -24.602   6.385  0.00  0.00    +0.087 C 
ATOM     21  N   LIG    1       23.934 -25.058   5.944  0.00  0.00    -0.311 NA
ATOM     22  H   LIG    1       23.361 -25.236   6.773  0.00  0.00    +0.122 HD
ATOM     23  C   LIG    1       24.006 -26.303   5.171  0.00  0.00    +0.081 C 
ATOM     24  C   LIG    1       24.656 -27.432   5.967  0.00  0.00    +0.015 C 
ATOM     25  C   LIG    1       26.048 -27.026   6.433  0.00  0.00    +0.003 C 
ATOM     26  C   LIG    1       25.990 -25.703   7.189  0.00  0.00    +0.021 C 
ENDBRANCH  19  20
BRANCH  19  27
ATOM     27  O   LIG    1       23.685 -23.032   7.318  0.00  0.00    -0.386 OA
ATOM     28  H   LIG    1       23.595 -22.056   7.295  0.00  0.00    +0.210 HD
ENDBRANCH  19  27
ENDBRANCH   1  19
TORSDOF 5
ENDMDL
MODEL 5
REMARK VINA RESULT:      -7.7      3.646      6.878
REMARK  Name = *****
REMARK                            x       y       z     vdW  Elec       q    Type
REMARK                         _______ _______ _______ _____ _____    ______ ____
ROOT
ATOM      1  C   LIG    1       28.945 -20.461   7.562  0.00  0.00    -0.006 A 
ATOM      2  C   LIG    1       28.542 -19.644   6.465  0.00  0.00    +0.007 A 
ATOM      3  C   LIG    1       29.303 -18.557   5.977  0.00  0.00    +0.010 A 
ATOM      4  C   LIG    1       28.900 -17.806   4.882  0.00  0.00    +0.001 A 
ATOM      5  C   LIG    1       27.695 -18.104   4.272  0.00  0.00    +0.014 A 
ATOM      6  C   LIG    1       26.890 -19.156   4.751  0.00  0.00    +0.081 A 
ATOM      7  C   LIG    1       27.303 -19.938   5.831  0.00  0.00    +0.084 A 
ATOM      8  N   LIG    1       26.528 -20.946   6.251  0.00  0.00    -0.242 NA
ATOM      9  C   LIG    1       26.896 -21.718   7.310  0.00  0.00    +0.145 A 
ATOM     10  C   LIG    1       28.093 -21.498   7.975  0.00  0.00    +0.039 A 
ENDROOT
BRANCH   6  11
ATOM     11  C   LIG    1       25.569 -19.378   4.056  0.00  0.00    +0.419 C 
ATOM     12  F   LIG    1       25.230 -18.307   3.276  0.00  0.00    -0.166 F 
ATOM     13  F   LIG    1       24.548 -19.490   4.959  0.00  0.00    -0.166 F 
ATOM     14  F   LIG    1       25.454 -20.464   3.249  0.00  0.00    -0.166 F 
ENDBRANCH   6  11
BRANCH   9  15
ATOM     15  C   LIG    1       25.969 -22.845   7.748  0.00  0.00    +0.434 C 
ATOM     16  F   LIG    1       26.322 -24.055   7.224  0.00  0.00    -0.164 F 
ATOM     17  F   LIG    1       24.668 -22.643   7.387  0.00  0.00    -0.164 F 
ATOM     18  F   LIG    1       25.944 -23.034   9.101  0.00  0.00    -0.164 F 
ENDBRANCH   9  15
BRANCH   1  19
ATOM     19  C   LIG    1       30.260 -20.250   8.303  0.00  0.00    +0.162 C 
BRANCH  19  20
ATOM     20  C   LIG    1       30.567 -18.778   8.749  0.00  0.00    +0.087 C 
ATOM     21  N   LIG    1       32.049 -18.601   8.740  0.00  0.00    -0.311 NA
ATOM     22  H   LIG    1       32.461 -19.251   9.413  0.00  0.00    +0.122 HD
ATOM     23  C   LIG    1       32.435 -17.241   9.132  0.00  0.00    +0.081 C 
ATOM     24  C   LIG    1       31.919 -16.880  10.523  0.00  0.00    +0.015 C 
ATOM     25  C   LIG    1       30.405 -17.030  10.588  0.00  0.00    +0.003 C 
ATOM     26  C   LIG    1       29.990 -18.423  10.126  0.00  0.00    +0.021 C 
ENDBRANCH  19  20
BRANCH  19  27
ATOM     27  O   LIG    1       31.345 -20.683   7.461  0.00  0.00    -0.386 OA
ATOM     28  H   LIG    1       31.186 -20.233   6.606  0.00  0.00    +0.210 HD
ENDBRANCH  19  27
ENDBRANCH   1  19
TORSDOF 5
ENDMDL
MODEL 6
REMARK VINA RESULT:      -7.6      3.532      6.759
REMARK  Name = *****
REMARK                            x       y       z     vdW  Elec       q    Type
REMARK                         _______ _______ _______ _____ _____    ______ ____
ROOT
ATOM      1  C   LIG    1       27.560 -20.188   5.915  0.00  0.00    -0.006 A 
ATOM      2  C   LIG    1       26.570 -19.580   5.089  0.00  0.00    +0.007 A 
ATOM      3  C   LIG    1       26.836 -18.502   4.213  0.00  0.00    +0.010 A 
ATOM      4  C   LIG    1       25.856 -17.958   3.393  0.00  0.00    +0.001 A 
ATOM      5  C   LIG    1       24.569 -18.460   3.464  0.00  0.00    +0.014 A 
ATOM      6  C   LIG    1       24.257 -19.509   4.350  0.00  0.00    +0.081 A 
ATOM      7  C   LIG    1       25.242 -20.084   5.154  0.00  0.00    +0.084 A 
ATOM      8  N   LIG    1       24.920 -21.095   5.971  0.00  0.00    -0.242 NA
ATOM      9  C   LIG    1       25.856 -21.667   6.778  0.00  0.00    +0.145 A 
ATOM     10  C   LIG    1       27.174 -21.236   6.765  0.00  0.00    +0.039 A 
ENDROOT
BRANCH   6  11
ATOM     11  C   LIG    1       22.817 -19.959   4.396  0.00  0.00    +0.419 C 
ATOM     12  F   LIG    1       22.024 -19.178   3.601  0.00  0.00    -0.166 F 
ATOM     13  F   LIG    1       22.296 -19.822   5.653  0.00  0.00    -0.166 F 
ATOM     14  F   LIG    1       22.543 -21.239   4.033  0.00  0.00    -0.166 F 
ENDBRANCH   6  11
BRANCH   9  15
ATOM     15  C   LIG    1       25.428 -22.809   7.692  0.00  0.00    +0.434 C 
ATOM     16  F   LIG    1       24.107 -23.125   7.564  0.00  0.00    -0.164 F 
ATOM     17  F   LIG    1       25.625 -22.541   9.016  0.00  0.00    -0.164 F 
ATOM     18  F   LIG    1       26.100 -23.975   7.456  0.00  0.00    -0.164 F 
ENDBRANCH   9  15
BRANCH   1  19
ATOM     19  C   LIG    1       29.018 -19.742   5.913  0.00  0.00    +0.162 C 
BRANCH  19  20
ATOM     20  C   LIG    1       29.637 -19.413   7.316  0.00  0.00    +0.087 C 
ATOM     21  N   LIG    1       30.135 -18.008   7.274  0.00  0.00    -0.311 NA
ATOM     22  H   LIG    1       30.863 -17.938   6.559  0.00  0.00    +0.122 HD
ATOM     23  C   LIG    1       30.724 -17.602   8.556  0.00  0.00    +0.081 C 
ATOM     24  C   LIG    1       31.882 -18.508   8.964  0.00  0.00    +0.015 C 
ATOM     25  C   LIG    1       31.427 -19.960   9.036  0.00  0.00    +0.003 C 
ATOM     26  C   LIG    1       30.762 -20.373   7.727  0.00  0.00    +0.021 C 
ENDBRANCH  19  20
BRANCH  19  27
ATOM     27  O   LIG    1       29.143 -18.562   5.096  0.00  0.00    -0.386 OA
ATOM     28  H   LIG    1       29.890 -18.068   5.494  0.00  0.00    +0.210 HD
ENDBRANCH  19  27
ENDBRANCH   1  19
TORSDOF 5
ENDMDL
MODEL 7
REMARK VINA RESULT:      -6.9      3.472      5.351
REMARK  Name = *****
REMARK                            x       y       z     vdW  Elec       q    Type
REMARK                         _______ _______ _______ _____ _____    ______ ____
ROOT
ATOM      1  C   LIG    1       26.439 -20.292   5.412  0.00  0.00    -0.006 A 
ATOM      2  C   LIG    1       27.738 -19.891   5.841  0.00  0.00    +0.007 A 
ATOM      3  C   LIG    1       28.437 -18.788   5.297  0.00  0.00    +0.010 A 
ATOM      4  C   LIG    1       29.685 -18.401   5.765  0.00  0.00    +0.001 A 
ATOM      5  C   LIG    1       30.283 -19.141   6.768  0.00  0.00    +0.014 A 
ATOM      6  C   LIG    1       29.635 -20.268   7.310  0.00  0.00    +0.081 A 
ATOM      7  C   LIG    1       28.366 -20.646   6.870  0.00  0.00    +0.084 A 
ATOM      8  N   LIG    1       27.765 -21.708   7.419  0.00  0.00    -0.242 NA
ATOM      9  C   LIG    1       26.533 -22.109   7.001  0.00  0.00    +0.145 A 
ATOM     10  C   LIG    1       25.854 -21.420   6.008  0.00  0.00    +0.039 A 
ENDROOT
BRANCH   6  11
ATOM     11  C   LIG    1       30.384 -21.045   8.366  0.00  0.00    +0.419 C 
ATOM     12  F   LIG    1       29.543 -21.844   9.089  0.00  0.00    -0.166 F 
ATOM     13  F   LIG    1       30.949 -20.207   9.288  0.00  0.00    -0.166 F 
ATOM     14  F   LIG    1       31.392 -21.858   7.957  0.00  0.00    -0.166 F 
ENDBRANCH   6  11
BRANCH   9  15
ATOM     15  C   LIG    1       25.903 -23.331   7.658  0.00  0.00    +0.434 C 
ATOM     16  F   LIG    1       26.137 -23.390   9.001  0.00  0.00    -0.164 F 
ATOM     17  F   LIG    1       26.355 -24.513   7.145  0.00  0.00    -0.164 F 
ATOM     18  F   LIG    1       24.543 -23.378   7.528  0.00  0.00    -0.164 F 
ENDBRANCH   9  15
BRANCH   1  19
ATOM     19  C   LIG    1       25.665 -19.546   4.331  0.00  0.00    +0.162 C 
BRANCH  19  20
ATOM     20  C   LIG    1       24.173 -19.202   4.668  0.00  0.00    +0.087 C 
ATOM     21  N   LIG    1       23.339 -20.382   4.293  0.00  0.00    -0.311 NA
ATOM     22  H   LIG    1       23.430 -20.541   3.287  0.00  0.00    +0.122 HD
ATOM     23  C   LIG    1       21.919 -20.158   4.588  0.00  0.00    +0.081 C 
ATOM     24  C   LIG    1       21.371 -18.934   3.859  0.00  0.00    +0.015 C 
ATOM     25  C   LIG    1       22.178 -17.693   4.215  0.00  0.00    +0.003 C 
ATOM     26  C   LIG    1       23.663 -17.935   3.967  0.00  0.00    +0.021 C 
ENDBRANCH  19  20
BRANCH  19  27
ATOM     27  O   LIG    1       25.667 -20.336   3.127  0.00  0.00    -0.386 OA
ATOM     28  H   LIG    1       24.745 -20.281   2.797  0.00  0.00    +0.210 HD
ENDBRANCH  19  27
ENDBRANCH   1  19
TORSDOF 5
ENDMDL
MODEL 8
REMARK VINA RESULT:      -6.7      7.132     10.467
REMARK  Name = *****
REMARK                            x       y       z     vdW  Elec       q    Type
REMARK                         _______ _______ _______ _____ _____    ______ ____
ROOT
ATOM      1  C   LIG    1       26.272 -29.556   9.532  0.00  0.00    -0.006 A 
ATOM      2  C   LIG    1       25.947 -30.847   9.021  0.00  0.00    +0.007 A 
ATOM      3  C   LIG    1       26.133 -32.047   9.746  0.00  0.00    +0.010 A 
ATOM      4  C   LIG    1       25.770 -33.284   9.232  0.00  0.00    +0.001 A 
ATOM      5  C   LIG    1       25.245 -33.351   7.954  0.00  0.00    +0.014 A 
ATOM      6  C   LIG    1       25.078 -32.182   7.186  0.00  0.00    +0.081 A 
ATOM      7  C   LIG    1       25.410 -30.930   7.706  0.00  0.00    +0.084 A 
ATOM      8  N   LIG    1       25.219 -29.834   6.962  0.00  0.00    -0.242 NA
ATOM      9  C   LIG    1       25.546 -28.600   7.436  0.00  0.00    +0.145 A 
ATOM     10  C   LIG    1       26.067 -28.437   8.711  0.00  0.00    +0.039 A 
ENDROOT
BRANCH   6  11
ATOM     11  C   LIG    1       24.545 -32.355   5.785  0.00  0.00    +0.419 C 
ATOM     12  F   LIG    1       23.252 -31.921   5.685  0.00  0.00    -0.166 F 
ATOM     13  F   LIG    1       24.498 -33.676   5.434  0.00  0.00    -0.166 F 
ATOM     14  F   LIG    1       25.212 -31.740   4.774  0.00  0.00    -0.166 F 
ENDBRANCH   6  11
BRANCH   9  15
ATOM     15  C   LIG    1       25.314 -27.390   6.540  0.00  0.00    +0.434 C 
ATOM     16  F   LIG    1       25.831 -26.239   7.059  0.00  0.00    -0.164 F 
ATOM     17  F   LIG    1       23.993 -27.138   6.306  0.00  0.00    -0.164 F 
ATOM     18  F   LIG    1       25.883 -27.512   5.303  0.00  0.00    -0.164 F 
ENDBRANCH   9  15
BRANCH   1  19
ATOM     19  C   LIG    1       26.835 -29.347  10.933  0.00  0.00    +0.162 C 
BRANCH  19  20
ATOM     20  C   LIG    1       26.318 -28.081  11.700  0.00  0.00    +0.087 C 
ATOM     21  N   LIG    1       27.433 -27.580  12.555  0.00  0.00    -0.311 NA
ATOM     22  H   LIG    1       27.679 -28.307  13.232  0.00  0.00    +0.122 HD
ATOM     23  C   LIG    1       27.045 -26.380  13.305  0.00  0.00    +0.081 C 
ATOM     24  C   LIG    1       25.833 -26.632  14.198  0.00  0.00    +0.015 C 
ATOM     25  C   LIG    1       24.655 -27.134  13.373  0.00  0.00    +0.003 C 
ATOM     26  C   LIG    1       25.065 -28.348  12.546  0.00  0.00    +0.021 C 
ENDBRANCH  19  20
BRANCH  19  27
ATOM     27  O   LIG    1       28.270 -29.247  10.849  0.00  0.00    -0.386 OA
ATOM     28  H   LIG    1       28.577 -30.176  10.798  0.00  0.00    +0.210 HD
ENDBRANCH  19  27
ENDBRANCH   1  19
TORSDOF 5
ENDMDL
