MODEL 1
REMARK VINA RESULT:      -7.1      0.000      0.000
REMARK  Name = *****
REMARK                            x       y       z     vdW  Elec       q    Type
REMARK                         _______ _______ _______ _____ _____    ______ ____
ROOT
ATOM      1  C   LIG    1       28.206 -20.085   8.096  0.00  0.00    +0.296 C 
ATOM      2  C   LIG    1       29.296 -21.161   7.971  0.00  0.00    +0.321 C 
ATOM      3  F   LIG    1       29.197 -21.860   6.818  0.00  0.00    -0.198 F 
ATOM      4  F   LIG    1       29.314 -22.054   8.987  0.00  0.00    -0.198 F 
ATOM      5  C   LIG    1       30.580 -20.357   8.004  0.00  0.00    +0.219 C 
ATOM      6  C   LIG    1       30.184 -19.019   7.388  0.00  0.00    +0.181 C 
ATOM      7  O   LIG    1       28.758 -18.856   7.556  0.00  0.00    -0.342 OA
ENDROOT
BRANCH   1  12
ATOM      8  C   LIG    1       24.443 -20.768   6.456  0.00  0.00    +0.123 C 
ATOM      9  N   LIG    1       24.592 -20.816   7.740  0.00  0.00    -0.178 NA
ATOM     10  C   LIG    1       25.833 -20.617   8.300  0.00  0.00    +0.352 C 
ATOM     11  O   LIG    1       25.976 -20.608   9.518  0.00  0.00    -0.244 OA
ATOM     12  N   LIG    1       26.921 -20.383   7.450  0.00  0.00    -0.267 N 
ATOM     13  C   LIG    1       26.753 -20.334   6.083  0.00  0.00    +0.096 C 
ATOM     14  C   LIG    1       25.560 -20.527   5.524  0.00  0.00    +0.061 C 
BRANCH   8  15
ATOM     15  N   LIG    1       23.178 -20.932   5.966  0.00  0.00    -0.343 N 
ATOM     16  H   LIG    1       22.486 -20.451   6.533  0.00  0.00    +0.144 HD
ATOM     17  H   LIG    1       23.046 -20.788   4.974  0.00  0.00    +0.144 HD
ENDBRANCH   8  15
ENDBRANCH   1  12
BRANCH   5  18
ATOM     18  O   LIG    1       31.017 -20.131   9.359  0.00  0.00    -0.383 OA
ATOM     19  H   LIG    1       30.496 -20.735   9.926  0.00  0.00    +0.210 HD
ENDBRANCH   5  18
BRANCH   6  20
ATOM     20  C   LIG    1       30.522 -18.903   5.900  0.00  0.00    +0.190 C 
BRANCH  20  21
ATOM     21  O   LIG    1       29.638 -18.025   5.219  0.00  0.00    -0.392 OA
ATOM     22  H   LIG    1       30.003 -17.125   5.283  0.00  0.00    +0.209 HD
ENDBRANCH  20  21
ENDBRANCH   6  20
TORSDOF 5
ENDMDL
MODEL 2
REMARK VINA RESULT:      -7.1      3.608      5.821
REMARK  Name = *****
REMARK                            x       y       z     vdW  Elec       q    Type
REMARK                         _______ _______ _______ _____ _____    ______ ____
ROOT
ATOM      1  C   LIG    1       24.763 -21.660   5.770  0.00  0.00    +0.296 C 
ATOM      2  C   LIG    1       23.580 -21.139   6.600  0.00  0.00    +0.321 C 
ATOM      3  F   LIG    1       23.867 -19.979   7.231  0.00  0.00    -0.198 F 
ATOM      4  F   LIG    1       23.131 -22.009   7.535  0.00  0.00    -0.198 F 
ATOM      5  C   LIG    1       22.494 -20.934   5.563  0.00  0.00    +0.219 C 
ATOM      6  C   LIG    1       23.267 -20.595   4.293  0.00  0.00    +0.181 C 
ATOM      7  O   LIG    1       24.599 -21.140   4.424  0.00  0.00    -0.342 OA
ENDROOT
BRANCH   1  12
ATOM      8  C   LIG    1       28.626 -21.009   7.171  0.00  0.00    +0.123 C 
ATOM      9  N   LIG    1       27.950 -22.015   7.624  0.00  0.00    -0.178 NA
ATOM     10  C   LIG    1       26.662 -22.234   7.191  0.00  0.00    +0.352 C 
ATOM     11  O   LIG    1       26.032 -23.213   7.572  0.00  0.00    -0.244 OA
ATOM     12  N   LIG    1       26.104 -21.336   6.273  0.00  0.00    -0.267 N 
ATOM     13  C   LIG    1       26.831 -20.266   5.796  0.00  0.00    +0.096 C 
ATOM     14  C   LIG    1       28.078 -20.038   6.207  0.00  0.00    +0.061 C 
BRANCH   8  15
ATOM     15  N   LIG    1       29.913 -20.872   7.610  0.00  0.00    -0.343 N 
ATOM     16  H   LIG    1       30.168 -19.896   7.737  0.00  0.00    +0.144 HD
ATOM     17  H   LIG    1       30.203 -21.459   8.381  0.00  0.00    +0.144 HD
ENDBRANCH   8  15
ENDBRANCH   1  12
BRANCH   5  18
ATOM     18  O   LIG    1       21.749 -22.149   5.342  0.00  0.00    -0.383 OA
ATOM     19  H   LIG    1       21.117 -21.962   4.618  0.00  0.00    +0.210 HD
ENDBRANCH   5  18
BRANCH   6  20
ATOM     20  C   LIG    1       23.373 -19.093   4.019  0.00  0.00    +0.190 C 
BRANCH  20  21
ATOM     21  O   LIG    1       22.291 -18.371   4.588  0.00  0.00    -0.392 OA
ATOM     22  H   LIG    1       22.363 -17.444   4.298  0.00  0.00    +0.209 HD
ENDBRANCH  20  21
ENDBRANCH   6  20
TORSDOF 5
ENDMDL
MODEL 3
REMARK VINA RESULT:      -6.9      2.074      3.094
REMARK  Name = *****
REMARK                            x       y       z     vdW  Elec       q    Type
REMARK                         _______ _______ _______ _____ _____    ______ ____
ROOT
ATOM      1  C   LIG    1       28.696 -20.474   6.864  0.00  0.00    +0.296 C 
ATOM      2  C   LIG    1       29.406 -19.269   7.501  0.00  0.00    +0.321 C 
ATOM      3  F   LIG    1       28.854 -18.913   8.682  0.00  0.00    -0.198 F 
ATOM      4  F   LIG    1       29.439 -18.166   6.718  0.00  0.00    -0.198 F 
ATOM      5  C   LIG    1       30.823 -19.770   7.698  0.00  0.00    +0.219 C 
ATOM      6  C   LIG    1       30.649 -21.270   7.912  0.00  0.00    +0.181 C 
ATOM      7  O   LIG    1       29.399 -21.664   7.305  0.00  0.00    -0.342 OA
ENDROOT
BRANCH   1  12
ATOM      8  C   LIG    1       24.601 -20.965   7.413  0.00  0.00    +0.123 C 
ATOM      9  N   LIG    1       25.037 -20.512   6.283  0.00  0.00    -0.178 NA
ATOM     10  C   LIG    1       26.386 -20.320   6.090  0.00  0.00    +0.352 C 
ATOM     11  O   LIG    1       26.816 -19.941   5.006  0.00  0.00    -0.244 OA
ATOM     12  N   LIG    1       27.260 -20.606   7.146  0.00  0.00    -0.267 N 
ATOM     13  C   LIG    1       26.786 -21.088   8.347  0.00  0.00    +0.096 C 
ATOM     14  C   LIG    1       25.484 -21.277   8.551  0.00  0.00    +0.061 C 
BRANCH   8  15
ATOM     15  N   LIG    1       23.255 -21.172   7.526  0.00  0.00    -0.343 N 
ATOM     16  H   LIG    1       22.740 -20.751   6.758  0.00  0.00    +0.144 HD
ATOM     17  H   LIG    1       22.949 -22.113   7.737  0.00  0.00    +0.144 HD
ENDBRANCH   8  15
ENDBRANCH   1  12
BRANCH   5  18
ATOM     18  O   LIG    1       31.619 -19.560   6.515  0.00  0.00    -0.383 OA
ATOM     19  H   LIG    1       31.218 -18.804   6.038  0.00  0.00    +0.210 HD
ENDBRANCH   5  18
BRANCH   6  20
ATOM     20  C   LIG    1       30.635 -21.684   9.386  0.00  0.00    +0.190 C 
BRANCH  20  21
ATOM     21  O   LIG    1       31.935 -21.990   9.866  0.00  0.00    -0.392 OA
ATOM     22  H   LIG    1       31.842 -22.393  10.747  0.00  0.00    +0.209 HD
ENDBRANCH  20  21
ENDBRANCH   6  20
TORSDOF 5
ENDMDL
MODEL 4
REMARK VINA RESULT:      -6.7      3.492      5.784
REMARK  Name = *****
REMARK                            x       y       z     vdW  Elec       q    Type
REMARK                         _______ _______ _______ _____ _____    ______ ____
ROOT
ATOM      1  C   LIG    1       24.829 -22.185   7.281  0.00  0.00    +0.296 C 
ATOM      2  C   LIG    1       23.922 -22.125   6.042  0.00  0.00    +0.321 C 
ATOM      3  F   LIG    1       24.609 -21.834   4.916  0.00  0.00    -0.198 F 
ATOM      4  F   LIG    1       22.906 -21.236   6.139  0.00  0.00    -0.198 F 
ATOM      5  C   LIG    1       23.342 -23.524   5.973  0.00  0.00    +0.219 C 
ATOM      6  C   LIG    1       24.434 -24.398   6.579  0.00  0.00    +0.181 C 
ATOM      7  O   LIG    1       25.246 -23.566   7.437  0.00  0.00    -0.342 OA
ENDROOT
BRANCH   1  12
ATOM      8  C   LIG    1       28.245 -19.817   7.478  0.00  0.00    +0.123 C 
ATOM      9  N   LIG    1       27.552 -20.018   8.552  0.00  0.00    -0.178 NA
ATOM     10  C   LIG    1       26.406 -20.778   8.502  0.00  0.00    +0.352 C 
ATOM     11  O   LIG    1       25.770 -21.019   9.522  0.00  0.00    -0.244 OA
ATOM     12  N   LIG    1       26.005 -21.305   7.268  0.00  0.00    -0.267 N 
ATOM     13  C   LIG    1       26.750 -21.085   6.129  0.00  0.00    +0.096 C 
ATOM     14  C   LIG    1       27.860 -20.350   6.159  0.00  0.00    +0.061 C 
BRANCH   8  15
ATOM     15  N   LIG    1       29.394 -19.088   7.602  0.00  0.00    -0.343 N 
ATOM     16  H   LIG    1       29.346 -18.213   7.086  0.00  0.00    +0.144 HD
ATOM     17  H   LIG    1       29.771 -18.977   8.534  0.00  0.00    +0.144 HD
ENDBRANCH   8  15
ENDBRANCH   1  12
BRANCH   5  18
ATOM     18  O   LIG    1       22.155 -23.636   6.784  0.00  0.00    -0.383 OA
ATOM     19  H   LIG    1       21.518 -22.975   6.443  0.00  0.00    +0.210 HD
ENDBRANCH   5  18
BRANCH   6  20
ATOM     20  C   LIG    1       25.338 -25.063   5.537  0.00  0.00    +0.190 C 
BRANCH  20  21
ATOM     21  O   LIG    1       24.828 -24.919   4.220  0.00  0.00    -0.392 OA
ATOM     22  H   LIG    1       25.444 -24.353   3.721  0.00  0.00    +0.209 HD
ENDBRANCH  20  21
ENDBRANCH   6  20
TORSDOF 5
ENDMDL
MODEL 5
REMARK VINA RESULT:      -6.5      3.140      6.120
REMARK  Name = *****
REMARK                            x       y       z     vdW  Elec       q    Type
REMARK                         _______ _______ _______ _____ _____    ______ ____
ROOT
ATOM      1  C   LIG    1       25.112 -20.452   6.062  0.00  0.00    +0.296 C 
ATOM      2  C   LIG    1       24.610 -21.270   4.862  0.00  0.00    +0.321 C 
ATOM      3  F   LIG    1       25.198 -22.485   4.788  0.00  0.00    -0.198 F 
ATOM      4  F   LIG    1       24.782 -20.663   3.665  0.00  0.00    -0.198 F 
ATOM      5  C   LIG    1       23.125 -21.406   5.133  0.00  0.00    +0.219 C 
ATOM      6  C   LIG    1       23.033 -21.390   6.655  0.00  0.00    +0.181 C 
ATOM      7  O   LIG    1       24.206 -20.717   7.165  0.00  0.00    -0.342 OA
ENDROOT
BRANCH   1  12
ATOM      8  C   LIG    1       29.084 -20.871   7.227  0.00  0.00    +0.123 C 
ATOM      9  N   LIG    1       28.798 -20.122   6.211  0.00  0.00    -0.178 NA
ATOM     10  C   LIG    1       27.493 -19.990   5.796  0.00  0.00    +0.352 C 
ATOM     11  O   LIG    1       27.204 -19.242   4.868  0.00  0.00    -0.244 OA
ATOM     12  N   LIG    1       26.498 -20.696   6.482  0.00  0.00    -0.267 N 
ATOM     13  C   LIG    1       26.811 -21.492   7.563  0.00  0.00    +0.096 C 
ATOM     14  C   LIG    1       28.069 -21.633   7.977  0.00  0.00    +0.061 C 
BRANCH   8  15
ATOM     15  N   LIG    1       30.393 -20.927   7.614  0.00  0.00    -0.343 N 
ATOM     16  H   LIG    1       30.894 -21.680   7.151  0.00  0.00    +0.144 HD
ATOM     17  H   LIG    1       30.909 -20.057   7.623  0.00  0.00    +0.144 HD
ENDBRANCH   8  15
ENDBRANCH   1  12
BRANCH   5  18
ATOM     18  O   LIG    1       22.397 -20.275   4.613  0.00  0.00    -0.383 OA
ATOM     19  H   LIG    1       21.476 -20.578   4.468  0.00  0.00    +0.210 HD
ENDBRANCH   5  18
BRANCH   6  20
ATOM     20  C   LIG    1       22.952 -22.784   7.281  0.00  0.00    +0.190 C 
BRANCH  20  21
ATOM     21  O   LIG    1       22.142 -23.665   6.517  0.00  0.00    -0.392 OA
ATOM     22  H   LIG    1       22.616 -24.511   6.432  0.00  0.00    +0.209 HD
ENDBRANCH  20  21
ENDBRANCH   6  20
TORSDOF 5
ENDMDL
MODEL 6
REMARK VINA RESULT:      -6.5      2.946      5.321
REMARK  Name = *****
REMARK                            x       y       z     vdW  Elec       q    Type
REMARK                         _______ _______ _______ _____ _____    ______ ____
ROOT
ATOM      1  C   LIG    1       26.053 -21.702   6.597  0.00  0.00    +0.296 C 
ATOM      2  C   LIG    1       24.924 -21.407   7.597  0.00  0.00    +0.321 C 
ATOM      3  F   LIG    1       24.893 -20.107   7.966  0.00  0.00    -0.198 F 
ATOM      4  F   LIG    1       24.975 -22.149   8.727  0.00  0.00    -0.198 F 
ATOM      5  C   LIG    1       23.674 -21.778   6.825  0.00  0.00    +0.219 C 
ATOM      6  C   LIG    1       24.050 -21.500   5.373  0.00  0.00    +0.181 C 
ATOM      7  O   LIG    1       25.489 -21.562   5.266  0.00  0.00    -0.342 OA
ENDROOT
BRANCH   1  12
ATOM      8  C   LIG    1       29.613 -19.591   7.023  0.00  0.00    +0.123 C 
ATOM      9  N   LIG    1       29.254 -20.420   7.950  0.00  0.00    -0.178 NA
ATOM     10  C   LIG    1       28.069 -21.110   7.839  0.00  0.00    +0.352 C 
ATOM     11  O   LIG    1       27.744 -21.937   8.683  0.00  0.00    -0.244 OA
ATOM     12  N   LIG    1       27.262 -20.877   6.718  0.00  0.00    -0.267 N 
ATOM     13  C   LIG    1       27.652 -19.991   5.736  0.00  0.00    +0.096 C 
ATOM     14  C   LIG    1       28.795 -19.314   5.829  0.00  0.00    +0.061 C 
BRANCH   8  15
ATOM     15  N   LIG    1       30.821 -18.969   7.174  0.00  0.00    -0.343 N 
ATOM     16  H   LIG    1       30.718 -17.965   7.288  0.00  0.00    +0.144 HD
ATOM     17  H   LIG    1       31.471 -19.378   7.832  0.00  0.00    +0.144 HD
ENDBRANCH   8  15
ENDBRANCH   1  12
BRANCH   5  18
ATOM     18  O   LIG    1       23.374 -23.181   6.964  0.00  0.00    -0.383 OA
ATOM     19  H   LIG    1       24.197 -23.615   7.269  0.00  0.00    +0.210 HD
ENDBRANCH   5  18
BRANCH   6  20
ATOM     20  C   LIG    1       23.576 -20.135   4.866  0.00  0.00    +0.190 C 
BRANCH  20  21
ATOM     21  O   LIG    1       22.520 -19.611   5.657  0.00  0.00    -0.392 OA
ATOM     22  H   LIG    1       22.549 -20.050   6.526  0.00  0.00    +0.209 HD
ENDBRANCH  20  21
ENDBRANCH   6  20
TORSDOF 5
ENDMDL
MODEL 7
REMARK VINA RESULT:      -6.2      3.910      4.992
REMARK  Name = *****
REMARK                            x       y       z     vdW  Elec       q    Type
REMARK                         _______ _______ _______ _____ _____    ______ ____
ROOT
ATOM      1  C   LIG    1       24.834 -22.837   7.315  0.00  0.00    +0.296 C 
ATOM      2  C   LIG    1       26.184 -22.203   7.687  0.00  0.00    +0.321 C 
ATOM      3  F   LIG    1       27.195 -22.658   6.914  0.00  0.00    -0.198 F 
ATOM      4  F   LIG    1       26.546 -22.385   8.978  0.00  0.00    -0.198 F 
ATOM      5  C   LIG    1       25.947 -20.725   7.449  0.00  0.00    +0.219 C 
ATOM      6  C   LIG    1       24.916 -20.700   6.326  0.00  0.00    +0.181 C 
ATOM      7  O   LIG    1       24.203 -21.956   6.349  0.00  0.00    -0.342 OA
ENDROOT
BRANCH   1  12
ATOM      8  C   LIG    1       24.769 -26.648   5.647  0.00  0.00    +0.123 C 
ATOM      9  N   LIG    1       23.650 -26.060   5.925  0.00  0.00    -0.178 NA
ATOM     10  C   LIG    1       23.651 -24.810   6.500  0.00  0.00    +0.352 C 
ATOM     11  O   LIG    1       22.599 -24.222   6.720  0.00  0.00    -0.244 OA
ATOM     12  N   LIG    1       24.882 -24.207   6.789  0.00  0.00    -0.267 N 
ATOM     13  C   LIG    1       26.068 -24.841   6.488  0.00  0.00    +0.096 C 
ATOM     14  C   LIG    1       26.086 -26.052   5.934  0.00  0.00    +0.061 C 
BRANCH   8  15
ATOM     15  N   LIG    1       24.699 -27.870   5.040  0.00  0.00    -0.343 N 
ATOM     16  H   LIG    1       24.125 -27.845   4.201  0.00  0.00    +0.144 HD
ATOM     17  H   LIG    1       25.568 -28.370   4.908  0.00  0.00    +0.144 HD
ENDBRANCH   8  15
ENDBRANCH   1  12
BRANCH   5  18
ATOM     18  O   LIG    1       25.379 -20.095   8.614  0.00  0.00    -0.383 OA
ATOM     19  H   LIG    1       25.536 -19.133   8.518  0.00  0.00    +0.210 HD
ENDBRANCH   5  18
BRANCH   6  20
ATOM     20  C   LIG    1       25.525 -20.503   4.936  0.00  0.00    +0.190 C 
BRANCH  20  21
ATOM     21  O   LIG    1       26.907 -20.186   5.000  0.00  0.00    -0.392 OA
ATOM     22  H   LIG    1       27.395 -21.008   5.188  0.00  0.00    +0.209 HD
ENDBRANCH  20  21
ENDBRANCH   6  20
TORSDOF 5
ENDMDL
MODEL 8
REMARK VINA RESULT:      -6.1      4.423      5.625
REMARK  Name = *****
REMARK                            x       y       z     vdW  Elec       q    Type
REMARK                         _______ _______ _______ _____ _____    ______ ____
ROOT
ATOM      1  C   LIG    1       24.258 -22.718   6.048  0.00  0.00    +0.296 C 
ATOM      2  C   LIG    1       24.061 -21.889   7.327  0.00  0.00    +0.321 C 
ATOM      3  F   LIG    1       24.915 -22.252   8.310  0.00  0.00    -0.198 F 
ATOM      4  F   LIG    1       22.809 -21.944   7.837  0.00  0.00    -0.198 F 
ATOM      5  C   LIG    1       24.339 -20.473   6.866  0.00  0.00    +0.219 C 
ATOM      6  C   LIG    1       25.346 -20.652   5.735  0.00  0.00    +0.181 C 
ATOM      7  O   LIG    1       25.191 -21.988   5.209  0.00  0.00    -0.342 OA
ENDROOT
BRANCH   1  12
ATOM      8  C   LIG    1       25.364 -26.712   6.415  0.00  0.00    +0.123 C 
ATOM      9  N   LIG    1       24.120 -26.385   6.556  0.00  0.00    -0.178 NA
ATOM     10  C   LIG    1       23.738 -25.066   6.463  0.00  0.00    +0.352 C 
ATOM     11  O   LIG    1       22.556 -24.750   6.542  0.00  0.00    -0.244 OA
ATOM     12  N   LIG    1       24.723 -24.099   6.232  0.00  0.00    -0.267 N 
ATOM     13  C   LIG    1       26.046 -24.457   6.083  0.00  0.00    +0.096 C 
ATOM     14  C   LIG    1       26.434 -25.728   6.173  0.00  0.00    +0.061 C 
BRANCH   8  15
ATOM     15  N   LIG    1       25.672 -28.042   6.478  0.00  0.00    -0.343 N 
ATOM     16  H   LIG    1       26.052 -28.385   5.600  0.00  0.00    +0.144 HD
ATOM     17  H   LIG    1       26.195 -28.357   7.284  0.00  0.00    +0.144 HD
ENDBRANCH   8  15
ENDBRANCH   1  12
BRANCH   5  18
ATOM     18  O   LIG    1       23.149 -19.856   6.334  0.00  0.00    -0.383 OA
ATOM     19  H   LIG    1       22.758 -19.329   7.061  0.00  0.00    +0.210 HD
ENDBRANCH   5  18
BRANCH   6  20
ATOM     20  C   LIG    1       26.800 -20.459   6.171  0.00  0.00    +0.190 C 
BRANCH  20  21
ATOM     21  O   LIG    1       27.655 -20.190   5.069  0.00  0.00    -0.392 OA
ATOM     22  H   LIG    1       27.096 -19.968   4.304  0.00  0.00    +0.209 HD
ENDBRANCH  20  21
ENDBRANCH   6  20
TORSDOF 5
ENDMDL
MODEL 9
REMARK VINA RESULT:      -6.0      4.820      6.208
REMARK  Name = *****
REMARK                            x       y       z     vdW  Elec       q    Type
REMARK                         _______ _______ _______ _____ _____    ______ ____
ROOT
ATOM      1  C   LIG    1       25.182 -23.095   5.863  0.00  0.00    +0.296 C 
ATOM      2  C   LIG    1       23.861 -22.516   6.391  0.00  0.00    +0.321 C 
ATOM      3  F   LIG    1       23.341 -23.257   7.395  0.00  0.00    -0.198 F 
ATOM      4  F   LIG    1       22.899 -22.378   5.449  0.00  0.00    -0.198 F 
ATOM      5  C   LIG    1       24.260 -21.142   6.888  0.00  0.00    +0.219 C 
ATOM      6  C   LIG    1       25.711 -21.322   7.321  0.00  0.00    +0.181 C 
ATOM      7  O   LIG    1       26.253 -22.452   6.602  0.00  0.00    -0.342 OA
ENDROOT
BRANCH   1  12
ATOM      8  C   LIG    1       25.729 -27.220   5.828  0.00  0.00    +0.123 C 
ATOM      9  N   LIG    1       25.328 -26.626   4.751  0.00  0.00    -0.178 NA
ATOM     10  C   LIG    1       25.118 -25.266   4.749  0.00  0.00    +0.352 C 
ATOM     11  O   LIG    1       24.790 -24.685   3.721  0.00  0.00    -0.244 OA
ATOM     12  N   LIG    1       25.329 -24.555   5.937  0.00  0.00    -0.267 N 
ATOM     13  C   LIG    1       25.756 -25.196   7.080  0.00  0.00    +0.096 C 
ATOM     14  C   LIG    1       25.961 -26.512   7.100  0.00  0.00    +0.061 C 
BRANCH   8  15
ATOM     15  N   LIG    1       25.958 -28.565   5.753  0.00  0.00    -0.343 N 
ATOM     16  H   LIG    1       26.694 -28.860   6.388  0.00  0.00    +0.144 HD
ATOM     17  H   LIG    1       25.150 -29.173   5.776  0.00  0.00    +0.144 HD
ENDBRANCH   8  15
ENDBRANCH   1  12
BRANCH   5  18
ATOM     18  O   LIG    1       24.212 -20.170   5.824  0.00  0.00    -0.383 OA
ATOM     19  H   LIG    1       23.369 -20.318   5.348  0.00  0.00    +0.210 HD
ENDBRANCH   5  18
BRANCH   6  20
ATOM     20  C   LIG    1       25.879 -21.565   8.823  0.00  0.00    +0.190 C 
BRANCH  20  21
ATOM     21  O   LIG    1       26.005 -20.352   9.548  0.00  0.00    -0.392 OA
ATOM     22  H   LIG    1       26.567 -19.749   9.029  0.00  0.00    +0.209 HD
ENDBRANCH  20  21
ENDBRANCH   6  20
TORSDOF 5
ENDMDL
