MODEL 1
REMARK VINA RESULT:      -6.2      0.000      0.000
REMARK  Name = *****
REMARK                            x       y       z     vdW  Elec       q    Type
REMARK                         _______ _______ _______ _____ _____    ______ ____
ROOT
ATOM      1  C   LIG    1       28.026 -17.811   4.756  0.00  0.00    +0.117 C 
ENDROOT
BRANCH   1   2
ATOM      2  N   LIG    1       27.709 -19.247   4.973  0.00  0.00    -0.310 NA
ATOM      3  H   LIG    1       26.717 -19.363   4.731  0.00  0.00    +0.122 HD
BRANCH   2   5
ATOM      4  C   LIG    1       29.384 -20.028   6.664  0.00  0.00    +0.024 C 
ATOM      5  C   LIG    1       27.904 -19.714   6.365  0.00  0.00    +0.055 C 
BRANCH   5   6
ATOM      6  C   LIG    1       27.056 -20.992   6.672  0.00  0.00    +0.053 C 
BRANCH   6   7
ATOM      7  C   LIG    1       25.623 -20.996   6.165  0.00  0.00    -0.046 A 
ATOM      8  C   LIG    1       24.547 -20.875   7.062  0.00  0.00    +0.007 A 
ATOM      9  C   LIG    1       23.227 -20.908   6.594  0.00  0.00    +0.045 A 
ATOM     10  C   LIG    1       22.972 -21.055   5.243  0.00  0.00    +0.117 A 
ATOM     11  C   LIG    1       24.020 -21.129   4.328  0.00  0.00    +0.045 A 
ATOM     12  C   LIG    1       25.341 -21.097   4.797  0.00  0.00    +0.007 A 
BRANCH  10  13
ATOM     13  O   LIG    1       21.668 -21.129   4.840  0.00  0.00    -0.507 OA
ATOM     14  H   LIG    1       21.261 -20.257   4.936  0.00  0.00    +0.292 HD
ENDBRANCH  10  13
ENDBRANCH   6   7
ENDBRANCH   5   6
ENDBRANCH   2   5
ENDBRANCH   1   2
BRANCH   1  15
ATOM     15  C   LIG    1       27.219 -17.180   3.577  0.00  0.00    +0.158 C 
BRANCH  15  16
ATOM     16  C   LIG    1       26.740 -15.754   3.835  0.00  0.00    -0.011 A 
ATOM     17  C   LIG    1       25.458 -15.329   3.446  0.00  0.00    +0.051 A 
ATOM     18  C   LIG    1       25.035 -14.024   3.699  0.00  0.00    +0.121 A 
ATOM     19  C   LIG    1       25.870 -13.106   4.323  0.00  0.00    +0.090 A 
ATOM     20  C   LIG    1       27.151 -13.509   4.680  0.00  0.00    +0.121 A 
ATOM     21  C   LIG    1       27.595 -14.811   4.439  0.00  0.00    +0.051 A 
BRANCH  18  22
ATOM     22  O   LIG    1       23.774 -13.675   3.311  0.00  0.00    -0.507 OA
ATOM     23  H   LIG    1       23.415 -14.382   2.749  0.00  0.00    +0.292 HD
ENDBRANCH  18  22
BRANCH  20  24
ATOM     24  O   LIG    1       27.953 -12.576   5.272  0.00  0.00    -0.507 OA
ATOM     25  H   LIG    1       28.413 -12.985   6.024  0.00  0.00    +0.292 HD
ENDBRANCH  20  24
ENDBRANCH  15  16
BRANCH  15  26
ATOM     26  O   LIG    1       26.095 -18.016   3.273  0.00  0.00    -0.386 OA
ATOM     27  H   LIG    1       25.792 -17.798   2.375  0.00  0.00    +0.210 HD
ENDBRANCH  15  26
ENDBRANCH   1  15
TORSDOF 10
ENDMDL
MODEL 2
REMARK VINA RESULT:      -6.2      0.253      1.762
REMARK  Name = *****
REMARK                            x       y       z     vdW  Elec       q    Type
REMARK                         _______ _______ _______ _____ _____    ______ ____
ROOT
ATOM      1  C   LIG    1       27.992 -17.862   4.784  0.00  0.00    +0.117 C 
ENDROOT
BRANCH   1   2
ATOM      2  N   LIG    1       27.752 -19.314   4.990  0.00  0.00    -0.310 NA
ATOM      3  H   LIG    1       26.783 -19.490   4.697  0.00  0.00    +0.122 HD
BRANCH   2   5
ATOM      4  C   LIG    1       29.371 -20.075   6.744  0.00  0.00    +0.024 C 
ATOM      5  C   LIG    1       27.901 -19.766   6.392  0.00  0.00    +0.055 C 
BRANCH   5   6
ATOM      6  C   LIG    1       27.044 -21.042   6.685  0.00  0.00    +0.053 C 
BRANCH   6   7
ATOM      7  C   LIG    1       25.614 -21.034   6.171  0.00  0.00    -0.046 A 
ATOM      8  C   LIG    1       24.536 -20.876   7.061  0.00  0.00    +0.007 A 
ATOM      9  C   LIG    1       23.218 -20.897   6.588  0.00  0.00    +0.045 A 
ATOM     10  C   LIG    1       22.966 -21.068   5.239  0.00  0.00    +0.117 A 
ATOM     11  C   LIG    1       24.016 -21.179   4.331  0.00  0.00    +0.045 A 
ATOM     12  C   LIG    1       25.336 -21.158   4.805  0.00  0.00    +0.007 A 
BRANCH  10  13
ATOM     13  O   LIG    1       21.662 -21.130   4.832  0.00  0.00    -0.507 OA
ATOM     14  H   LIG    1       21.114 -20.651   5.468  0.00  0.00    +0.292 HD
ENDBRANCH  10  13
ENDBRANCH   6   7
ENDBRANCH   5   6
ENDBRANCH   2   5
ENDBRANCH   1   2
BRANCH   1  15
ATOM     15  C   LIG    1       27.216 -17.284   3.558  0.00  0.00    +0.158 C 
BRANCH  15  16
ATOM     16  C   LIG    1       26.817 -15.818   3.700  0.00  0.00    -0.011 A 
ATOM     17  C   LIG    1       27.752 -14.837   4.074  0.00  0.00    +0.051 A 
ATOM     18  C   LIG    1       27.370 -13.500   4.191  0.00  0.00    +0.121 A 
ATOM     19  C   LIG    1       26.059 -13.104   3.960  0.00  0.00    +0.090 A 
ATOM     20  C   LIG    1       25.122 -14.073   3.622  0.00  0.00    +0.121 A 
ATOM     21  C   LIG    1       25.482 -15.417   3.497  0.00  0.00    +0.051 A 
BRANCH  18  22
ATOM     22  O   LIG    1       28.326 -12.591   4.543  0.00  0.00    -0.507 OA
ATOM     23  H   LIG    1       29.137 -12.786   4.045  0.00  0.00    +0.292 HD
ENDBRANCH  18  22
BRANCH  20  24
ATOM     24  O   LIG    1       23.838 -13.653   3.423  0.00  0.00    -0.507 OA
ATOM     25  H   LIG    1       23.775 -13.233   2.549  0.00  0.00    +0.292 HD
ENDBRANCH  20  24
ENDBRANCH  15  16
BRANCH  15  26
ATOM     26  O   LIG    1       26.046 -18.079   3.322  0.00  0.00    -0.386 OA
ATOM     27  H   LIG    1       26.190 -18.953   3.721  0.00  0.00    +0.210 HD
ENDBRANCH  15  26
ENDBRANCH   1  15
TORSDOF 10
ENDMDL
MODEL 3
REMARK VINA RESULT:      -5.7      2.613      4.133
REMARK  Name = *****
REMARK                            x       y       z     vdW  Elec       q    Type
REMARK                         _______ _______ _______ _____ _____    ______ ____
ROOT
ATOM      1  C   LIG    1       23.311 -16.782   4.378  0.00  0.00    +0.117 C 
ENDROOT
BRANCH   1   2
ATOM      2  N   LIG    1       22.096 -17.523   4.804  0.00  0.00    -0.310 NA
ATOM      3  H   LIG    1       22.267 -17.825   5.770  0.00  0.00    +0.122 HD
BRANCH   2   5
ATOM      4  C   LIG    1       20.360 -18.685   3.421  0.00  0.00    +0.024 C 
ATOM      5  C   LIG    1       21.794 -18.723   3.990  0.00  0.00    +0.055 C 
BRANCH   5   6
ATOM      6  C   LIG    1       21.964 -20.041   4.815  0.00  0.00    +0.053 C 
BRANCH   6   7
ATOM      7  C   LIG    1       23.369 -20.371   5.287  0.00  0.00    -0.046 A 
ATOM      8  C   LIG    1       23.596 -20.811   6.604  0.00  0.00    +0.007 A 
ATOM      9  C   LIG    1       24.896 -21.088   7.045  0.00  0.00    +0.045 A 
ATOM     10  C   LIG    1       25.969 -20.936   6.185  0.00  0.00    +0.117 A 
ATOM     11  C   LIG    1       25.767 -20.548   4.863  0.00  0.00    +0.045 A 
ATOM     12  C   LIG    1       24.466 -20.270   4.422  0.00  0.00    +0.007 A 
BRANCH  10  13
ATOM     13  O   LIG    1       27.223 -21.172   6.676  0.00  0.00    -0.507 OA
ATOM     14  H   LIG    1       27.145 -21.621   7.528  0.00  0.00    +0.292 HD
ENDBRANCH  10  13
ENDBRANCH   6   7
ENDBRANCH   5   6
ENDBRANCH   2   5
ENDBRANCH   1   2
BRANCH   1  15
ATOM     15  C   LIG    1       23.083 -15.239   4.287  0.00  0.00    +0.158 C 
BRANCH  15  16
ATOM     16  C   LIG    1       24.287 -14.455   3.769  0.00  0.00    -0.011 A 
ATOM     17  C   LIG    1       24.127 -13.290   2.999  0.00  0.00    +0.051 A 
ATOM     18  C   LIG    1       25.239 -12.582   2.542  0.00  0.00    +0.121 A 
ATOM     19  C   LIG    1       26.530 -13.016   2.819  0.00  0.00    +0.090 A 
ATOM     20  C   LIG    1       26.696 -14.185   3.551  0.00  0.00    +0.121 A 
ATOM     21  C   LIG    1       25.597 -14.908   4.020  0.00  0.00    +0.051 A 
BRANCH  18  22
ATOM     22  O   LIG    1       25.021 -11.450   1.812  0.00  0.00    -0.507 OA
ATOM     23  H   LIG    1       24.314 -10.938   2.238  0.00  0.00    +0.292 HD
ENDBRANCH  18  22
BRANCH  20  24
ATOM     24  O   LIG    1       27.977 -14.595   3.786  0.00  0.00    -0.507 OA
ATOM     25  H   LIG    1       28.502 -13.834   4.089  0.00  0.00    +0.292 HD
ENDBRANCH  20  24
ENDBRANCH  15  16
BRANCH  15  26
ATOM     26  O   LIG    1       22.704 -14.740   5.576  0.00  0.00    -0.386 OA
ATOM     27  H   LIG    1       23.394 -14.123   5.875  0.00  0.00    +0.210 HD
ENDBRANCH  15  26
ENDBRANCH   1  15
TORSDOF 10
ENDMDL
MODEL 4
REMARK VINA RESULT:      -5.3      2.607      4.432
REMARK  Name = *****
REMARK                            x       y       z     vdW  Elec       q    Type
REMARK                         _______ _______ _______ _____ _____    ______ ____
ROOT
ATOM      1  C   LIG    1       23.403 -16.970   4.295  0.00  0.00    +0.117 C 
ENDROOT
BRANCH   1   2
ATOM      2  N   LIG    1       22.244 -17.770   4.769  0.00  0.00    -0.310 NA
ATOM      3  H   LIG    1       22.548 -18.233   5.634  0.00  0.00    +0.122 HD
BRANCH   2   5
ATOM      4  C   LIG    1       20.290 -18.678   3.490  0.00  0.00    +0.024 C 
ATOM      5  C   LIG    1       21.791 -18.813   3.820  0.00  0.00    +0.055 C 
BRANCH   5   6
ATOM      6  C   LIG    1       22.047 -20.253   4.375  0.00  0.00    +0.053 C 
BRANCH   6   7
ATOM      7  C   LIG    1       23.369 -20.483   5.087  0.00  0.00    -0.046 A 
ATOM      8  C   LIG    1       24.588 -20.218   4.436  0.00  0.00    +0.007 A 
ATOM      9  C   LIG    1       25.805 -20.459   5.085  0.00  0.00    +0.045 A 
ATOM     10  C   LIG    1       25.819 -20.954   6.377  0.00  0.00    +0.117 A 
ATOM     11  C   LIG    1       24.626 -21.179   7.062  0.00  0.00    +0.045 A 
ATOM     12  C   LIG    1       23.408 -20.939   6.411  0.00  0.00    +0.007 A 
BRANCH  10  13
ATOM     13  O   LIG    1       27.031 -21.217   6.951  0.00  0.00    -0.507 OA
ATOM     14  H   LIG    1       27.653 -21.480   6.260  0.00  0.00    +0.292 HD
ENDBRANCH  10  13
ENDBRANCH   6   7
ENDBRANCH   5   6
ENDBRANCH   2   5
ENDBRANCH   1   2
BRANCH   1  15
ATOM     15  C   LIG    1       23.100 -15.439   4.229  0.00  0.00    +0.158 C 
BRANCH  15  16
ATOM     16  C   LIG    1       24.246 -14.595   3.678  0.00  0.00    -0.011 A 
ATOM     17  C   LIG    1       25.588 -14.971   3.860  0.00  0.00    +0.051 A 
ATOM     18  C   LIG    1       26.622 -14.190   3.342  0.00  0.00    +0.121 A 
ATOM     19  C   LIG    1       26.357 -13.015   2.650  0.00  0.00    +0.090 A 
ATOM     20  C   LIG    1       25.034 -12.619   2.495  0.00  0.00    +0.121 A 
ATOM     21  C   LIG    1       23.984 -13.387   3.003  0.00  0.00    +0.051 A 
BRANCH  18  22
ATOM     22  O   LIG    1       27.904 -14.615   3.538  0.00  0.00    -0.507 OA
ATOM     23  H   LIG    1       28.501 -14.049   3.022  0.00  0.00    +0.292 HD
ENDBRANCH  18  22
BRANCH  20  24
ATOM     24  O   LIG    1       24.810 -11.448   1.829  0.00  0.00    -0.507 OA
ATOM     25  H   LIG    1       25.618 -11.197   1.350  0.00  0.00    +0.292 HD
ENDBRANCH  20  24
ENDBRANCH  15  16
BRANCH  15  26
ATOM     26  O   LIG    1       22.745 -14.971   5.537  0.00  0.00    -0.386 OA
ATOM     27  H   LIG    1       21.884 -14.523   5.473  0.00  0.00    +0.210 HD
ENDBRANCH  15  26
ENDBRANCH   1  15
TORSDOF 10
ENDMDL
MODEL 5
REMARK VINA RESULT:      -5.0      1.978      3.187
REMARK  Name = *****
REMARK                            x       y       z     vdW  Elec       q    Type
REMARK                         _______ _______ _______ _____ _____    ______ ____
ROOT
ATOM      1  C   LIG    1       28.198 -15.140   4.256  0.00  0.00    +0.117 C 
ENDROOT
BRANCH   1   2
ATOM      2  N   LIG    1       27.500 -16.090   3.351  0.00  0.00    -0.310 NA
ATOM      3  H   LIG    1       26.722 -15.568   2.930  0.00  0.00    +0.122 HD
BRANCH   2   5
ATOM      4  C   LIG    1       28.049 -18.273   4.450  0.00  0.00    +0.024 C 
ATOM      5  C   LIG    1       26.943 -17.284   4.028  0.00  0.00    +0.055 C 
BRANCH   5   6
ATOM      6  C   LIG    1       25.922 -18.043   3.118  0.00  0.00    +0.053 C 
BRANCH   6   7
ATOM      7  C   LIG    1       24.963 -18.992   3.816  0.00  0.00    -0.046 A 
ATOM      8  C   LIG    1       23.619 -18.629   4.018  0.00  0.00    +0.007 A 
ATOM      9  C   LIG    1       22.744 -19.494   4.687  0.00  0.00    +0.045 A 
ATOM     10  C   LIG    1       23.194 -20.717   5.150  0.00  0.00    +0.117 A 
ATOM     11  C   LIG    1       24.508 -21.121   4.921  0.00  0.00    +0.045 A 
ATOM     12  C   LIG    1       25.384 -20.254   4.252  0.00  0.00    +0.007 A 
BRANCH  10  13
ATOM     13  O   LIG    1       22.316 -21.506   5.839  0.00  0.00    -0.507 OA
ATOM     14  H   LIG    1       22.694 -21.712   6.704  0.00  0.00    +0.292 HD
ENDBRANCH  10  13
ENDBRANCH   6   7
ENDBRANCH   5   6
ENDBRANCH   2   5
ENDBRANCH   1   2
BRANCH   1  15
ATOM     15  C   LIG    1       27.688 -13.671   4.108  0.00  0.00    +0.158 C 
BRANCH  15  16
ATOM     16  C   LIG    1       26.202 -13.551   3.781  0.00  0.00    -0.011 A 
ATOM     17  C   LIG    1       25.715 -12.535   2.941  0.00  0.00    +0.051 A 
ATOM     18  C   LIG    1       24.354 -12.446   2.648  0.00  0.00    +0.121 A 
ATOM     19  C   LIG    1       23.443 -13.345   3.188  0.00  0.00    +0.090 A 
ATOM     20  C   LIG    1       23.912 -14.331   4.047  0.00  0.00    +0.121 A 
ATOM     21  C   LIG    1       25.271 -14.440   4.352  0.00  0.00    +0.051 A 
BRANCH  18  22
ATOM     22  O   LIG    1       23.944 -11.447   1.813  0.00  0.00    -0.507 OA
ATOM     23  H   LIG    1       23.987 -11.770   0.898  0.00  0.00    +0.292 HD
ENDBRANCH  18  22
BRANCH  20  24
ATOM     24  O   LIG    1       22.987 -15.184   4.578  0.00  0.00    -0.507 OA
ATOM     25  H   LIG    1       22.303 -15.364   3.911  0.00  0.00    +0.292 HD
ENDBRANCH  20  24
ENDBRANCH  15  16
BRANCH  15  26
ATOM     26  O   LIG    1       28.457 -13.004   3.098  0.00  0.00    -0.386 OA
ATOM     27  H   LIG    1       29.241 -13.546   2.909  0.00  0.00    +0.210 HD
ENDBRANCH  15  26
ENDBRANCH   1  15
TORSDOF 10
ENDMDL
MODEL 6
REMARK VINA RESULT:      -4.9      1.941      2.992
REMARK  Name = *****
REMARK                            x       y       z     vdW  Elec       q    Type
REMARK                         _______ _______ _______ _____ _____    ______ ____
ROOT
ATOM      1  C   LIG    1       28.088 -15.339   4.281  0.00  0.00    +0.117 C 
ENDROOT
BRANCH   1   2
ATOM      2  N   LIG    1       27.230 -16.294   3.534  0.00  0.00    -0.310 NA
ATOM      3  H   LIG    1       26.315 -15.839   3.429  0.00  0.00    +0.122 HD
BRANCH   2   5
ATOM      4  C   LIG    1       28.352 -18.192   4.723  0.00  0.00    +0.024 C 
ATOM      5  C   LIG    1       27.025 -17.594   4.213  0.00  0.00    +0.055 C 
BRANCH   5   6
ATOM      6  C   LIG    1       26.342 -18.640   3.271  0.00  0.00    +0.053 C 
BRANCH   6   7
ATOM      7  C   LIG    1       25.130 -19.369   3.828  0.00  0.00    -0.046 A 
ATOM      8  C   LIG    1       25.283 -20.582   4.522  0.00  0.00    +0.007 A 
ATOM      9  C   LIG    1       24.162 -21.266   5.009  0.00  0.00    +0.045 A 
ATOM     10  C   LIG    1       22.894 -20.749   4.816  0.00  0.00    +0.117 A 
ATOM     11  C   LIG    1       22.718 -19.525   4.174  0.00  0.00    +0.045 A 
ATOM     12  C   LIG    1       23.841 -18.841   3.685  0.00  0.00    +0.007 A 
BRANCH  10  13
ATOM     13  O   LIG    1       21.828 -21.476   5.268  0.00  0.00    -0.507 OA
ATOM     14  H   LIG    1       21.990 -21.728   6.187  0.00  0.00    +0.292 HD
ENDBRANCH  10  13
ENDBRANCH   6   7
ENDBRANCH   5   6
ENDBRANCH   2   5
ENDBRANCH   1   2
BRANCH   1  15
ATOM     15  C   LIG    1       27.674 -13.849   4.062  0.00  0.00    +0.158 C 
BRANCH  15  16
ATOM     16  C   LIG    1       26.187 -13.643   3.786  0.00  0.00    -0.011 A 
ATOM     17  C   LIG    1       25.212 -14.481   4.354  0.00  0.00    +0.051 A 
ATOM     18  C   LIG    1       23.858 -14.272   4.096  0.00  0.00    +0.121 A 
ATOM     19  C   LIG    1       23.435 -13.245   3.261  0.00  0.00    +0.090 A 
ATOM     20  C   LIG    1       24.395 -12.434   2.668  0.00  0.00    +0.121 A 
ATOM     21  C   LIG    1       25.757 -12.624   2.914  0.00  0.00    +0.051 A 
BRANCH  18  22
ATOM     22  O   LIG    1       22.957 -15.109   4.689  0.00  0.00    -0.507 OA
ATOM     23  H   LIG    1       22.786 -15.854   4.090  0.00  0.00    +0.292 HD
ENDBRANCH  18  22
BRANCH  20  24
ATOM     24  O   LIG    1       23.947 -11.449   1.835  0.00  0.00    -0.507 OA
ATOM     25  H   LIG    1       23.019 -11.253   2.047  0.00  0.00    +0.292 HD
ENDBRANCH  20  24
ENDBRANCH  15  16
BRANCH  15  26
ATOM     26  O   LIG    1       28.443 -13.298   2.985  0.00  0.00    -0.386 OA
ATOM     27  H   LIG    1       28.203 -12.361   2.892  0.00  0.00    +0.210 HD
ENDBRANCH  15  26
ENDBRANCH   1  15
TORSDOF 10
ENDMDL
MODEL 7
REMARK VINA RESULT:      -4.9      2.343      4.192
REMARK  Name = *****
REMARK                            x       y       z     vdW  Elec       q    Type
REMARK                         _______ _______ _______ _____ _____    ______ ____
ROOT
ATOM      1  C   LIG    1       23.289 -17.499   4.321  0.00  0.00    +0.117 C 
ENDROOT
BRANCH   1   2
ATOM      2  N   LIG    1       22.490 -18.451   5.135  0.00  0.00    -0.310 NA
ATOM      3  H   LIG    1       22.851 -18.382   6.095  0.00  0.00    +0.122 HD
BRANCH   2   5
ATOM      4  C   LIG    1       21.203 -20.511   4.521  0.00  0.00    +0.024 C 
ATOM      5  C   LIG    1       22.592 -19.864   4.702  0.00  0.00    +0.055 C 
BRANCH   5   6
ATOM      6  C   LIG    1       23.410 -20.725   5.720  0.00  0.00    +0.053 C 
BRANCH   6   7
ATOM      7  C   LIG    1       24.904 -20.459   5.791  0.00  0.00    -0.046 A 
ATOM      8  C   LIG    1       25.614 -20.061   4.644  0.00  0.00    +0.007 A 
ATOM      9  C   LIG    1       26.997 -19.844   4.706  0.00  0.00    +0.045 A 
ATOM     10  C   LIG    1       27.674 -20.014   5.900  0.00  0.00    +0.117 A 
ATOM     11  C   LIG    1       26.987 -20.361   7.061  0.00  0.00    +0.045 A 
ATOM     12  C   LIG    1       25.603 -20.579   6.998  0.00  0.00    +0.007 A 
BRANCH  10  13
ATOM     13  O   LIG    1       29.030 -19.838   5.900  0.00  0.00    -0.507 OA
ATOM     14  H   LIG    1       29.400 -20.264   5.115  0.00  0.00    +0.292 HD
ENDBRANCH  10  13
ENDBRANCH   6   7
ENDBRANCH   5   6
ENDBRANCH   2   5
ENDBRANCH   1   2
BRANCH   1  15
ATOM     15  C   LIG    1       22.734 -16.040   4.370  0.00  0.00    +0.158 C 
BRANCH  15  16
ATOM     16  C   LIG    1       23.737 -14.971   3.944  0.00  0.00    -0.011 A 
ATOM     17  C   LIG    1       23.316 -13.741   3.410  0.00  0.00    +0.051 A 
ATOM     18  C   LIG    1       24.248 -12.773   3.034  0.00  0.00    +0.121 A 
ATOM     19  C   LIG    1       25.612 -13.002   3.159  0.00  0.00    +0.090 A 
ATOM     20  C   LIG    1       26.037 -14.229   3.654  0.00  0.00    +0.121 A 
ATOM     21  C   LIG    1       25.122 -15.211   4.039  0.00  0.00    +0.051 A 
BRANCH  18  22
ATOM     22  O   LIG    1       23.777 -11.592   2.536  0.00  0.00    -0.507 OA
ATOM     23  H   LIG    1       22.992 -11.332   3.046  0.00  0.00    +0.292 HD
ENDBRANCH  18  22
BRANCH  20  24
ATOM     24  O   LIG    1       27.385 -14.430   3.743  0.00  0.00    -0.507 OA
ATOM     25  H   LIG    1       27.598 -14.752   4.635  0.00  0.00    +0.292 HD
ENDBRANCH  20  24
ENDBRANCH  15  16
BRANCH  15  26
ATOM     26  O   LIG    1       22.266 -15.757   5.695  0.00  0.00    -0.386 OA
ATOM     27  H   LIG    1       22.631 -14.898   5.967  0.00  0.00    +0.210 HD
ENDBRANCH  15  26
ENDBRANCH   1  15
TORSDOF 10
ENDMDL
MODEL 8
REMARK VINA RESULT:      -4.7      1.978      7.071
REMARK  Name = *****
REMARK                            x       y       z     vdW  Elec       q    Type
REMARK                         _______ _______ _______ _____ _____    ______ ____
ROOT
ATOM      1  C   LIG    1       25.252 -17.445   3.706  0.00  0.00    +0.117 C 
ENDROOT
BRANCH   1   2
ATOM      2  N   LIG    1       26.411 -16.991   2.894  0.00  0.00    -0.310 NA
ATOM      3  H   LIG    1       26.703 -17.799   2.332  0.00  0.00    +0.122 HD
BRANCH   2   5
ATOM      4  C   LIG    1       28.077 -17.629   4.654  0.00  0.00    +0.024 C 
ATOM      5  C   LIG    1       27.574 -16.535   3.689  0.00  0.00    +0.055 C 
BRANCH   5   6
ATOM      6  C   LIG    1       27.240 -15.255   4.524  0.00  0.00    +0.053 C 
BRANCH   6   7
ATOM      7  C   LIG    1       26.300 -14.249   3.881  0.00  0.00    -0.046 A 
ATOM      8  C   LIG    1       25.090 -13.901   4.507  0.00  0.00    +0.007 A 
ATOM      9  C   LIG    1       24.212 -12.995   3.898  0.00  0.00    +0.045 A 
ATOM     10  C   LIG    1       24.533 -12.430   2.677  0.00  0.00    +0.117 A 
ATOM     11  C   LIG    1       25.747 -12.721   2.059  0.00  0.00    +0.045 A 
ATOM     12  C   LIG    1       26.625 -13.629   2.669  0.00  0.00    +0.007 A 
BRANCH  10  13
ATOM     13  O   LIG    1       23.624 -11.588   2.100  0.00  0.00    -0.507 OA
ATOM     14  H   LIG    1       22.742 -11.972   2.191  0.00  0.00    +0.292 HD
ENDBRANCH  10  13
ENDBRANCH   6   7
ENDBRANCH   5   6
ENDBRANCH   2   5
ENDBRANCH   1   2
BRANCH   1  15
ATOM     15  C   LIG    1       24.879 -18.941   3.452  0.00  0.00    +0.158 C 
BRANCH  15  16
ATOM     16  C   LIG    1       24.948 -19.825   4.694  0.00  0.00    -0.011 A 
ATOM     17  C   LIG    1       26.179 -20.224   5.245  0.00  0.00    +0.051 A 
ATOM     18  C   LIG    1       26.221 -21.025   6.386  0.00  0.00    +0.121 A 
ATOM     19  C   LIG    1       25.054 -21.465   6.998  0.00  0.00    +0.090 A 
ATOM     20  C   LIG    1       23.834 -21.104   6.440  0.00  0.00    +0.121 A 
ATOM     21  C   LIG    1       23.768 -20.300   5.300  0.00  0.00    +0.051 A 
BRANCH  18  22
ATOM     22  O   LIG    1       27.446 -21.367   6.882  0.00  0.00    -0.507 OA
ATOM     23  H   LIG    1       27.986 -20.563   6.954  0.00  0.00    +0.292 HD
ENDBRANCH  18  22
BRANCH  20  24
ATOM     24  O   LIG    1       22.707 -21.572   7.055  0.00  0.00    -0.507 OA
ATOM     25  H   LIG    1       22.372 -22.338   6.559  0.00  0.00    +0.292 HD
ENDBRANCH  20  24
ENDBRANCH  15  16
BRANCH  15  26
ATOM     26  O   LIG    1       25.737 -19.476   2.435  0.00  0.00    -0.386 OA
ATOM     27  H   LIG    1       26.406 -20.033   2.867  0.00  0.00    +0.210 HD
ENDBRANCH  15  26
ENDBRANCH   1  15
TORSDOF 10
ENDMDL
MODEL 9
REMARK VINA RESULT:      -4.7      2.739      4.303
REMARK  Name = *****
REMARK                            x       y       z     vdW  Elec       q    Type
REMARK                         _______ _______ _______ _____ _____    ______ ____
ROOT
ATOM      1  C   LIG    1       23.332 -14.239   3.649  0.00  0.00    +0.117 C 
ENDROOT
BRANCH   1   2
ATOM      2  N   LIG    1       23.331 -15.694   3.953  0.00  0.00    -0.310 NA
ATOM      3  H   LIG    1       23.467 -16.176   3.056  0.00  0.00    +0.122 HD
BRANCH   2   5
ATOM      4  C   LIG    1       22.116 -16.119   6.102  0.00  0.00    +0.024 C 
ATOM      5  C   LIG    1       22.077 -16.192   4.562  0.00  0.00    +0.055 C 
BRANCH   5   6
ATOM      6  C   LIG    1       21.776 -17.669   4.144  0.00  0.00    +0.053 C 
BRANCH   6   7
ATOM      7  C   LIG    1       22.846 -18.699   4.468  0.00  0.00    -0.046 A 
ATOM      8  C   LIG    1       22.677 -19.592   5.541  0.00  0.00    +0.007 A 
ATOM      9  C   LIG    1       23.677 -20.521   5.854  0.00  0.00    +0.045 A 
ATOM     10  C   LIG    1       24.839 -20.571   5.104  0.00  0.00    +0.117 A 
ATOM     11  C   LIG    1       25.010 -19.731   4.007  0.00  0.00    +0.045 A 
ATOM     12  C   LIG    1       24.009 -18.800   3.695  0.00  0.00    +0.007 A 
BRANCH  10  13
ATOM     13  O   LIG    1       25.806 -21.462   5.477  0.00  0.00    -0.507 OA
ATOM     14  H   LIG    1       26.603 -21.293   4.957  0.00  0.00    +0.292 HD
ENDBRANCH  10  13
ENDBRANCH   6   7
ENDBRANCH   5   6
ENDBRANCH   2   5
ENDBRANCH   1   2
BRANCH   1  15
ATOM     15  C   LIG    1       24.547 -13.801   2.770  0.00  0.00    +0.158 C 
BRANCH  15  16
ATOM     16  C   LIG    1       25.850 -13.620   3.544  0.00  0.00    -0.011 A 
ATOM     17  C   LIG    1       25.880 -13.656   4.949  0.00  0.00    +0.051 A 
ATOM     18  C   LIG    1       27.082 -13.498   5.638  0.00  0.00    +0.121 A 
ATOM     19  C   LIG    1       28.276 -13.283   4.961  0.00  0.00    +0.090 A 
ATOM     20  C   LIG    1       28.249 -13.212   3.573  0.00  0.00    +0.121 A 
ATOM     21  C   LIG    1       27.057 -13.371   2.863  0.00  0.00    +0.051 A 
BRANCH  18  22
ATOM     22  O   LIG    1       27.050 -13.557   7.002  0.00  0.00    -0.507 OA
ATOM     23  H   LIG    1       27.900 -13.239   7.346  0.00  0.00    +0.292 HD
ENDBRANCH  18  22
BRANCH  20  24
ATOM     24  O   LIG    1       29.436 -12.979   2.940  0.00  0.00    -0.507 OA
ATOM     25  H   LIG    1       30.144 -12.925   3.605  0.00  0.00    +0.292 HD
ENDBRANCH  20  24
ENDBRANCH  15  16
BRANCH  15  26
ATOM     26  O   LIG    1       24.221 -12.583   2.088  0.00  0.00    -0.386 OA
ATOM     27  H   LIG    1       23.402 -12.230   2.476  0.00  0.00    +0.210 HD
ENDBRANCH  15  26
ENDBRANCH   1  15
TORSDOF 10
ENDMDL
