MODEL 1
REMARK VINA RESULT:      -8.3      0.000      0.000
REMARK  Name = *****
REMARK                            x       y       z     vdW  Elec       q    Type
REMARK                         _______ _______ _______ _____ _____    ______ ____
ROOT
ATOM      1  C   LIG    1       24.176 -20.656   5.332  0.00  0.00    +0.081 C 
ENDROOT
BRANCH   1   2
ATOM      2  N   LIG    1       25.498 -21.307   5.208  0.00  0.00    -0.313 NA
ATOM      3  H   LIG    1       25.361 -22.295   5.018  0.00  0.00    +0.122 HD
BRANCH   2   4
ATOM      4  C   LIG    1       26.498 -21.156   6.299  0.00  0.00    +0.117 C 
BRANCH   4   5
ATOM      5  C   LIG    1       27.468 -19.953   6.230  0.00  0.00    +0.158 C 
BRANCH   5  10
ATOM      6  C   LIG    1       30.413 -20.841   8.377  0.00  0.00    +0.019 A 
ATOM      7  C   LIG    1       31.128 -19.671   8.475  0.00  0.00    +0.122 A 
ATOM      8  C   LIG    1       30.582 -18.509   7.929  0.00  0.00    +0.046 A 
ATOM      9  C   LIG    1       29.393 -18.616   7.235  0.00  0.00    +0.010 A 
ATOM     10  C   LIG    1       28.694 -19.786   7.043  0.00  0.00    -0.017 A 
ATOM     11  C   LIG    1       29.192 -20.900   7.710  0.00  0.00    +0.015 A 
BRANCH   7  12
ATOM     12  O   LIG    1       32.316 -19.585   9.129  0.00  0.00    -0.506 OA
ATOM     13  H   LIG    1       32.642 -18.674   9.075  0.00  0.00    +0.292 HD
ENDBRANCH   7  12
BRANCH   6  14
ATOM     14  C   LIG    1       30.875 -22.083   9.169  0.00  0.00    +0.194 C 
BRANCH  14  15
ATOM     15  O   LIG    1       32.162 -22.529   8.777  0.00  0.00    -0.390 OA
ATOM     16  H   LIG    1       32.831 -22.274   9.423  0.00  0.00    +0.210 HD
ENDBRANCH  14  15
ENDBRANCH   6  14
ENDBRANCH   5  10
BRANCH   5  17
ATOM     17  O   LIG    1       28.092 -20.220   5.016  0.00  0.00    -0.386 OA
ATOM     18  H   LIG    1       28.702 -19.565   4.740  0.00  0.00    +0.210 HD
ENDBRANCH   5  17
ENDBRANCH   4   5
ENDBRANCH   2   4
ENDBRANCH   1   2
BRANCH   1  19
ATOM     19  C   LIG    1       23.388 -20.822   6.647  0.00  0.00    +0.015 C 
BRANCH  19  20
ATOM     20  C   LIG    1       23.622 -22.153   7.366  0.00  0.00    +0.001 C 
BRANCH  20  21
ATOM     21  C   LIG    1       22.924 -23.387   6.755  0.00  0.00    +0.002 C 
BRANCH  21  22
ATOM     22  C   LIG    1       23.718 -24.686   6.461  0.00  0.00    +0.028 C 
BRANCH  22  23
ATOM     23  C   LIG    1       25.245 -24.540   6.531  0.00  0.00    +0.160 C 
BRANCH  23  24
ATOM     24  O   LIG    1       26.009 -25.365   5.644  0.00  0.00    -0.378 OA
BRANCH  24  25
ATOM     25  C   LIG    1       26.093 -26.714   6.167  0.00  0.00    +0.188 C 
BRANCH  25  26
ATOM     26  C   LIG    1       25.485 -27.696   5.177  0.00  0.00    +0.188 C 
BRANCH  26  27
ATOM     27  O   LIG    1       25.348 -29.011   5.679  0.00  0.00    -0.373 OA
BRANCH  27  28
ATOM     28  C   LIG    1       24.647 -28.992   6.900  0.00  0.00    +0.198 C 
BRANCH  28  29
ATOM     29  C   LIG    1       25.086 -30.093   7.811  0.00  0.00    +0.015 A 
ATOM     30  C   LIG    1       25.952 -29.898   8.905  0.00  0.00    +0.048 A 
ATOM     31 CL   LIG    1       26.617 -28.360   9.349  0.00  0.00    -0.083 Cl
ATOM     32  C   LIG    1       26.366 -30.983   9.681  0.00  0.00    +0.020 A 
ATOM     33  C   LIG    1       25.954 -32.273   9.364  0.00  0.00    +0.003 A 
ATOM     34  C   LIG    1       25.123 -32.486   8.272  0.00  0.00    +0.020 A 
ATOM     35  C   LIG    1       24.693 -31.409   7.501  0.00  0.00    +0.048 A 
ATOM     36 CL   LIG    1       23.697 -31.784   6.131  0.00  0.00    -0.083 Cl
ENDBRANCH  28  29
ENDBRANCH  27  28
ENDBRANCH  26  27
ENDBRANCH  25  26
ENDBRANCH  24  25
ENDBRANCH  23  24
ENDBRANCH  22  23
ENDBRANCH  21  22
ENDBRANCH  20  21
ENDBRANCH  19  20
ENDBRANCH   1  19
TORSDOF 19
ENDMDL
MODEL 2
REMARK VINA RESULT:      -8.2      1.483      2.235
REMARK  Name = *****
REMARK                            x       y       z     vdW  Elec       q    Type
REMARK                         _______ _______ _______ _____ _____    ______ ____
ROOT
ATOM      1  C   LIG    1       22.920 -20.920   5.959  0.00  0.00    +0.081 C 
ENDROOT
BRANCH   1   2
ATOM      2  N   LIG    1       23.374 -21.319   4.610  0.00  0.00    -0.313 NA
ATOM      3  H   LIG    1       23.241 -22.320   4.501  0.00  0.00    +0.122 HD
BRANCH   2   4
ATOM      4  C   LIG    1       24.747 -20.961   4.159  0.00  0.00    +0.117 C 
BRANCH   4   5
ATOM      5  C   LIG    1       25.571 -19.997   5.045  0.00  0.00    +0.158 C 
BRANCH   5  10
ATOM      6  C   LIG    1       28.902 -19.905   6.767  0.00  0.00    +0.019 A 
ATOM      7  C   LIG    1       28.819 -20.890   7.721  0.00  0.00    +0.122 A 
ATOM      8  C   LIG    1       27.688 -21.707   7.739  0.00  0.00    +0.046 A 
ATOM      9  C   LIG    1       26.668 -21.420   6.854  0.00  0.00    +0.010 A 
ATOM     10  C   LIG    1       26.680 -20.389   5.944  0.00  0.00    -0.017 A 
ATOM     11  C   LIG    1       27.872 -19.676   5.858  0.00  0.00    +0.015 A 
BRANCH   7  12
ATOM     12  O   LIG    1       29.814 -21.139   8.613  0.00  0.00    -0.506 OA
ATOM     13  H   LIG    1       29.423 -21.347   9.475  0.00  0.00    +0.292 HD
ENDBRANCH   7  12
BRANCH   6  14
ATOM     14  C   LIG    1       30.231 -19.145   6.572  0.00  0.00    +0.194 C 
BRANCH  14  15
ATOM     15  O   LIG    1       31.365 -19.965   6.800  0.00  0.00    -0.390 OA
ATOM     16  H   LIG    1       31.883 -20.074   5.994  0.00  0.00    +0.210 HD
ENDBRANCH  14  15
ENDBRANCH   6  14
ENDBRANCH   5  10
BRANCH   5  17
ATOM     17  O   LIG    1       26.342 -19.375   4.068  0.00  0.00    -0.386 OA
ATOM     18  H   LIG    1       27.088 -18.915   4.396  0.00  0.00    +0.210 HD
ENDBRANCH   5  17
ENDBRANCH   4   5
ENDBRANCH   2   4
ENDBRANCH   1   2
BRANCH   1  19
ATOM     19  C   LIG    1       23.129 -21.898   7.132  0.00  0.00    +0.015 C 
BRANCH  19  20
ATOM     20  C   LIG    1       22.881 -23.369   6.786  0.00  0.00    +0.001 C 
BRANCH  20  21
ATOM     21  C   LIG    1       24.119 -24.290   6.808  0.00  0.00    +0.002 C 
BRANCH  21  22
ATOM     22  C   LIG    1       25.083 -24.358   5.595  0.00  0.00    +0.028 C 
BRANCH  22  23
ATOM     23  C   LIG    1       25.020 -25.667   4.793  0.00  0.00    +0.160 C 
BRANCH  23  24
ATOM     24  O   LIG    1       26.159 -26.529   4.884  0.00  0.00    -0.378 OA
BRANCH  24  25
ATOM     25  C   LIG    1       25.733 -27.895   5.111  0.00  0.00    +0.188 C 
BRANCH  25  26
ATOM     26  C   LIG    1       24.385 -27.910   5.818  0.00  0.00    +0.188 C 
BRANCH  26  27
ATOM     27  O   LIG    1       23.896 -29.207   6.097  0.00  0.00    -0.373 OA
BRANCH  27  28
ATOM     28  C   LIG    1       24.933 -30.021   6.592  0.00  0.00    +0.198 C 
BRANCH  28  29
ATOM     29  C   LIG    1       24.775 -30.299   8.052  0.00  0.00    +0.015 A 
ATOM     30  C   LIG    1       25.379 -29.523   9.061  0.00  0.00    +0.048 A 
ATOM     31 CL   LIG    1       26.375 -28.139   8.749  0.00  0.00    -0.083 Cl
ATOM     32  C   LIG    1       25.235 -29.874  10.405  0.00  0.00    +0.020 A 
ATOM     33  C   LIG    1       24.520 -31.012  10.762  0.00  0.00    +0.003 A 
ATOM     34  C   LIG    1       23.943 -31.804   9.778  0.00  0.00    +0.020 A 
ATOM     35  C   LIG    1       24.069 -31.454   8.436  0.00  0.00    +0.048 A 
ATOM     36 CL   LIG    1       23.353 -32.534   7.282  0.00  0.00    -0.083 Cl
ENDBRANCH  28  29
ENDBRANCH  27  28
ENDBRANCH  26  27
ENDBRANCH  25  26
ENDBRANCH  24  25
ENDBRANCH  23  24
ENDBRANCH  22  23
ENDBRANCH  21  22
ENDBRANCH  20  21
ENDBRANCH  19  20
ENDBRANCH   1  19
TORSDOF 19
ENDMDL
MODEL 3
REMARK VINA RESULT:      -8.2      2.114      3.362
REMARK  Name = *****
REMARK                            x       y       z     vdW  Elec       q    Type
REMARK                         _______ _______ _______ _____ _____    ______ ____
ROOT
ATOM      1  C   LIG    1       22.862 -21.308   6.298  0.00  0.00    +0.081 C 
ENDROOT
BRANCH   1   2
ATOM      2  N   LIG    1       23.174 -21.508   4.867  0.00  0.00    -0.313 NA
ATOM      3  H   LIG    1       22.798 -22.404   4.572  0.00  0.00    +0.122 HD
BRANCH   2   4
ATOM      4  C   LIG    1       24.582 -21.395   4.397  0.00  0.00    +0.117 C 
BRANCH   4   5
ATOM      5  C   LIG    1       25.471 -20.301   5.034  0.00  0.00    +0.158 C 
BRANCH   5  10
ATOM      6  C   LIG    1       28.858 -19.919   6.600  0.00  0.00    +0.019 A 
ATOM      7  C   LIG    1       28.821 -20.745   7.697  0.00  0.00    +0.122 A 
ATOM      8  C   LIG    1       27.702 -21.557   7.882  0.00  0.00    +0.046 A 
ATOM      9  C   LIG    1       26.647 -21.419   7.001  0.00  0.00    +0.010 A 
ATOM     10  C   LIG    1       26.615 -20.540   5.942  0.00  0.00    -0.017 A 
ATOM     11  C   LIG    1       27.794 -19.841   5.704  0.00  0.00    +0.015 A 
BRANCH   7  12
ATOM     12  O   LIG    1       29.849 -20.846   8.580  0.00  0.00    -0.506 OA
ATOM     13  H   LIG    1       29.542 -21.312   9.373  0.00  0.00    +0.292 HD
ENDBRANCH   7  12
BRANCH   6  14
ATOM     14  C   LIG    1       30.170 -19.188   6.242  0.00  0.00    +0.194 C 
BRANCH  14  15
ATOM     15  O   LIG    1       29.952 -18.054   5.420  0.00  0.00    -0.390 OA
ATOM     16  H   LIG    1       30.635 -17.386   5.560  0.00  0.00    +0.210 HD
ENDBRANCH  14  15
ENDBRANCH   6  14
ENDBRANCH   5  10
BRANCH   5  17
ATOM     17  O   LIG    1       26.205 -19.911   3.918  0.00  0.00    -0.386 OA
ATOM     18  H   LIG    1       25.698 -19.510   3.240  0.00  0.00    +0.210 HD
ENDBRANCH   5  17
ENDBRANCH   4   5
ENDBRANCH   2   4
ENDBRANCH   1   2
BRANCH   1  19
ATOM     19  C   LIG    1       23.203 -22.432   7.297  0.00  0.00    +0.015 C 
BRANCH  19  20
ATOM     20  C   LIG    1       23.305 -23.827   6.675  0.00  0.00    +0.001 C 
BRANCH  20  21
ATOM     21  C   LIG    1       24.722 -24.434   6.595  0.00  0.00    +0.002 C 
BRANCH  21  22
ATOM     22  C   LIG    1       25.178 -25.232   5.346  0.00  0.00    +0.028 C 
BRANCH  22  23
ATOM     23  C   LIG    1       25.960 -26.518   5.651  0.00  0.00    +0.160 C 
BRANCH  23  24
ATOM     24  O   LIG    1       25.366 -27.422   6.588  0.00  0.00    -0.378 OA
BRANCH  24  25
ATOM     25  C   LIG    1       24.416 -28.284   5.915  0.00  0.00    +0.188 C 
BRANCH  25  26
ATOM     26  C   LIG    1       24.436 -29.671   6.540  0.00  0.00    +0.188 C 
BRANCH  26  27
ATOM     27  O   LIG    1       23.722 -29.765   7.757  0.00  0.00    -0.373 OA
BRANCH  27  28
ATOM     28  C   LIG    1       24.439 -30.553   8.679  0.00  0.00    +0.198 C 
BRANCH  28  29
ATOM     29  C   LIG    1       24.362 -29.996  10.065  0.00  0.00    +0.015 A 
ATOM     30  C   LIG    1       23.200 -30.049  10.860  0.00  0.00    +0.048 A 
ATOM     31 CL   LIG    1       21.710 -30.771  10.347  0.00  0.00    -0.083 Cl
ATOM     32  C   LIG    1       23.182 -29.457  12.125  0.00  0.00    +0.020 A 
ATOM     33  C   LIG    1       24.301 -28.783  12.603  0.00  0.00    +0.003 A 
ATOM     34  C   LIG    1       25.444 -28.697  11.820  0.00  0.00    +0.020 A 
ATOM     35  C   LIG    1       25.477 -29.296  10.563  0.00  0.00    +0.048 A 
ATOM     36 CL   LIG    1       26.934 -29.091   9.644  0.00  0.00    -0.083 Cl
ENDBRANCH  28  29
ENDBRANCH  27  28
ENDBRANCH  26  27
ENDBRANCH  25  26
ENDBRANCH  24  25
ENDBRANCH  23  24
ENDBRANCH  22  23
ENDBRANCH  21  22
ENDBRANCH  20  21
ENDBRANCH  19  20
ENDBRANCH   1  19
TORSDOF 19
ENDMDL
MODEL 4
REMARK VINA RESULT:      -8.1      2.044      2.966
REMARK  Name = *****
REMARK                            x       y       z     vdW  Elec       q    Type
REMARK                         _______ _______ _______ _____ _____    ______ ____
ROOT
ATOM      1  C   LIG    1       22.872 -21.193   6.217  0.00  0.00    +0.081 C 
ENDROOT
BRANCH   1   2
ATOM      2  N   LIG    1       23.218 -21.435   4.800  0.00  0.00    -0.313 NA
ATOM      3  H   LIG    1       22.876 -22.353   4.531  0.00  0.00    +0.122 HD
BRANCH   2   4
ATOM      4  C   LIG    1       24.631 -21.294   4.353  0.00  0.00    +0.117 C 
BRANCH   4   5
ATOM      5  C   LIG    1       25.502 -20.216   5.039  0.00  0.00    +0.158 C 
BRANCH   5  10
ATOM      6  C   LIG    1       28.898 -19.843   6.589  0.00  0.00    +0.019 A 
ATOM      7  C   LIG    1       28.890 -20.725   7.642  0.00  0.00    +0.122 A 
ATOM      8  C   LIG    1       27.790 -21.570   7.796  0.00  0.00    +0.046 A 
ATOM      9  C   LIG    1       26.724 -21.409   6.933  0.00  0.00    +0.010 A 
ATOM     10  C   LIG    1       26.662 -20.477   5.922  0.00  0.00    -0.017 A 
ATOM     11  C   LIG    1       27.823 -19.742   5.709  0.00  0.00    +0.015 A 
BRANCH   7  12
ATOM     12  O   LIG    1       29.930 -20.850   8.509  0.00  0.00    -0.506 OA
ATOM     13  H   LIG    1       29.583 -21.021   9.398  0.00  0.00    +0.292 HD
ENDBRANCH   7  12
BRANCH   6  14
ATOM     14  C   LIG    1       30.190 -19.067   6.257  0.00  0.00    +0.194 C 
BRANCH  14  15
ATOM     15  O   LIG    1       30.659 -18.299   7.352  0.00  0.00    -0.390 OA
ATOM     16  H   LIG    1       31.090 -17.490   7.051  0.00  0.00    +0.210 HD
ENDBRANCH  14  15
ENDBRANCH   6  14
ENDBRANCH   5  10
BRANCH   5  17
ATOM     17  O   LIG    1       26.216 -19.750   3.939  0.00  0.00    -0.386 OA
ATOM     18  H   LIG    1       26.441 -18.843   3.978  0.00  0.00    +0.210 HD
ENDBRANCH   5  17
ENDBRANCH   4   5
ENDBRANCH   2   4
ENDBRANCH   1   2
BRANCH   1  19
ATOM     19  C   LIG    1       23.216 -22.273   7.261  0.00  0.00    +0.015 C 
BRANCH  19  20
ATOM     20  C   LIG    1       23.069 -23.713   6.759  0.00  0.00    +0.001 C 
BRANCH  20  21
ATOM     21  C   LIG    1       24.383 -24.470   6.474  0.00  0.00    +0.002 C 
BRANCH  21  22
ATOM     22  C   LIG    1       24.383 -26.002   6.233  0.00  0.00    +0.028 C 
BRANCH  22  23
ATOM     23  C   LIG    1       25.621 -26.541   5.501  0.00  0.00    +0.160 C 
BRANCH  23  24
ATOM     24  O   LIG    1       25.676 -27.956   5.291  0.00  0.00    -0.378 OA
BRANCH  24  25
ATOM     25  C   LIG    1       24.367 -28.541   5.499  0.00  0.00    +0.188 C 
BRANCH  25  26
ATOM     26  C   LIG    1       24.489 -29.806   6.337  0.00  0.00    +0.188 C 
BRANCH  26  27
ATOM     27  O   LIG    1       23.718 -29.789   7.522  0.00  0.00    -0.373 OA
BRANCH  27  28
ATOM     28  C   LIG    1       24.292 -30.641   8.486  0.00  0.00    +0.198 C 
BRANCH  28  29
ATOM     29  C   LIG    1       24.274 -30.030   9.850  0.00  0.00    +0.015 A 
ATOM     30  C   LIG    1       25.360 -29.320  10.398  0.00  0.00    +0.048 A 
ATOM     31 CL   LIG    1       26.856 -29.049   9.565  0.00  0.00    -0.083 Cl
ATOM     32  C   LIG    1       25.295 -28.824  11.703  0.00  0.00    +0.020 A 
ATOM     33  C   LIG    1       24.170 -29.053  12.487  0.00  0.00    +0.003 A 
ATOM     34  C   LIG    1       23.102 -29.777  11.972  0.00  0.00    +0.020 A 
ATOM     35  C   LIG    1       23.151 -30.262  10.668  0.00  0.00    +0.048 A 
ATOM     36 CL   LIG    1       21.788 -31.194  10.135  0.00  0.00    -0.083 Cl
ENDBRANCH  28  29
ENDBRANCH  27  28
ENDBRANCH  26  27
ENDBRANCH  25  26
ENDBRANCH  24  25
ENDBRANCH  23  24
ENDBRANCH  22  23
ENDBRANCH  21  22
ENDBRANCH  20  21
ENDBRANCH  19  20
ENDBRANCH   1  19
TORSDOF 19
ENDMDL
MODEL 5
REMARK VINA RESULT:      -8.0      1.770      2.493
REMARK  Name = *****
REMARK                            x       y       z     vdW  Elec       q    Type
REMARK                         _______ _______ _______ _____ _____    ______ ____
ROOT
ATOM      1  C   LIG    1       23.965 -20.980   6.087  0.00  0.00    +0.081 C 
ENDROOT
BRANCH   1   2
ATOM      2  N   LIG    1       25.288 -21.271   5.496  0.00  0.00    -0.313 NA
ATOM      3  H   LIG    1       25.237 -22.155   4.998  0.00  0.00    +0.122 HD
BRANCH   2   4
ATOM      4  C   LIG    1       26.498 -21.272   6.363  0.00  0.00    +0.117 C 
BRANCH   4   5
ATOM      5  C   LIG    1       27.440 -20.048   6.291  0.00  0.00    +0.158 C 
BRANCH   5  10
ATOM      6  C   LIG    1       30.432 -20.876   8.397  0.00  0.00    +0.019 A 
ATOM      7  C   LIG    1       31.107 -19.685   8.512  0.00  0.00    +0.122 A 
ATOM      8  C   LIG    1       30.518 -18.532   7.992  0.00  0.00    +0.046 A 
ATOM      9  C   LIG    1       29.327 -18.666   7.305  0.00  0.00    +0.010 A 
ATOM     10  C   LIG    1       28.666 -19.855   7.097  0.00  0.00    -0.017 A 
ATOM     11  C   LIG    1       29.207 -20.964   7.739  0.00  0.00    +0.015 A 
BRANCH   7  12
ATOM     12  O   LIG    1       32.298 -19.571   9.157  0.00  0.00    -0.506 OA
ATOM     13  H   LIG    1       32.223 -19.976  10.035  0.00  0.00    +0.292 HD
ENDBRANCH   7  12
BRANCH   6  14
ATOM     14  C   LIG    1       30.941 -22.116   9.161  0.00  0.00    +0.194 C 
BRANCH  14  15
ATOM     15  O   LIG    1       32.228 -22.529   8.732  0.00  0.00    -0.390 OA
ATOM     16  H   LIG    1       32.757 -22.848   9.473  0.00  0.00    +0.210 HD
ENDBRANCH  14  15
ENDBRANCH   6  14
ENDBRANCH   5  10
BRANCH   5  17
ATOM     17  O   LIG    1       28.063 -20.298   5.072  0.00  0.00    -0.386 OA
ATOM     18  H   LIG    1       28.877 -20.755   5.139  0.00  0.00    +0.210 HD
ENDBRANCH   5  17
ENDBRANCH   4   5
ENDBRANCH   2   4
ENDBRANCH   1   2
BRANCH   1  19
ATOM     19  C   LIG    1       23.381 -21.962   7.122  0.00  0.00    +0.015 C 
BRANCH  19  20
ATOM     20  C   LIG    1       23.157 -23.382   6.596  0.00  0.00    +0.001 C 
BRANCH  20  21
ATOM     21  C   LIG    1       24.321 -24.375   6.805  0.00  0.00    +0.002 C 
BRANCH  21  22
ATOM     22  C   LIG    1       24.319 -25.762   6.111  0.00  0.00    +0.028 C 
BRANCH  22  23
ATOM     23  C   LIG    1       25.602 -26.584   6.306  0.00  0.00    +0.160 C 
BRANCH  23  24
ATOM     24  O   LIG    1       25.684 -27.821   5.591  0.00  0.00    -0.378 OA
BRANCH  24  25
ATOM     25  C   LIG    1       24.366 -28.407   5.455  0.00  0.00    +0.188 C 
BRANCH  25  26
ATOM     26  C   LIG    1       24.261 -29.660   6.312  0.00  0.00    +0.188 C 
BRANCH  26  27
ATOM     27  O   LIG    1       23.811 -29.420   7.631  0.00  0.00    -0.373 OA
BRANCH  27  28
ATOM     28  C   LIG    1       24.222 -30.465   8.481  0.00  0.00    +0.198 C 
BRANCH  28  29
ATOM     29  C   LIG    1       24.226 -30.047   9.916  0.00  0.00    +0.015 A 
ATOM     30  C   LIG    1       23.103 -30.156  10.761  0.00  0.00    +0.048 A 
ATOM     31 CL   LIG    1       21.573 -30.796  10.256  0.00  0.00    -0.083 Cl
ATOM     32  C   LIG    1       23.161 -29.692  12.077  0.00  0.00    +0.020 A 
ATOM     33  C   LIG    1       24.316 -29.088  12.561  0.00  0.00    +0.003 A 
ATOM     34  C   LIG    1       25.422 -28.947  11.732  0.00  0.00    +0.020 A 
ATOM     35  C   LIG    1       25.379 -29.419  10.423  0.00  0.00    +0.048 A 
ATOM     36 CL   LIG    1       26.794 -29.152   9.455  0.00  0.00    -0.083 Cl
ENDBRANCH  28  29
ENDBRANCH  27  28
ENDBRANCH  26  27
ENDBRANCH  25  26
ENDBRANCH  24  25
ENDBRANCH  23  24
ENDBRANCH  22  23
ENDBRANCH  21  22
ENDBRANCH  20  21
ENDBRANCH  19  20
ENDBRANCH   1  19
TORSDOF 19
ENDMDL
MODEL 6
REMARK VINA RESULT:      -8.0      2.073      3.374
REMARK  Name = *****
REMARK                            x       y       z     vdW  Elec       q    Type
REMARK                         _______ _______ _______ _____ _____    ______ ____
ROOT
ATOM      1  C   LIG    1       22.760 -21.433   6.152  0.00  0.00    +0.081 C 
ENDROOT
BRANCH   1   2
ATOM      2  N   LIG    1       23.218 -21.474   4.747  0.00  0.00    -0.313 NA
ATOM      3  H   LIG    1       22.793 -22.273   4.286  0.00  0.00    +0.122 HD
BRANCH   2   4
ATOM      4  C   LIG    1       24.676 -21.460   4.447  0.00  0.00    +0.117 C 
BRANCH   4   5
ATOM      5  C   LIG    1       25.537 -20.351   5.098  0.00  0.00    +0.158 C 
BRANCH   5  10
ATOM      6  C   LIG    1       28.875 -19.886   6.747  0.00  0.00    +0.019 A 
ATOM      7  C   LIG    1       28.845 -20.741   7.822  0.00  0.00    +0.122 A 
ATOM      8  C   LIG    1       27.753 -21.599   7.961  0.00  0.00    +0.046 A 
ATOM      9  C   LIG    1       26.713 -21.476   7.061  0.00  0.00    +0.010 A 
ATOM     10  C   LIG    1       26.671 -20.572   6.024  0.00  0.00    -0.017 A 
ATOM     11  C   LIG    1       27.828 -19.825   5.830  0.00  0.00    +0.015 A 
BRANCH   7  12
ATOM     12  O   LIG    1       29.857 -20.828   8.724  0.00  0.00    -0.506 OA
ATOM     13  H   LIG    1       30.105 -19.936   9.010  0.00  0.00    +0.292 HD
ENDBRANCH   7  12
BRANCH   6  14
ATOM     14  C   LIG    1       30.165 -19.099   6.436  0.00  0.00    +0.194 C 
BRANCH  14  15
ATOM     15  O   LIG    1       31.338 -19.836   6.742  0.00  0.00    -0.390 OA
ATOM     16  H   LIG    1       31.795 -19.461   7.504  0.00  0.00    +0.210 HD
ENDBRANCH  14  15
ENDBRANCH   6  14
ENDBRANCH   5  10
BRANCH   5  17
ATOM     17  O   LIG    1       26.283 -19.950   3.993  0.00  0.00    -0.386 OA
ATOM     18  H   LIG    1       25.789 -19.512   3.329  0.00  0.00    +0.210 HD
ENDBRANCH   5  17
ENDBRANCH   4   5
ENDBRANCH   2   4
ENDBRANCH   1   2
BRANCH   1  19
ATOM     19  C   LIG    1       23.312 -22.477   7.143  0.00  0.00    +0.015 C 
BRANCH  19  20
ATOM     20  C   LIG    1       23.234 -23.925   6.652  0.00  0.00    +0.001 C 
BRANCH  20  21
ATOM     21  C   LIG    1       24.579 -24.670   6.518  0.00  0.00    +0.002 C 
BRANCH  21  22
ATOM     22  C   LIG    1       25.095 -25.140   5.133  0.00  0.00    +0.028 C 
BRANCH  22  23
ATOM     23  C   LIG    1       25.505 -26.619   5.063  0.00  0.00    +0.160 C 
BRANCH  23  24
ATOM     24  O   LIG    1       25.042 -27.462   6.124  0.00  0.00    -0.378 OA
BRANCH  24  25
ATOM     25  C   LIG    1       25.003 -28.841   5.682  0.00  0.00    +0.188 C 
BRANCH  25  26
ATOM     26  C   LIG    1       24.263 -29.695   6.702  0.00  0.00    +0.188 C 
BRANCH  26  27
ATOM     27  O   LIG    1       23.691 -30.870   6.164  0.00  0.00    -0.373 OA
BRANCH  27  28
ATOM     28  C   LIG    1       24.189 -32.003   6.836  0.00  0.00    +0.198 C 
BRANCH  28  29
ATOM     29  C   LIG    1       25.421 -32.542   6.182  0.00  0.00    +0.015 A 
ATOM     30  C   LIG    1       25.408 -33.250   4.964  0.00  0.00    +0.048 A 
ATOM     31 CL   LIG    1       23.971 -33.584   4.056  0.00  0.00    -0.083 Cl
ATOM     32  C   LIG    1       26.592 -33.775   4.439  0.00  0.00    +0.020 A 
ATOM     33  C   LIG    1       27.792 -33.632   5.128  0.00  0.00    +0.003 A 
ATOM     34  C   LIG    1       27.816 -32.961   6.344  0.00  0.00    +0.020 A 
ATOM     35  C   LIG    1       26.644 -32.422   6.869  0.00  0.00    +0.048 A 
ATOM     36 CL   LIG    1       26.772 -31.646   8.415  0.00  0.00    -0.083 Cl
ENDBRANCH  28  29
ENDBRANCH  27  28
ENDBRANCH  26  27
ENDBRANCH  25  26
ENDBRANCH  24  25
ENDBRANCH  23  24
ENDBRANCH  22  23
ENDBRANCH  21  22
ENDBRANCH  20  21
ENDBRANCH  19  20
ENDBRANCH   1  19
TORSDOF 19
ENDMDL
MODEL 7
REMARK VINA RESULT:      -8.0      3.331      4.792
REMARK  Name = *****
REMARK                            x       y       z     vdW  Elec       q    Type
REMARK                         _______ _______ _______ _____ _____    ______ ____
ROOT
ATOM      1  C   LIG    1       23.404 -22.958   6.819  0.00  0.00    +0.081 C 
ENDROOT
BRANCH   1   2
ATOM      2  N   LIG    1       23.270 -22.018   5.686  0.00  0.00    -0.313 NA
ATOM      3  H   LIG    1       22.505 -22.326   5.093  0.00  0.00    +0.122 HD
BRANCH   2   4
ATOM      4  C   LIG    1       24.453 -21.717   4.834  0.00  0.00    +0.117 C 
BRANCH   4   5
ATOM      5  C   LIG    1       25.360 -20.535   5.249  0.00  0.00    +0.158 C 
BRANCH   5  10
ATOM      6  C   LIG    1       28.790 -19.792   6.574  0.00  0.00    +0.019 A 
ATOM      7  C   LIG    1       28.894 -20.567   7.703  0.00  0.00    +0.122 A 
ATOM      8  C   LIG    1       27.865 -21.464   7.993  0.00  0.00    +0.046 A 
ATOM      9  C   LIG    1       26.750 -21.457   7.177  0.00  0.00    +0.010 A 
ATOM     10  C   LIG    1       26.575 -20.633   6.088  0.00  0.00    -0.017 A 
ATOM     11  C   LIG    1       27.671 -19.847   5.747  0.00  0.00    +0.015 A 
BRANCH   7  12
ATOM     12  O   LIG    1       29.979 -20.539   8.520  0.00  0.00    -0.506 OA
ATOM     13  H   LIG    1       30.716 -20.113   8.056  0.00  0.00    +0.292 HD
ENDBRANCH   7  12
BRANCH   6  14
ATOM     14  C   LIG    1       30.007 -18.968   6.102  0.00  0.00    +0.194 C 
BRANCH  14  15
ATOM     15  O   LIG    1       29.641 -17.902   5.242  0.00  0.00    -0.390 OA
ATOM     16  H   LIG    1       28.790 -18.071   4.819  0.00  0.00    +0.210 HD
ENDBRANCH  14  15
ENDBRANCH   6  14
ENDBRANCH   5  10
BRANCH   5  17
ATOM     17  O   LIG    1       25.998 -20.288   4.037  0.00  0.00    -0.386 OA
ATOM     18  H   LIG    1       25.964 -20.998   3.428  0.00  0.00    +0.210 HD
ENDBRANCH   5  17
ENDBRANCH   4   5
ENDBRANCH   2   4
ENDBRANCH   1   2
BRANCH   1  19
ATOM     19  C   LIG    1       23.768 -24.427   6.525  0.00  0.00    +0.015 C 
BRANCH  19  20
ATOM     20  C   LIG    1       25.234 -24.784   6.781  0.00  0.00    +0.001 C 
BRANCH  20  21
ATOM     21  C   LIG    1       25.613 -26.270   6.603  0.00  0.00    +0.002 C 
BRANCH  21  22
ATOM     22  C   LIG    1       24.538 -27.328   6.241  0.00  0.00    +0.028 C 
BRANCH  22  23
ATOM     23  C   LIG    1       24.923 -28.778   6.568  0.00  0.00    +0.160 C 
BRANCH  23  24
ATOM     24  O   LIG    1       25.026 -29.115   7.955  0.00  0.00    -0.378 OA
BRANCH  24  25
ATOM     25  C   LIG    1       24.327 -30.357   8.219  0.00  0.00    +0.188 C 
BRANCH  25  26
ATOM     26  C   LIG    1       23.640 -30.291   9.576  0.00  0.00    +0.188 C 
BRANCH  26  27
ATOM     27  O   LIG    1       24.426 -29.701  10.592  0.00  0.00    -0.373 OA
BRANCH  27  28
ATOM     28  C   LIG    1       23.896 -30.014  11.858  0.00  0.00    +0.198 C 
BRANCH  28  29
ATOM     29  C   LIG    1       23.107 -28.879  12.428  0.00  0.00    +0.015 A 
ATOM     30  C   LIG    1       21.701 -28.814  12.391  0.00  0.00    +0.048 A 
ATOM     31 CL   LIG    1       20.695 -30.040  11.692  0.00  0.00    -0.083 Cl
ATOM     32  C   LIG    1       21.031 -27.695  12.893  0.00  0.00    +0.020 A 
ATOM     33  C   LIG    1       21.746 -26.618  13.406  0.00  0.00    +0.003 A 
ATOM     34  C   LIG    1       23.135 -26.654  13.423  0.00  0.00    +0.020 A 
ATOM     35  C   LIG    1       23.811 -27.771  12.938  0.00  0.00    +0.048 A 
ATOM     36 CL   LIG    1       25.544 -27.698  12.959  0.00  0.00    -0.083 Cl
ENDBRANCH  28  29
ENDBRANCH  27  28
ENDBRANCH  26  27
ENDBRANCH  25  26
ENDBRANCH  24  25
ENDBRANCH  23  24
ENDBRANCH  22  23
ENDBRANCH  21  22
ENDBRANCH  20  21
ENDBRANCH  19  20
ENDBRANCH   1  19
TORSDOF 19
ENDMDL
MODEL 8
REMARK VINA RESULT:      -8.0      3.295      4.207
REMARK  Name = *****
REMARK                            x       y       z     vdW  Elec       q    Type
REMARK                         _______ _______ _______ _____ _____    ______ ____
ROOT
ATOM      1  C   LIG    1       24.831 -23.251   5.539  0.00  0.00    +0.081 C 
ENDROOT
BRANCH   1   2
ATOM      2  N   LIG    1       25.541 -21.955   5.539  0.00  0.00    -0.313 NA
ATOM      3  H   LIG    1       26.055 -21.862   4.667  0.00  0.00    +0.122 HD
BRANCH   2   4
ATOM      4  C   LIG    1       26.442 -21.608   6.672  0.00  0.00    +0.117 C 
BRANCH   4   5
ATOM      5  C   LIG    1       27.278 -20.311   6.560  0.00  0.00    +0.158 C 
BRANCH   5  10
ATOM      6  C   LIG    1       30.437 -20.942   8.483  0.00  0.00    +0.019 A 
ATOM      7  C   LIG    1       31.071 -19.723   8.504  0.00  0.00    +0.122 A 
ATOM      8  C   LIG    1       30.403 -18.615   7.982  0.00  0.00    +0.046 A 
ATOM      9  C   LIG    1       29.174 -18.820   7.386  0.00  0.00    +0.010 A 
ATOM     10  C   LIG    1       28.548 -20.040   7.270  0.00  0.00    -0.017 A 
ATOM     11  C   LIG    1       29.175 -21.101   7.916  0.00  0.00    +0.015 A 
BRANCH   7  12
ATOM     12  O   LIG    1       32.297 -19.539   9.060  0.00  0.00    -0.506 OA
ATOM     13  H   LIG    1       32.717 -20.402   9.197  0.00  0.00    +0.292 HD
ENDBRANCH   7  12
BRANCH   6  14
ATOM     14  C   LIG    1       31.046 -22.130   9.257  0.00  0.00    +0.194 C 
BRANCH  14  15
ATOM     15  O   LIG    1       32.249 -22.599   8.672  0.00  0.00    -0.390 OA
ATOM     16  H   LIG    1       33.004 -22.436   9.250  0.00  0.00    +0.210 HD
ENDBRANCH  14  15
ENDBRANCH   6  14
ENDBRANCH   5  10
BRANCH   5  17
ATOM     17  O   LIG    1       27.816 -20.484   5.288  0.00  0.00    -0.386 OA
ATOM     18  H   LIG    1       28.377 -21.228   5.202  0.00  0.00    +0.210 HD
ENDBRANCH   5  17
ENDBRANCH   4   5
ENDBRANCH   2   4
ENDBRANCH   1   2
BRANCH   1  19
ATOM     19  C   LIG    1       25.308 -24.358   6.501  0.00  0.00    +0.015 C 
BRANCH  19  20
ATOM     20  C   LIG    1       25.518 -25.725   5.845  0.00  0.00    +0.001 C 
BRANCH  20  21
ATOM     21  C   LIG    1       24.298 -26.671   5.839  0.00  0.00    +0.002 C 
BRANCH  21  22
ATOM     22  C   LIG    1       24.480 -28.206   5.713  0.00  0.00    +0.028 C 
BRANCH  22  23
ATOM     23  C   LIG    1       24.729 -28.938   7.039  0.00  0.00    +0.160 C 
BRANCH  23  24
ATOM     24  O   LIG    1       23.765 -29.927   7.416  0.00  0.00    -0.378 OA
BRANCH  24  25
ATOM     25  C   LIG    1       24.242 -30.678   8.559  0.00  0.00    +0.188 C 
BRANCH  25  26
ATOM     26  C   LIG    1       23.533 -30.212   9.822  0.00  0.00    +0.188 C 
BRANCH  26  27
ATOM     27  O   LIG    1       24.365 -30.160  10.965  0.00  0.00    -0.373 OA
BRANCH  27  28
ATOM     28  C   LIG    1       23.588 -30.254  12.135  0.00  0.00    +0.198 C 
BRANCH  28  29
ATOM     29  C   LIG    1       22.990 -28.938  12.515  0.00  0.00    +0.015 A 
ATOM     30  C   LIG    1       23.745 -27.853  13.002  0.00  0.00    +0.048 A 
ATOM     31 CL   LIG    1       25.465 -27.893  13.218  0.00  0.00    -0.083 Cl
ATOM     32  C   LIG    1       23.113 -26.670  13.392  0.00  0.00    +0.020 A 
ATOM     33  C   LIG    1       21.728 -26.559  13.333  0.00  0.00    +0.003 A 
ATOM     34  C   LIG    1       20.967 -27.630  12.882  0.00  0.00    +0.020 A 
ATOM     35  C   LIG    1       21.589 -28.808  12.478  0.00  0.00    +0.048 A 
ATOM     36 CL   LIG    1       20.548 -30.102  11.977  0.00  0.00    -0.083 Cl
ENDBRANCH  28  29
ENDBRANCH  27  28
ENDBRANCH  26  27
ENDBRANCH  25  26
ENDBRANCH  24  25
ENDBRANCH  23  24
ENDBRANCH  22  23
ENDBRANCH  21  22
ENDBRANCH  20  21
ENDBRANCH  19  20
ENDBRANCH   1  19
TORSDOF 19
ENDMDL
MODEL 9
REMARK VINA RESULT:      -7.9      3.212      9.045
REMARK  Name = *****
REMARK                            x       y       z     vdW  Elec       q    Type
REMARK                         _______ _______ _______ _____ _____    ______ ____
ROOT
ATOM      1  C   LIG    1       23.864 -24.216   6.548  0.00  0.00    +0.081 C 
ENDROOT
BRANCH   1   2
ATOM      2  N   LIG    1       24.613 -24.105   5.279  0.00  0.00    -0.313 NA
ATOM      3  H   LIG    1       24.028 -23.639   4.592  0.00  0.00    +0.122 HD
BRANCH   2   4
ATOM      4  C   LIG    1       25.205 -25.325   4.664  0.00  0.00    +0.117 C 
BRANCH   4   5
ATOM      5  C   LIG    1       25.954 -26.311   5.591  0.00  0.00    +0.158 C 
BRANCH   5  10
ATOM      6  C   LIG    1       25.303 -29.099   8.015  0.00  0.00    +0.019 A 
ATOM      7  C   LIG    1       24.296 -29.828   7.431  0.00  0.00    +0.122 A 
ATOM      8  C   LIG    1       23.883 -29.484   6.144  0.00  0.00    +0.046 A 
ATOM      9  C   LIG    1       24.447 -28.367   5.559  0.00  0.00    +0.010 A 
ATOM     10  C   LIG    1       25.396 -27.563   6.149  0.00  0.00    -0.017 A 
ATOM     11  C   LIG    1       25.883 -28.006   7.374  0.00  0.00    +0.015 A 
BRANCH   7  12
ATOM     12  O   LIG    1       23.721 -30.904   8.031  0.00  0.00    -0.506 OA
ATOM     13  H   LIG    1       22.802 -30.690   8.254  0.00  0.00    +0.292 HD
ENDBRANCH   7  12
BRANCH   6  14
ATOM     14  C   LIG    1       25.938 -29.596   9.331  0.00  0.00    +0.194 C 
BRANCH  14  15
ATOM     15  O   LIG    1       27.306 -29.239   9.443  0.00  0.00    -0.390 OA
ATOM     16  H   LIG    1       27.533 -29.010  10.352  0.00  0.00    +0.210 HD
ENDBRANCH  14  15
ENDBRANCH   6  14
ENDBRANCH   5  10
BRANCH   5  17
ATOM     17  O   LIG    1       26.819 -26.894   4.670  0.00  0.00    -0.386 OA
ATOM     18  H   LIG    1       27.662 -26.488   4.617  0.00  0.00    +0.210 HD
ENDBRANCH   5  17
ENDBRANCH   4   5
ENDBRANCH   2   4
ENDBRANCH   1   2
BRANCH   1  19
ATOM     19  C   LIG    1       22.706 -23.234   6.814  0.00  0.00    +0.015 C 
BRANCH  19  20
ATOM     20  C   LIG    1       23.110 -21.960   7.561  0.00  0.00    +0.001 C 
BRANCH  20  21
ATOM     21  C   LIG    1       23.162 -20.667   6.719  0.00  0.00    +0.002 C 
BRANCH  21  22
ATOM     22  C   LIG    1       22.464 -20.588   5.337  0.00  0.00    +0.028 C 
BRANCH  22  23
ATOM     23  C   LIG    1       22.515 -19.208   4.665  0.00  0.00    +0.160 C 
BRANCH  23  24
ATOM     24  O   LIG    1       23.364 -19.084   3.519  0.00  0.00    -0.378 OA
BRANCH  24  25
ATOM     25  C   LIG    1       24.734 -18.865   3.936  0.00  0.00    +0.188 C 
BRANCH  25  26
ATOM     26  C   LIG    1       25.587 -20.074   3.580  0.00  0.00    +0.188 C 
BRANCH  26  27
ATOM     27  O   LIG    1       26.076 -20.785   4.701  0.00  0.00    -0.373 OA
BRANCH  27  28
ATOM     28  C   LIG    1       26.388 -19.890   5.743  0.00  0.00    +0.198 C 
BRANCH  28  29
ATOM     29  C   LIG    1       27.693 -20.226   6.392  0.00  0.00    +0.015 A 
ATOM     30  C   LIG    1       27.840 -21.233   7.366  0.00  0.00    +0.048 A 
ATOM     31 CL   LIG    1       26.537 -22.224   7.936  0.00  0.00    -0.083 Cl
ATOM     32  C   LIG    1       29.079 -21.454   7.973  0.00  0.00    +0.020 A 
ATOM     33  C   LIG    1       30.175 -20.662   7.645  0.00  0.00    +0.003 A 
ATOM     34  C   LIG    1       30.039 -19.646   6.708  0.00  0.00    +0.020 A 
ATOM     35  C   LIG    1       28.811 -19.427   6.088  0.00  0.00    +0.048 A 
ATOM     36 CL   LIG    1       28.733 -18.104   4.968  0.00  0.00    -0.083 Cl
ENDBRANCH  28  29
ENDBRANCH  27  28
ENDBRANCH  26  27
ENDBRANCH  25  26
ENDBRANCH  24  25
ENDBRANCH  23  24
ENDBRANCH  22  23
ENDBRANCH  21  22
ENDBRANCH  20  21
ENDBRANCH  19  20
ENDBRANCH   1  19
TORSDOF 19
ENDMDL
