MODEL 1
REMARK VINA RESULT:      -6.7      0.000      0.000
REMARK  Name = *****
REMARK                            x       y       z     vdW  Elec       q    Type
REMARK                         _______ _______ _______ _____ _____    ______ ____
ROOT
ATOM      1  C   LIG    1       29.143 -18.232   5.185  0.00  0.00    +0.105 C 
ATOM      2  N   LIG    1       27.704 -18.121   4.924  0.00  0.00    -0.297 NA
ENDROOT
BRANCH   2   3
ATOM      3  C   LIG    1       27.218 -19.428   4.429  0.00  0.00    +0.120 C 
BRANCH   3   4
ATOM      4  C   LIG    1       26.093 -20.061   5.234  0.00  0.00    -0.026 A 
ATOM      5  C   LIG    1       24.717 -19.827   4.952  0.00  0.00    -0.013 A 
ATOM      6  C   LIG    1       23.740 -20.489   5.738  0.00  0.00    -0.018 A 
ATOM      7  C   LIG    1       22.373 -20.297   5.468  0.00  0.00    +0.008 A 
ATOM      8  C   LIG    1       21.955 -19.459   4.436  0.00  0.00    +0.001 A 
ATOM      9  C   LIG    1       22.897 -18.798   3.662  0.00  0.00    +0.001 A 
ATOM     10  C   LIG    1       24.134 -21.339   6.780  0.00  0.00    +0.008 A 
ATOM     11  C   LIG    1       25.481 -21.548   7.062  0.00  0.00    +0.001 A 
ATOM     12  C   LIG    1       24.257 -18.977   3.919  0.00  0.00    +0.009 A 
ATOM     13  C   LIG    1       26.451 -20.914   6.297  0.00  0.00    +0.005 A 
ENDBRANCH   3   4
ENDBRANCH   2   3
BRANCH   2  14
ATOM     14  C   LIG    1       27.387 -17.022   3.991  0.00  0.00    +0.111 C 
BRANCH  14  15
ATOM     15  C   LIG    1       28.083 -15.732   4.344  0.00  0.00    -0.011 C 
ATOM     16  C   LIG    1       27.634 -14.473   4.207  0.00  0.00    +0.005 C 
BRANCH  16  17
ATOM     17  C   LIG    1       26.325 -14.076   3.687  0.00  0.00    -0.025 A 
ATOM     18  C   LIG    1       25.157 -14.413   4.378  0.00  0.00    +0.008 A 
ATOM     19  C   LIG    1       23.910 -14.024   3.884  0.00  0.00    +0.001 A 
ATOM     20  C   LIG    1       23.824 -13.295   2.698  0.00  0.00    +0.000 A 
ATOM     21  C   LIG    1       24.985 -12.947   2.011  0.00  0.00    +0.001 A 
ATOM     22  C   LIG    1       26.233 -13.336   2.504  0.00  0.00    +0.008 A 
ENDBRANCH  16  17
ENDBRANCH  14  15
ENDBRANCH   2  14
TORSDOF 5
ENDMDL
MODEL 2
REMARK VINA RESULT:      -6.2      1.376      3.385
REMARK  Name = *****
REMARK                            x       y       z     vdW  Elec       q    Type
REMARK                         _______ _______ _______ _____ _____    ______ ____
ROOT
ATOM      1  C   LIG    1       26.939 -16.555   3.500  0.00  0.00    +0.105 C 
ATOM      2  N   LIG    1       25.520 -16.863   3.704  0.00  0.00    -0.297 NA
ENDROOT
BRANCH   2   3
ATOM      3  C   LIG    1       25.262 -18.231   3.201  0.00  0.00    +0.120 C 
BRANCH   3   4
ATOM      4  C   LIG    1       24.568 -19.172   4.173  0.00  0.00    -0.026 A 
ATOM      5  C   LIG    1       25.279 -19.966   5.118  0.00  0.00    -0.013 A 
ATOM      6  C   LIG    1       24.540 -20.790   6.006  0.00  0.00    -0.018 A 
ATOM      7  C   LIG    1       25.211 -21.567   6.966  0.00  0.00    +0.008 A 
ATOM      8  C   LIG    1       26.602 -21.547   7.062  0.00  0.00    +0.001 A 
ATOM      9  C   LIG    1       27.341 -20.754   6.196  0.00  0.00    +0.001 A 
ATOM     10  C   LIG    1       23.141 -20.824   5.932  0.00  0.00    +0.008 A 
ATOM     11  C   LIG    1       22.455 -20.059   4.994  0.00  0.00    +0.001 A 
ATOM     12  C   LIG    1       26.688 -19.978   5.237  0.00  0.00    +0.009 A 
ATOM     13  C   LIG    1       23.162 -19.242   4.122  0.00  0.00    +0.005 A 
ENDBRANCH   3   4
ENDBRANCH   2   3
BRANCH   2  14
ATOM     14  C   LIG    1       24.632 -15.864   3.077  0.00  0.00    +0.111 C 
BRANCH  14  15
ATOM     15  C   LIG    1       24.067 -14.876   4.065  0.00  0.00    -0.011 C 
ATOM     16  C   LIG    1       24.688 -13.850   4.671  0.00  0.00    +0.005 C 
BRANCH  16  17
ATOM     17  C   LIG    1       26.083 -13.451   4.479  0.00  0.00    -0.025 A 
ATOM     18  C   LIG    1       26.941 -13.327   5.576  0.00  0.00    +0.008 A 
ATOM     19  C   LIG    1       28.274 -12.956   5.388  0.00  0.00    +0.001 A 
ATOM     20  C   LIG    1       28.757 -12.708   4.103  0.00  0.00    +0.000 A 
ATOM     21  C   LIG    1       27.908 -12.839   3.005  0.00  0.00    +0.001 A 
ATOM     22  C   LIG    1       26.574 -13.211   3.192  0.00  0.00    +0.008 A 
ENDBRANCH  16  17
ENDBRANCH  14  15
ENDBRANCH   2  14
TORSDOF 5
ENDMDL
MODEL 3
REMARK VINA RESULT:      -5.8      1.779      7.591
REMARK  Name = *****
REMARK                            x       y       z     vdW  Elec       q    Type
REMARK                         _______ _______ _______ _____ _____    ______ ____
ROOT
ATOM      1  C   LIG    1       24.458 -16.888   3.687  0.00  0.00    +0.105 C 
ATOM      2  N   LIG    1       23.210 -16.192   4.020  0.00  0.00    -0.297 NA
ENDROOT
BRANCH   2   3
ATOM      3  C   LIG    1       23.551 -14.876   4.603  0.00  0.00    +0.120 C 
BRANCH   3   4
ATOM      4  C   LIG    1       24.320 -13.931   3.692  0.00  0.00    -0.026 A 
ATOM      5  C   LIG    1       25.725 -13.726   3.801  0.00  0.00    -0.013 A 
ATOM      6  C   LIG    1       26.357 -12.849   2.883  0.00  0.00    -0.018 A 
ATOM      7  C   LIG    1       27.747 -12.645   2.951  0.00  0.00    +0.008 A 
ATOM      8  C   LIG    1       28.523 -13.292   3.911  0.00  0.00    +0.001 A 
ATOM      9  C   LIG    1       27.920 -14.147   4.822  0.00  0.00    +0.001 A 
ATOM     10  C   LIG    1       25.600 -12.190   1.906  0.00  0.00    +0.008 A 
ATOM     11  C   LIG    1       24.225 -12.380   1.817  0.00  0.00    +0.001 A 
ATOM     12  C   LIG    1       26.540 -14.358   4.769  0.00  0.00    +0.009 A 
ATOM     13  C   LIG    1       23.590 -13.242   2.702  0.00  0.00    +0.005 A 
ENDBRANCH   3   4
ENDBRANCH   2   3
BRANCH   2  14
ATOM     14  C   LIG    1       22.347 -16.988   4.915  0.00  0.00    +0.111 C 
BRANCH  14  15
ATOM     15  C   LIG    1       21.738 -18.187   4.231  0.00  0.00    -0.011 C 
ATOM     16  C   LIG    1       22.139 -19.468   4.274  0.00  0.00    +0.005 C 
BRANCH  16  17
ATOM     17  C   LIG    1       23.276 -19.992   5.032  0.00  0.00    -0.025 A 
ATOM     18  C   LIG    1       23.106 -20.439   6.345  0.00  0.00    +0.008 A 
ATOM     19  C   LIG    1       24.191 -20.948   7.062  0.00  0.00    +0.001 A 
ATOM     20  C   LIG    1       25.452 -21.013   6.468  0.00  0.00    +0.000 A 
ATOM     21  C   LIG    1       25.625 -20.578   5.156  0.00  0.00    +0.001 A 
ATOM     22  C   LIG    1       24.540 -20.070   4.438  0.00  0.00    +0.008 A 
ENDBRANCH  16  17
ENDBRANCH  14  15
ENDBRANCH   2  14
TORSDOF 5
ENDMDL
MODEL 4
REMARK VINA RESULT:      -5.8      1.690      3.755
REMARK  Name = *****
REMARK                            x       y       z     vdW  Elec       q    Type
REMARK                         _______ _______ _______ _____ _____    ______ ____
ROOT
ATOM      1  C   LIG    1       21.802 -17.536   5.007  0.00  0.00    +0.105 C 
ATOM      2  N   LIG    1       22.840 -17.349   3.989  0.00  0.00    -0.297 NA
ENDROOT
BRANCH   2   3
ATOM      3  C   LIG    1       23.410 -18.672   3.654  0.00  0.00    +0.120 C 
BRANCH   3   4
ATOM      4  C   LIG    1       23.602 -19.624   4.825  0.00  0.00    -0.026 A 
ATOM      5  C   LIG    1       24.884 -19.938   5.361  0.00  0.00    -0.013 A 
ATOM      6  C   LIG    1       24.958 -20.811   6.476  0.00  0.00    -0.018 A 
ATOM      7  C   LIG    1       26.207 -21.122   7.043  0.00  0.00    +0.008 A 
ATOM      8  C   LIG    1       27.385 -20.587   6.524  0.00  0.00    +0.001 A 
ATOM      9  C   LIG    1       27.331 -19.738   5.428  0.00  0.00    +0.001 A 
ATOM     10  C   LIG    1       23.788 -21.360   7.018  0.00  0.00    +0.008 A 
ATOM     11  C   LIG    1       22.541 -21.062   6.478  0.00  0.00    +0.001 A 
ATOM     12  C   LIG    1       26.098 -19.421   4.854  0.00  0.00    +0.009 A 
ATOM     13  C   LIG    1       22.449 -20.203   5.390  0.00  0.00    +0.005 A 
ENDBRANCH   3   4
ENDBRANCH   2   3
BRANCH   2  14
ATOM     14  C   LIG    1       23.878 -16.389   4.416  0.00  0.00    +0.111 C 
BRANCH  14  15
ATOM     15  C   LIG    1       23.384 -14.965   4.451  0.00  0.00    -0.011 C 
ATOM     16  C   LIG    1       24.087 -13.831   4.293  0.00  0.00    +0.005 C 
BRANCH  16  17
ATOM     17  C   LIG    1       25.523 -13.736   4.027  0.00  0.00    -0.025 A 
ATOM     18  C   LIG    1       26.384 -13.187   4.982  0.00  0.00    +0.008 A 
ATOM     19  C   LIG    1       27.756 -13.107   4.729  0.00  0.00    +0.001 A 
ATOM     20  C   LIG    1       28.273 -13.577   3.522  0.00  0.00    +0.000 A 
ATOM     21  C   LIG    1       27.420 -14.135   2.572  0.00  0.00    +0.001 A 
ATOM     22  C   LIG    1       26.048 -14.216   2.824  0.00  0.00    +0.008 A 
ENDBRANCH  16  17
ENDBRANCH  14  15
ENDBRANCH   2  14
TORSDOF 5
ENDMDL
MODEL 5
REMARK VINA RESULT:      -5.7      1.264      2.134
REMARK  Name = *****
REMARK                            x       y       z     vdW  Elec       q    Type
REMARK                         _______ _______ _______ _____ _____    ______ ____
ROOT
ATOM      1  C   LIG    1       24.367 -16.838   3.628  0.00  0.00    +0.105 C 
ATOM      2  N   LIG    1       25.732 -17.204   3.235  0.00  0.00    -0.297 NA
ENDROOT
BRANCH   2   3
ATOM      3  C   LIG    1       25.807 -18.678   3.131  0.00  0.00    +0.120 C 
BRANCH   3   4
ATOM      4  C   LIG    1       26.039 -19.421   4.438  0.00  0.00    -0.026 A 
ATOM      5  C   LIG    1       24.993 -20.077   5.148  0.00  0.00    -0.013 A 
ATOM      6  C   LIG    1       25.316 -20.772   6.342  0.00  0.00    -0.018 A 
ATOM      7  C   LIG    1       24.309 -21.450   7.052  0.00  0.00    +0.008 A 
ATOM      8  C   LIG    1       22.989 -21.450   6.605  0.00  0.00    +0.001 A 
ATOM      9  C   LIG    1       22.655 -20.769   5.444  0.00  0.00    +0.001 A 
ATOM     10  C   LIG    1       26.636 -20.789   6.810  0.00  0.00    +0.008 A 
ATOM     11  C   LIG    1       27.649 -20.131   6.121  0.00  0.00    +0.001 A 
ATOM     12  C   LIG    1       23.643 -20.090   4.728  0.00  0.00    +0.009 A 
ATOM     13  C   LIG    1       27.353 -19.452   4.946  0.00  0.00    +0.005 A 
ENDBRANCH   3   4
ENDBRANCH   2   3
BRANCH   2  14
ATOM     14  C   LIG    1       26.747 -16.660   4.159  0.00  0.00    +0.111 C 
BRANCH  14  15
ATOM     15  C   LIG    1       27.677 -15.674   3.497  0.00  0.00    -0.011 C 
ATOM     16  C   LIG    1       27.433 -14.401   3.146  0.00  0.00    +0.005 C 
BRANCH  16  17
ATOM     17  C   LIG    1       26.182 -13.672   3.354  0.00  0.00    -0.025 A 
ATOM     18  C   LIG    1       25.737 -13.385   4.648  0.00  0.00    +0.008 A 
ATOM     19  C   LIG    1       24.547 -12.680   4.844  0.00  0.00    +0.001 A 
ATOM     20  C   LIG    1       23.797 -12.257   3.746  0.00  0.00    +0.000 A 
ATOM     21  C   LIG    1       24.240 -12.532   2.454  0.00  0.00    +0.001 A 
ATOM     22  C   LIG    1       25.431 -13.237   2.258  0.00  0.00    +0.008 A 
ENDBRANCH  16  17
ENDBRANCH  14  15
ENDBRANCH   2  14
TORSDOF 5
ENDMDL
MODEL 6
REMARK VINA RESULT:      -5.4      1.275      2.501
REMARK  Name = *****
REMARK                            x       y       z     vdW  Elec       q    Type
REMARK                         _______ _______ _______ _____ _____    ______ ____
ROOT
ATOM      1  C   LIG    1       27.778 -16.840   4.046  0.00  0.00    +0.105 C 
ATOM      2  N   LIG    1       26.408 -17.363   4.018  0.00  0.00    -0.297 NA
ENDROOT
BRANCH   2   3
ATOM      3  C   LIG    1       26.468 -18.810   3.718  0.00  0.00    +0.120 C 
BRANCH   3   4
ATOM      4  C   LIG    1       26.106 -19.737   4.869  0.00  0.00    -0.026 A 
ATOM      5  C   LIG    1       24.777 -20.194   5.103  0.00  0.00    -0.013 A 
ATOM      6  C   LIG    1       24.546 -21.084   6.183  0.00  0.00    -0.018 A 
ATOM      7  C   LIG    1       23.249 -21.572   6.424  0.00  0.00    +0.008 A 
ATOM      8  C   LIG    1       22.177 -21.193   5.619  0.00  0.00    +0.001 A 
ATOM      9  C   LIG    1       22.384 -20.317   4.563  0.00  0.00    +0.001 A 
ATOM     10  C   LIG    1       25.608 -21.482   7.005  0.00  0.00    +0.008 A 
ATOM     11  C   LIG    1       26.900 -21.017   6.781  0.00  0.00    +0.001 A 
ATOM     12  C   LIG    1       23.666 -19.824   4.312  0.00  0.00    +0.009 A 
ATOM     13  C   LIG    1       27.146 -20.151   5.724  0.00  0.00    +0.005 A 
ENDBRANCH   3   4
ENDBRANCH   2   3
BRANCH   2  14
ATOM     14  C   LIG    1       25.549 -16.633   3.064  0.00  0.00    +0.111 C 
BRANCH  14  15
ATOM     15  C   LIG    1       24.634 -15.641   3.737  0.00  0.00    -0.011 C 
ATOM     16  C   LIG    1       24.936 -14.435   4.246  0.00  0.00    +0.005 C 
BRANCH  16  17
ATOM     17  C   LIG    1       26.255 -13.801   4.238  0.00  0.00    -0.025 A 
ATOM     18  C   LIG    1       26.893 -13.509   3.029  0.00  0.00    +0.008 A 
ATOM     19  C   LIG    1       28.147 -12.894   3.025  0.00  0.00    +0.001 A 
ATOM     20  C   LIG    1       28.769 -12.567   4.230  0.00  0.00    +0.000 A 
ATOM     21  C   LIG    1       28.133 -12.846   5.438  0.00  0.00    +0.001 A 
ATOM     22  C   LIG    1       26.878 -13.461   5.443  0.00  0.00    +0.008 A 
ENDBRANCH  16  17
ENDBRANCH  14  15
ENDBRANCH   2  14
TORSDOF 5
ENDMDL
MODEL 7
REMARK VINA RESULT:      -4.9      1.388      3.166
REMARK  Name = *****
REMARK                            x       y       z     vdW  Elec       q    Type
REMARK                         _______ _______ _______ _____ _____    ______ ____
ROOT
ATOM      1  C   LIG    1       23.863 -16.949   3.717  0.00  0.00    +0.105 C 
ATOM      2  N   LIG    1       25.166 -17.346   3.173  0.00  0.00    -0.297 NA
ENDROOT
BRANCH   2   3
ATOM      3  C   LIG    1       25.144 -18.804   2.924  0.00  0.00    +0.120 C 
BRANCH   3   4
ATOM      4  C   LIG    1       24.898 -19.678   4.145  0.00  0.00    -0.026 A 
ATOM      5  C   LIG    1       25.941 -20.082   5.027  0.00  0.00    -0.013 A 
ATOM      6  C   LIG    1       25.607 -20.870   6.157  0.00  0.00    -0.018 A 
ATOM      7  C   LIG    1       26.611 -21.263   7.060  0.00  0.00    +0.008 A 
ATOM      8  C   LIG    1       27.940 -20.894   6.863  0.00  0.00    +0.001 A 
ATOM      9  C   LIG    1       28.286 -20.130   5.758  0.00  0.00    +0.001 A 
ATOM     10  C   LIG    1       24.277 -21.251   6.380  0.00  0.00    +0.008 A 
ATOM     11  C   LIG    1       23.267 -20.869   5.504  0.00  0.00    +0.001 A 
ATOM     12  C   LIG    1       27.300 -19.733   4.852  0.00  0.00    +0.009 A 
ATOM     13  C   LIG    1       23.574 -20.090   4.395  0.00  0.00    +0.005 A 
ENDBRANCH   3   4
ENDBRANCH   2   3
BRANCH   2  14
ATOM     14  C   LIG    1       26.285 -16.950   4.051  0.00  0.00    +0.111 C 
BRANCH  14  15
ATOM     15  C   LIG    1       27.268 -16.029   3.372  0.00  0.00    -0.011 C 
ATOM     16  C   LIG    1       27.174 -14.703   3.176  0.00  0.00    +0.005 C 
BRANCH  16  17
ATOM     17  C   LIG    1       26.072 -13.843   3.608  0.00  0.00    -0.025 A 
ATOM     18  C   LIG    1       25.070 -13.469   2.707  0.00  0.00    +0.008 A 
ATOM     19  C   LIG    1       24.015 -12.656   3.125  0.00  0.00    +0.001 A 
ATOM     20  C   LIG    1       23.955 -12.213   4.447  0.00  0.00    +0.000 A 
ATOM     21  C   LIG    1       24.945 -12.590   5.351  0.00  0.00    +0.001 A 
ATOM     22  C   LIG    1       26.001 -13.405   4.934  0.00  0.00    +0.008 A 
ENDBRANCH  16  17
ENDBRANCH  14  15
ENDBRANCH   2  14
TORSDOF 5
ENDMDL
MODEL 8
REMARK VINA RESULT:      -4.9      1.722      6.932
REMARK  Name = *****
REMARK                            x       y       z     vdW  Elec       q    Type
REMARK                         _______ _______ _______ _____ _____    ______ ____
ROOT
ATOM      1  C   LIG    1       21.328 -18.366   3.669  0.00  0.00    +0.105 C 
ATOM      2  N   LIG    1       22.381 -18.049   4.639  0.00  0.00    -0.297 NA
ENDROOT
BRANCH   2   3
ATOM      3  C   LIG    1       23.563 -17.553   3.900  0.00  0.00    +0.120 C 
BRANCH   3   4
ATOM      4  C   LIG    1       23.887 -16.078   4.086  0.00  0.00    -0.026 A 
ATOM      5  C   LIG    1       25.202 -15.552   3.934  0.00  0.00    -0.013 A 
ATOM      6  C   LIG    1       25.397 -14.157   4.095  0.00  0.00    -0.018 A 
ATOM      7  C   LIG    1       26.679 -13.604   3.927  0.00  0.00    +0.008 A 
ATOM      8  C   LIG    1       27.772 -14.407   3.605  0.00  0.00    +0.001 A 
ATOM      9  C   LIG    1       27.600 -15.775   3.451  0.00  0.00    +0.001 A 
ATOM     10  C   LIG    1       24.315 -13.328   4.416  0.00  0.00    +0.008 A 
ATOM     11  C   LIG    1       23.036 -13.852   4.581  0.00  0.00    +0.001 A 
ATOM     12  C   LIG    1       26.333 -16.338   3.616  0.00  0.00    +0.009 A 
ATOM     13  C   LIG    1       22.825 -15.215   4.419  0.00  0.00    +0.005 A 
ENDBRANCH   3   4
ENDBRANCH   2   3
BRANCH   2  14
ATOM     14  C   LIG    1       22.710 -19.198   5.505  0.00  0.00    +0.111 C 
BRANCH  14  15
ATOM     15  C   LIG    1       22.949 -20.470   4.730  0.00  0.00    -0.011 C 
ATOM     16  C   LIG    1       24.081 -21.184   4.623  0.00  0.00    +0.005 C 
BRANCH  16  17
ATOM     17  C   LIG    1       25.358 -20.880   5.270  0.00  0.00    -0.025 A 
ATOM     18  C   LIG    1       25.724 -21.530   6.452  0.00  0.00    +0.008 A 
ATOM     19  C   LIG    1       26.949 -21.246   7.062  0.00  0.00    +0.001 A 
ATOM     20  C   LIG    1       27.813 -20.311   6.492  0.00  0.00    +0.000 A 
ATOM     21  C   LIG    1       27.457 -19.667   5.308  0.00  0.00    +0.001 A 
ATOM     22  C   LIG    1       26.233 -19.952   4.697  0.00  0.00    +0.008 A 
ENDBRANCH  16  17
ENDBRANCH  14  15
ENDBRANCH   2  14
TORSDOF 5
ENDMDL
MODEL 9
REMARK VINA RESULT:      -4.6      1.307      3.006
REMARK  Name = *****
REMARK                            x       y       z     vdW  Elec       q    Type
REMARK                         _______ _______ _______ _____ _____    ______ ____
ROOT
ATOM      1  C   LIG    1       24.645 -16.167   3.384  0.00  0.00    +0.105 C 
ATOM      2  N   LIG    1       26.022 -16.598   3.124  0.00  0.00    -0.297 NA
ENDROOT
BRANCH   2   3
ATOM      3  C   LIG    1       26.070 -18.075   3.196  0.00  0.00    +0.120 C 
BRANCH   3   4
ATOM      4  C   LIG    1       24.906 -18.739   3.916  0.00  0.00    -0.026 A 
ATOM      5  C   LIG    1       25.087 -19.696   4.954  0.00  0.00    -0.013 A 
ATOM      6  C   LIG    1       23.939 -20.235   5.588  0.00  0.00    -0.018 A 
ATOM      7  C   LIG    1       24.085 -21.164   6.634  0.00  0.00    +0.008 A 
ATOM      8  C   LIG    1       25.347 -21.572   7.062  0.00  0.00    +0.001 A 
ATOM      9  C   LIG    1       26.481 -21.061   6.447  0.00  0.00    +0.001 A 
ATOM     10  C   LIG    1       22.659 -19.839   5.179  0.00  0.00    +0.008 A 
ATOM     11  C   LIG    1       22.490 -18.917   4.150  0.00  0.00    +0.001 A 
ATOM     12  C   LIG    1       26.351 -20.139   5.407  0.00  0.00    +0.009 A 
ATOM     13  C   LIG    1       23.603 -18.373   3.524  0.00  0.00    +0.005 A 
ENDBRANCH   3   4
ENDBRANCH   2   3
BRANCH   2  14
ATOM     14  C   LIG    1       26.990 -15.965   4.043  0.00  0.00    +0.111 C 
BRANCH  14  15
ATOM     15  C   LIG    1       27.806 -14.882   3.383  0.00  0.00    -0.011 C 
ATOM     16  C   LIG    1       27.432 -13.634   3.056  0.00  0.00    +0.005 C 
BRANCH  16  17
ATOM     17  C   LIG    1       26.118 -13.037   3.296  0.00  0.00    -0.025 A 
ATOM     18  C   LIG    1       25.390 -12.481   2.240  0.00  0.00    +0.008 A 
ATOM     19  C   LIG    1       24.131 -11.920   2.471  0.00  0.00    +0.001 A 
ATOM     20  C   LIG    1       23.594 -11.915   3.758  0.00  0.00    +0.000 A 
ATOM     21  C   LIG    1       24.311 -12.476   4.812  0.00  0.00    +0.001 A 
ATOM     22  C   LIG    1       25.570 -13.038   4.582  0.00  0.00    +0.008 A 
ENDBRANCH  16  17
ENDBRANCH  14  15
ENDBRANCH   2  14
TORSDOF 5
ENDMDL
