MODEL 1
REMARK VINA RESULT:      -6.5      0.000      0.000
REMARK  Name = *****
REMARK                            x       y       z     vdW  Elec       q    Type
REMARK                         _______ _______ _______ _____ _____    ______ ____
ROOT
ATOM      1  C   LIG    1       28.816 -19.169   6.054  0.00  0.00    +0.122 C 
ATOM      2  C   LIG    1       27.854 -20.100   6.167  0.00  0.00    +0.079 C 
ATOM      3  N   LIG    1       27.720 -21.172   7.023  0.00  0.00    -0.267 N 
ATOM      4  C   LIG    1       28.549 -21.439   8.179  0.00  0.00    +0.139 C 
ATOM      5  C   LIG    1       26.643 -22.031   6.773  0.00  0.00    +0.248 C 
ATOM      6  O   LIG    1       26.525 -23.158   7.251  0.00  0.00    -0.273 OA
ATOM      7  C   LIG    1       25.576 -21.357   5.879  0.00  0.00    +0.208 C 
ATOM      8  S   LIG    1       26.530 -20.035   5.043  0.00  0.00    -0.081 S 
ENDROOT
BRANCH   7   9
ATOM      9  N   LIG    1       24.466 -20.831   6.722  0.00  0.00    -0.283 NA
ATOM     10  C   LIG    1       23.410 -20.127   5.977  0.00  0.00    +0.086 C 
ATOM     11  C   LIG    1       22.559 -21.035   5.090  0.00  0.00    +0.015 C 
ATOM     12  C   LIG    1       21.956 -22.190   5.881  0.00  0.00    +0.002 C 
ATOM     13  C   LIG    1       22.993 -22.881   6.762  0.00  0.00    +0.015 C 
ATOM     14  C   LIG    1       23.832 -21.874   7.554  0.00  0.00    +0.086 C 
ENDBRANCH   7   9
BRANCH   1  15
ATOM     15  C   LIG    1       30.086 -19.039   6.771  0.00  0.00    +0.334 C 
ATOM     16  O   LIG    1       31.132 -19.623   6.520  0.00  0.00    -0.245 OA
BRANCH  15  17
ATOM     17  O   LIG    1       29.887 -18.146   7.772  0.00  0.00    -0.462 OA
BRANCH  17  19
ATOM     18  C   LIG    1       30.268 -17.364  10.013  0.00  0.00    +0.048 C 
ATOM     19  C   LIG    1       30.566 -18.451   8.997  0.00  0.00    +0.229 C 
ENDBRANCH  17  19
ENDBRANCH  15  17
ENDBRANCH   1  15
TORSDOF 4
ENDMDL
MODEL 2
REMARK VINA RESULT:      -6.0      1.770      2.370
REMARK  Name = *****
REMARK                            x       y       z     vdW  Elec       q    Type
REMARK                         _______ _______ _______ _____ _____    ______ ____
ROOT
ATOM      1  C   LIG    1       29.165 -20.461   8.574  0.00  0.00    +0.122 C 
ATOM      2  C   LIG    1       28.156 -20.360   7.693  0.00  0.00    +0.079 C 
ATOM      3  N   LIG    1       28.149 -20.061   6.347  0.00  0.00    -0.267 N 
ATOM      4  C   LIG    1       29.315 -19.961   5.498  0.00  0.00    +0.139 C 
ATOM      5  C   LIG    1       26.889 -19.906   5.757  0.00  0.00    +0.248 C 
ATOM      6  O   LIG    1       26.693 -19.385   4.660  0.00  0.00    -0.273 OA
ATOM      7  C   LIG    1       25.775 -20.541   6.621  0.00  0.00    +0.208 C 
ATOM      8  S   LIG    1       26.539 -20.593   8.286  0.00  0.00    -0.081 S 
ENDROOT
BRANCH   7   9
ATOM      9  N   LIG    1       25.432 -21.892   6.094  0.00  0.00    -0.283 NA
ATOM     10  C   LIG    1       24.730 -22.763   7.050  0.00  0.00    +0.086 C 
ATOM     11  C   LIG    1       23.302 -22.318   7.368  0.00  0.00    +0.015 C 
ATOM     12  C   LIG    1       22.469 -22.152   6.103  0.00  0.00    +0.002 C 
ATOM     13  C   LIG    1       23.206 -21.351   5.034  0.00  0.00    +0.015 C 
ATOM     14  C   LIG    1       24.645 -21.840   4.846  0.00  0.00    +0.086 C 
ENDBRANCH   7   9
BRANCH   1  15
ATOM     15  C   LIG    1       30.597 -20.209   8.396  0.00  0.00    +0.334 C 
ATOM     16  O   LIG    1       31.485 -21.046   8.323  0.00  0.00    -0.245 OA
BRANCH  15  17
ATOM     17  O   LIG    1       30.757 -18.863   8.326  0.00  0.00    -0.462 OA
BRANCH  17  19
ATOM     18  C   LIG    1       30.386 -17.351  10.158  0.00  0.00    +0.048 C 
ATOM     19  C   LIG    1       31.380 -18.269   9.472  0.00  0.00    +0.229 C 
ENDBRANCH  17  19
ENDBRANCH  15  17
ENDBRANCH   1  15
TORSDOF 4
ENDMDL
MODEL 3
REMARK VINA RESULT:      -5.9      2.312      6.599
REMARK  Name = *****
REMARK                            x       y       z     vdW  Elec       q    Type
REMARK                         _______ _______ _______ _____ _____    ______ ____
ROOT
ATOM      1  C   LIG    1       24.425 -22.875   5.740  0.00  0.00    +0.122 C 
ATOM      2  C   LIG    1       25.250 -22.004   6.344  0.00  0.00    +0.079 C 
ATOM      3  N   LIG    1       25.653 -21.894   7.658  0.00  0.00    -0.267 N 
ATOM      4  C   LIG    1       25.402 -22.861   8.704  0.00  0.00    +0.139 C 
ATOM      5  C   LIG    1       26.427 -20.769   7.973  0.00  0.00    +0.248 C 
ATOM      6  O   LIG    1       26.643 -20.371   9.117  0.00  0.00    -0.273 OA
ATOM      7  C   LIG    1       27.043 -20.131   6.706  0.00  0.00    +0.208 C 
ATOM      8  S   LIG    1       25.939 -20.737   5.375  0.00  0.00    -0.081 S 
ENDROOT
BRANCH   7   9
ATOM      9  N   LIG    1       28.453 -20.583   6.545  0.00  0.00    -0.283 NA
ATOM     10  C   LIG    1       29.212 -19.866   5.508  0.00  0.00    +0.086 C 
ATOM     11  C   LIG    1       29.520 -18.409   5.854  0.00  0.00    +0.015 C 
ATOM     12  C   LIG    1       30.229 -18.287   7.198  0.00  0.00    +0.002 C 
ATOM     13  C   LIG    1       29.542 -19.110   8.283  0.00  0.00    +0.015 C 
ATOM     14  C   LIG    1       29.222 -20.530   7.805  0.00  0.00    +0.086 C 
ENDBRANCH   7   9
BRANCH   1  15
ATOM     15  C   LIG    1       23.621 -23.958   6.311  0.00  0.00    +0.334 C 
ATOM     16  O   LIG    1       22.502 -23.863   6.797  0.00  0.00    -0.245 OA
BRANCH  15  17
ATOM     17  O   LIG    1       24.352 -25.096   6.200  0.00  0.00    -0.462 OA
BRANCH  17  19
ATOM     18  C   LIG    1       25.722 -26.606   4.928  0.00  0.00    +0.048 C 
ATOM     19  C   LIG    1       25.047 -25.248   4.956  0.00  0.00    +0.229 C 
ENDBRANCH  17  19
ENDBRANCH  15  17
ENDBRANCH   1  15
TORSDOF 4
ENDMDL
MODEL 4
REMARK VINA RESULT:      -5.3      2.726      3.520
REMARK  Name = *****
REMARK                            x       y       z     vdW  Elec       q    Type
REMARK                         _______ _______ _______ _____ _____    ______ ____
ROOT
ATOM      1  C   LIG    1       28.019 -20.994   7.804  0.00  0.00    +0.122 C 
ATOM      2  C   LIG    1       26.981 -21.582   7.186  0.00  0.00    +0.079 C 
ATOM      3  N   LIG    1       26.255 -21.212   6.074  0.00  0.00    -0.267 N 
ATOM      4  C   LIG    1       26.588 -20.134   5.168  0.00  0.00    +0.139 C 
ATOM      5  C   LIG    1       25.136 -22.000   5.777  0.00  0.00    +0.248 C 
ATOM      6  O   LIG    1       24.237 -21.670   5.005  0.00  0.00    -0.273 OA
ATOM      7  C   LIG    1       25.206 -23.374   6.483  0.00  0.00    +0.208 C 
ATOM      8  S   LIG    1       26.359 -23.053   7.871  0.00  0.00    -0.081 S 
ENDROOT
BRANCH   7   9
ATOM      9  N   LIG    1       25.708 -24.407   5.535  0.00  0.00    -0.283 NA
ATOM     10  C   LIG    1       26.556 -25.442   6.147  0.00  0.00    +0.086 C 
ATOM     11  C   LIG    1       25.806 -26.393   7.080  0.00  0.00    +0.015 C 
ATOM     12  C   LIG    1       24.613 -27.039   6.384  0.00  0.00    +0.002 C 
ATOM     13  C   LIG    1       23.765 -26.015   5.635  0.00  0.00    +0.015 C 
ATOM     14  C   LIG    1       24.625 -25.075   4.785  0.00  0.00    +0.086 C 
ENDBRANCH   7   9
BRANCH   1  15
ATOM     15  C   LIG    1       28.671 -19.712   7.531  0.00  0.00    +0.334 C 
ATOM     16  O   LIG    1       28.917 -19.234   6.433  0.00  0.00    -0.245 OA
BRANCH  15  17
ATOM     17  O   LIG    1       28.956 -19.148   8.732  0.00  0.00    -0.462 OA
BRANCH  17  19
ATOM     18  C   LIG    1       30.200 -17.305   9.646  0.00  0.00    +0.048 C 
ATOM     19  C   LIG    1       30.271 -18.588   8.840  0.00  0.00    +0.229 C 
ENDBRANCH  17  19
ENDBRANCH  15  17
ENDBRANCH   1  15
TORSDOF 4
ENDMDL
MODEL 5
REMARK VINA RESULT:      -5.3      2.207      7.110
REMARK  Name = *****
REMARK                            x       y       z     vdW  Elec       q    Type
REMARK                         _______ _______ _______ _____ _____    ______ ____
ROOT
ATOM      1  C   LIG    1       27.974 -21.180   8.340  0.00  0.00    +0.122 C 
ATOM      2  C   LIG    1       28.981 -20.380   7.949  0.00  0.00    +0.079 C 
ATOM      3  N   LIG    1       29.215 -19.727   6.758  0.00  0.00    -0.267 N 
ATOM      4  C   LIG    1       28.278 -19.607   5.662  0.00  0.00    +0.139 C 
ATOM      5  C   LIG    1       30.449 -19.075   6.644  0.00  0.00    +0.248 C 
ATOM      6  O   LIG    1       30.932 -18.681   5.584  0.00  0.00    -0.273 OA
ATOM      7  C   LIG    1       31.098 -18.842   8.028  0.00  0.00    +0.208 C 
ATOM      8  S   LIG    1       30.277 -20.104   9.073  0.00  0.00    -0.081 S 
ENDROOT
BRANCH   7   9
ATOM      9  N   LIG    1       30.836 -17.448   8.483  0.00  0.00    -0.283 NA
ATOM     10  C   LIG    1       29.910 -17.338   9.622  0.00  0.00    +0.086 C 
ATOM     11  C   LIG    1       30.477 -17.862  10.941  0.00  0.00    +0.015 C 
ATOM     12  C   LIG    1       31.807 -17.202  11.284  0.00  0.00    +0.002 C 
ATOM     13  C   LIG    1       32.762 -17.188  10.094  0.00  0.00    +0.015 C 
ATOM     14  C   LIG    1       32.071 -16.709   8.814  0.00  0.00    +0.086 C 
ENDBRANCH   7   9
BRANCH   1  15
ATOM     15  C   LIG    1       26.823 -21.679   7.585  0.00  0.00    +0.334 C 
ATOM     16  O   LIG    1       26.768 -22.710   6.930  0.00  0.00    -0.245 OA
BRANCH  15  17
ATOM     17  O   LIG    1       25.822 -20.777   7.746  0.00  0.00    -0.462 OA
BRANCH  17  19
ATOM     18  C   LIG    1       23.547 -21.384   7.260  0.00  0.00    +0.048 C 
ATOM     19  C   LIG    1       24.829 -20.786   6.712  0.00  0.00    +0.229 C 
ENDBRANCH  17  19
ENDBRANCH  15  17
ENDBRANCH   1  15
TORSDOF 4
ENDMDL
MODEL 6
REMARK VINA RESULT:      -5.2      2.023      2.823
REMARK  Name = *****
REMARK                            x       y       z     vdW  Elec       q    Type
REMARK                         _______ _______ _______ _____ _____    ______ ____
ROOT
ATOM      1  C   LIG    1       29.226 -19.785   8.229  0.00  0.00    +0.122 C 
ATOM      2  C   LIG    1       28.151 -19.927   7.435  0.00  0.00    +0.079 C 
ATOM      3  N   LIG    1       27.981 -19.711   6.084  0.00  0.00    -0.267 N 
ATOM      4  C   LIG    1       29.037 -19.438   5.133  0.00  0.00    +0.139 C 
ATOM      5  C   LIG    1       26.673 -19.832   5.600  0.00  0.00    +0.248 C 
ATOM      6  O   LIG    1       26.296 -19.419   4.504  0.00  0.00    -0.273 OA
ATOM      7  C   LIG    1       25.774 -20.618   6.582  0.00  0.00    +0.208 C 
ATOM      8  S   LIG    1       26.661 -20.430   8.175  0.00  0.00    -0.081 S 
ENDROOT
BRANCH   7   9
ATOM      9  N   LIG    1       25.661 -22.036   6.142  0.00  0.00    -0.283 NA
ATOM     10  C   LIG    1       25.268 -22.979   7.202  0.00  0.00    +0.086 C 
ATOM     11  C   LIG    1       23.826 -22.815   7.680  0.00  0.00    +0.015 C 
ATOM     12  C   LIG    1       22.837 -22.890   6.523  0.00  0.00    +0.002 C 
ATOM     13  C   LIG    1       23.265 -22.015   5.348  0.00  0.00    +0.015 C 
ATOM     14  C   LIG    1       24.743 -22.212   4.998  0.00  0.00    +0.086 C 
ENDBRANCH   7   9
BRANCH   1  15
ATOM     15  C   LIG    1       30.563 -19.275   7.917  0.00  0.00    +0.334 C 
ATOM     16  O   LIG    1       30.858 -18.125   7.625  0.00  0.00    -0.245 OA
BRANCH  15  17
ATOM     17  O   LIG    1       31.419 -20.323   8.012  0.00  0.00    -0.462 OA
BRANCH  17  19
ATOM     18  C   LIG    1       31.528 -22.536   8.943  0.00  0.00    +0.048 C 
ATOM     19  C   LIG    1       31.336 -21.060   9.238  0.00  0.00    +0.229 C 
ENDBRANCH  17  19
ENDBRANCH  15  17
ENDBRANCH   1  15
TORSDOF 4
ENDMDL
MODEL 7
REMARK VINA RESULT:      -5.2      7.879      9.906
REMARK  Name = *****
REMARK                            x       y       z     vdW  Elec       q    Type
REMARK                         _______ _______ _______ _____ _____    ______ ____
ROOT
ATOM      1  C   LIG    1       25.922 -26.964   7.246  0.00  0.00    +0.122 C 
ATOM      2  C   LIG    1       25.388 -28.197   7.241  0.00  0.00    +0.079 C 
ATOM      3  N   LIG    1       24.679 -28.878   6.275  0.00  0.00    -0.267 N 
ATOM      4  C   LIG    1       24.498 -28.455   4.903  0.00  0.00    +0.139 C 
ATOM      5  C   LIG    1       24.148 -30.116   6.657  0.00  0.00    +0.248 C 
ATOM      6  O   LIG    1       23.281 -30.725   6.032  0.00  0.00    -0.273 OA
ATOM      7  C   LIG    1       24.843 -30.664   7.925  0.00  0.00    +0.208 C 
ATOM      8  S   LIG    1       25.541 -29.150   8.686  0.00  0.00    -0.081 S 
ENDROOT
BRANCH   7   9
ATOM      9  N   LIG    1       25.884 -31.659   7.544  0.00  0.00    -0.283 NA
ATOM     10  C   LIG    1       26.972 -31.814   8.522  0.00  0.00    +0.086 C 
ATOM     11  C   LIG    1       26.546 -32.481   9.830  0.00  0.00    +0.015 C 
ATOM     12  C   LIG    1       25.871 -33.825   9.583  0.00  0.00    +0.002 C 
ATOM     13  C   LIG    1       24.810 -33.739   8.489  0.00  0.00    +0.015 C 
ATOM     14  C   LIG    1       25.325 -32.995   7.254  0.00  0.00    +0.086 C 
ENDBRANCH   7   9
BRANCH   1  15
ATOM     15  C   LIG    1       25.853 -25.906   6.235  0.00  0.00    +0.334 C 
ATOM     16  O   LIG    1       26.301 -25.950   5.098  0.00  0.00    -0.245 OA
BRANCH  15  17
ATOM     17  O   LIG    1       25.197 -24.861   6.799  0.00  0.00    -0.462 OA
BRANCH  17  19
ATOM     18  C   LIG    1       23.310 -23.374   6.723  0.00  0.00    +0.048 C 
ATOM     19  C   LIG    1       23.798 -24.792   6.495  0.00  0.00    +0.229 C 
ENDBRANCH  17  19
ENDBRANCH  15  17
ENDBRANCH   1  15
TORSDOF 4
ENDMDL
MODEL 8
REMARK VINA RESULT:      -5.0      2.310      6.812
REMARK  Name = *****
REMARK                            x       y       z     vdW  Elec       q    Type
REMARK                         _______ _______ _______ _____ _____    ______ ____
ROOT
ATOM      1  C   LIG    1       25.121 -22.442   7.498  0.00  0.00    +0.122 C 
ATOM      2  C   LIG    1       26.050 -21.678   6.900  0.00  0.00    +0.079 C 
ATOM      3  N   LIG    1       25.937 -20.678   5.957  0.00  0.00    -0.267 N 
ATOM      4  C   LIG    1       24.702 -20.072   5.512  0.00  0.00    +0.139 C 
ATOM      5  C   LIG    1       27.140 -20.176   5.445  0.00  0.00    +0.248 C 
ATOM      6  O   LIG    1       27.231 -19.492   4.426  0.00  0.00    -0.273 OA
ATOM      7  C   LIG    1       28.336 -20.523   6.360  0.00  0.00    +0.208 C 
ATOM      8  S   LIG    1       27.716 -21.969   7.300  0.00  0.00    -0.081 S 
ENDROOT
BRANCH   7   9
ATOM      9  N   LIG    1       28.664 -19.359   7.230  0.00  0.00    -0.283 NA
ATOM     10  C   LIG    1       29.149 -19.714   8.573  0.00  0.00    +0.086 C 
ATOM     11  C   LIG    1       30.536 -20.356   8.588  0.00  0.00    +0.015 C 
ATOM     12  C   LIG    1       31.566 -19.488   7.875  0.00  0.00    +0.002 C 
ATOM     13  C   LIG    1       31.060 -18.998   6.521  0.00  0.00    +0.015 C 
ATOM     14  C   LIG    1       29.638 -18.436   6.613  0.00  0.00    +0.086 C 
ENDBRANCH   7   9
BRANCH   1  15
ATOM     15  C   LIG    1       23.674 -22.505   7.280  0.00  0.00    +0.334 C 
ATOM     16  O   LIG    1       22.812 -21.906   7.907  0.00  0.00    -0.245 OA
BRANCH  15  17
ATOM     17  O   LIG    1       23.465 -23.359   6.246  0.00  0.00    -0.462 OA
BRANCH  17  19
ATOM     18  C   LIG    1       24.640 -25.287   5.421  0.00  0.00    +0.048 C 
ATOM     19  C   LIG    1       23.763 -24.732   6.528  0.00  0.00    +0.229 C 
ENDBRANCH  17  19
ENDBRANCH  15  17
ENDBRANCH   1  15
TORSDOF 4
ENDMDL
MODEL 9
REMARK VINA RESULT:      -5.0      2.307      6.388
REMARK  Name = *****
REMARK                            x       y       z     vdW  Elec       q    Type
REMARK                         _______ _______ _______ _____ _____    ______ ____
ROOT
ATOM      1  C   LIG    1       25.603 -21.174   4.874  0.00  0.00    +0.122 C 
ATOM      2  C   LIG    1       26.159 -20.779   6.032  0.00  0.00    +0.079 C 
ATOM      3  N   LIG    1       25.872 -21.109   7.339  0.00  0.00    -0.267 N 
ATOM      4  C   LIG    1       24.972 -22.157   7.768  0.00  0.00    +0.139 C 
ATOM      5  C   LIG    1       26.571 -20.398   8.322  0.00  0.00    +0.248 C 
ATOM      6  O   LIG    1       26.259 -20.366   9.512  0.00  0.00    -0.273 OA
ATOM      7  C   LIG    1       27.833 -19.719   7.742  0.00  0.00    +0.208 C 
ATOM      8  S   LIG    1       27.445 -19.614   5.954  0.00  0.00    -0.081 S 
ENDROOT
BRANCH   7   9
ATOM      9  N   LIG    1       29.035 -20.550   8.030  0.00  0.00    -0.283 NA
ATOM     10  C   LIG    1       29.973 -20.684   6.905  0.00  0.00    +0.086 C 
ATOM     11  C   LIG    1       30.716 -19.395   6.555  0.00  0.00    +0.015 C 
ATOM     12  C   LIG    1       31.435 -18.812   7.766  0.00  0.00    +0.002 C 
ATOM     13  C   LIG    1       30.532 -18.762   8.996  0.00  0.00    +0.015 C 
ATOM     14  C   LIG    1       29.788 -20.083   9.212  0.00  0.00    +0.086 C 
ENDBRANCH   7   9
BRANCH   1  15
ATOM     15  C   LIG    1       24.447 -22.041   4.635  0.00  0.00    +0.334 C 
ATOM     16  O   LIG    1       24.389 -23.250   4.810  0.00  0.00    -0.245 OA
BRANCH  15  17
ATOM     17  O   LIG    1       23.444 -21.248   4.178  0.00  0.00    -0.462 OA
BRANCH  17  19
ATOM     18  C   LIG    1       22.407 -19.177   4.821  0.00  0.00    +0.048 C 
ATOM     19  C   LIG    1       22.655 -20.625   5.199  0.00  0.00    +0.229 C 
ENDBRANCH  17  19
ENDBRANCH  15  17
ENDBRANCH   1  15
TORSDOF 4
ENDMDL
