MODEL 1
REMARK VINA RESULT:      -7.1      0.000      0.000
REMARK  Name = *****
REMARK                            x       y       z     vdW  Elec       q    Type
REMARK                         _______ _______ _______ _____ _____    ______ ____
ROOT
ATOM      1  C   LIG    1       30.029 -21.000   8.154  0.00  0.00    +0.009 A 
ATOM      2  C   LIG    1       28.747 -21.472   7.817  0.00  0.00    +0.039 A 
ATOM      3  C   LIG    1       27.944 -20.876   6.814  0.00  0.00    +0.049 A 
ATOM      4  N   LIG    1       26.644 -21.369   6.474  0.00  0.00    -0.298 N 
ATOM      5  C   LIG    1       25.797 -20.832   5.455  0.00  0.00    +0.048 A 
ATOM      6  C   LIG    1       26.160 -19.693   4.709  0.00  0.00    +0.034 A 
ATOM      7  S   LIG    1       27.696 -18.827   4.898  0.00  0.00    -0.086 S 
ATOM      8  C   LIG    1       25.301 -19.149   3.729  0.00  0.00    +0.017 A 
ATOM      9  C   LIG    1       24.068 -19.724   3.456  0.00  0.00    +0.001 A 
ATOM     10  C   LIG    1       23.692 -20.856   4.155  0.00  0.00    +0.002 A 
ATOM     11  C   LIG    1       24.544 -21.403   5.126  0.00  0.00    +0.024 A 
ATOM     12  C   LIG    1       28.511 -19.760   6.165  0.00  0.00    +0.034 A 
ATOM     13  C   LIG    1       29.798 -19.287   6.505  0.00  0.00    +0.018 A 
ATOM     14  C   LIG    1       30.552 -19.901   7.493  0.00  0.00    +0.016 A 
ENDROOT
BRANCH   1  16
ATOM     15  C   LIG    1       31.924 -22.939   8.394  0.00  0.00    +0.090 C 
ATOM     16  S   LIG    1       30.970 -21.807   9.436  0.00  0.00    -0.129 S 
ENDBRANCH   1  16
BRANCH   4  17
ATOM     17  C   LIG    1       26.117 -22.503   7.275  0.00  0.00    +0.112 C 
BRANCH  17  18
ATOM     18  C   LIG    1       26.229 -23.837   6.510  0.00  0.00    +0.038 C 
BRANCH  18  19
ATOM     19  C   LIG    1       25.416 -24.989   7.159  0.00  0.00    +0.058 C 
ATOM     20  N   LIG    1       24.091 -25.244   6.551  0.00  0.00    -0.302 NA
ATOM     21  C   LIG    1       23.160 -24.128   6.664  0.00  0.00    +0.105 C 
ATOM     22  C   LIG    1       24.163 -25.746   5.175  0.00  0.00    +0.084 C 
ATOM     23  C   LIG    1       24.957 -27.051   5.102  0.00  0.00    +0.015 C 
ATOM     24  C   LIG    1       26.316 -26.936   5.781  0.00  0.00    +0.003 C 
ATOM     25  C   LIG    1       26.168 -26.337   7.176  0.00  0.00    +0.019 C 
ENDBRANCH  18  19
ENDBRANCH  17  18
ENDBRANCH   4  17
TORSDOF 4
ENDMDL
MODEL 2
REMARK VINA RESULT:      -6.9      1.365      4.900
REMARK  Name = *****
REMARK                            x       y       z     vdW  Elec       q    Type
REMARK                         _______ _______ _______ _____ _____    ______ ____
ROOT
ATOM      1  C   LIG    1       24.528 -20.107   4.597  0.00  0.00    +0.009 A 
ATOM      2  C   LIG    1       25.230 -20.808   5.594  0.00  0.00    +0.039 A 
ATOM      3  C   LIG    1       26.572 -20.519   5.942  0.00  0.00    +0.049 A 
ATOM      4  N   LIG    1       27.274 -21.235   6.964  0.00  0.00    -0.298 N 
ATOM      5  C   LIG    1       28.616 -20.974   7.382  0.00  0.00    +0.048 A 
ATOM      6  C   LIG    1       29.412 -19.990   6.760  0.00  0.00    +0.034 A 
ATOM      7  S   LIG    1       28.851 -18.941   5.445  0.00  0.00    -0.086 S 
ATOM      8  C   LIG    1       30.748 -19.765   7.156  0.00  0.00    +0.017 A 
ATOM      9  C   LIG    1       31.327 -20.497   8.183  0.00  0.00    +0.001 A 
ATOM     10  C   LIG    1       30.565 -21.455   8.828  0.00  0.00    +0.002 A 
ATOM     11  C   LIG    1       29.236 -21.679   8.441  0.00  0.00    +0.024 A 
ATOM     12  C   LIG    1       27.176 -19.473   5.215  0.00  0.00    +0.034 A 
ATOM     13  C   LIG    1       26.470 -18.770   4.215  0.00  0.00    +0.018 A 
ATOM     14  C   LIG    1       25.156 -19.084   3.905  0.00  0.00    +0.016 A 
ENDROOT
BRANCH   1  16
ATOM     15  C   LIG    1       22.096 -18.901   4.397  0.00  0.00    +0.090 C 
ATOM     16  S   LIG    1       22.840 -20.542   4.218  0.00  0.00    -0.129 S 
ENDBRANCH   1  16
BRANCH   4  17
ATOM     17  C   LIG    1       26.564 -22.367   7.612  0.00  0.00    +0.112 C 
BRANCH  17  18
ATOM     18  C   LIG    1       26.304 -23.515   6.617  0.00  0.00    +0.038 C 
BRANCH  18  19
ATOM     19  C   LIG    1       25.456 -24.669   7.217  0.00  0.00    +0.058 C 
ATOM     20  N   LIG    1       24.139 -24.880   6.575  0.00  0.00    -0.302 NA
ATOM     21  C   LIG    1       23.228 -23.749   6.701  0.00  0.00    +0.105 C 
ATOM     22  C   LIG    1       24.229 -25.344   5.187  0.00  0.00    +0.084 C 
ATOM     23  C   LIG    1       24.999 -26.662   5.093  0.00  0.00    +0.015 C 
ATOM     24  C   LIG    1       26.346 -26.594   5.802  0.00  0.00    +0.003 C 
ATOM     25  C   LIG    1       26.180 -26.031   7.211  0.00  0.00    +0.019 C 
ENDBRANCH  18  19
ENDBRANCH  17  18
ENDBRANCH   4  17
TORSDOF 4
ENDMDL
MODEL 3
REMARK VINA RESULT:      -6.1      7.143     10.836
REMARK  Name = *****
REMARK                            x       y       z     vdW  Elec       q    Type
REMARK                         _______ _______ _______ _____ _____    ______ ____
ROOT
ATOM      1  C   LIG    1       20.403 -31.239  11.162  0.00  0.00    +0.009 A 
ATOM      2  C   LIG    1       21.722 -31.017  10.727  0.00  0.00    +0.039 A 
ATOM      3  C   LIG    1       22.598 -30.099  11.356  0.00  0.00    +0.049 A 
ATOM      4  N   LIG    1       23.942 -29.886  10.910  0.00  0.00    -0.298 N 
ATOM      5  C   LIG    1       24.883 -28.998  11.517  0.00  0.00    +0.048 A 
ATOM      6  C   LIG    1       24.538 -28.183  12.614  0.00  0.00    +0.034 A 
ATOM      7  S   LIG    1       22.945 -28.187  13.395  0.00  0.00    -0.086 S 
ATOM      8  C   LIG    1       25.465 -27.283  13.184  0.00  0.00    +0.017 A 
ATOM      9  C   LIG    1       26.758 -27.175  12.692  0.00  0.00    +0.001 A 
ATOM     10  C   LIG    1       27.135 -27.977  11.630  0.00  0.00    +0.002 A 
ATOM     11  C   LIG    1       26.219 -28.876  11.064  0.00  0.00    +0.024 A 
ATOM     12  C   LIG    1       22.061 -29.404  12.459  0.00  0.00    +0.034 A 
ATOM     13  C   LIG    1       20.736 -29.628  12.895  0.00  0.00    +0.018 A 
ATOM     14  C   LIG    1       19.911 -30.538  12.250  0.00  0.00    +0.016 A 
ENDROOT
BRANCH   1  16
ATOM     15  C   LIG    1       18.046 -31.276   9.802  0.00  0.00    +0.090 C 
ATOM     16  S   LIG    1       19.365 -32.409  10.305  0.00  0.00    -0.129 S 
ENDBRANCH   1  16
BRANCH   4  17
ATOM     17  C   LIG    1       24.377 -30.616   9.692  0.00  0.00    +0.112 C 
BRANCH  17  18
ATOM     18  C   LIG    1       24.067 -29.816   8.412  0.00  0.00    +0.038 C 
BRANCH  18  19
ATOM     19  C   LIG    1       25.323 -29.529   7.546  0.00  0.00    +0.058 C 
ATOM     20  N   LIG    1       25.238 -29.989   6.142  0.00  0.00    -0.302 NA
ATOM     21  C   LIG    1       25.105 -31.434   5.997  0.00  0.00    +0.105 C 
ATOM     22  C   LIG    1       24.232 -29.275   5.350  0.00  0.00    +0.084 C 
ATOM     23  C   LIG    1       24.514 -27.772   5.321  0.00  0.00    +0.015 C 
ATOM     24  C   LIG    1       24.712 -27.197   6.718  0.00  0.00    +0.003 C 
ATOM     25  C   LIG    1       25.713 -28.036   7.505  0.00  0.00    +0.019 C 
ENDBRANCH  18  19
ENDBRANCH  17  18
ENDBRANCH   4  17
TORSDOF 4
ENDMDL
MODEL 4
REMARK VINA RESULT:      -6.1      5.650      9.658
REMARK  Name = *****
REMARK                            x       y       z     vdW  Elec       q    Type
REMARK                         _______ _______ _______ _____ _____    ______ ____
ROOT
ATOM      1  C   LIG    1       25.418 -26.509   6.485  0.00  0.00    +0.009 A 
ATOM      2  C   LIG    1       25.877 -27.379   7.490  0.00  0.00    +0.039 A 
ATOM      3  C   LIG    1       25.536 -28.753   7.537  0.00  0.00    +0.049 A 
ATOM      4  N   LIG    1       26.015 -29.632   8.560  0.00  0.00    -0.298 N 
ATOM      5  C   LIG    1       25.732 -31.030   8.648  0.00  0.00    +0.048 A 
ATOM      6  C   LIG    1       24.877 -31.676   7.732  0.00  0.00    +0.034 A 
ATOM      7  S   LIG    1       24.099 -30.869   6.357  0.00  0.00    -0.086 S 
ATOM      8  C   LIG    1       24.575 -33.050   7.848  0.00  0.00    +0.017 A 
ATOM      9  C   LIG    1       25.119 -33.822   8.865  0.00  0.00    +0.001 A 
ATOM     10  C   LIG    1       25.980 -33.223   9.768  0.00  0.00    +0.002 A 
ATOM     11  C   LIG    1       26.286 -31.859   9.653  0.00  0.00    +0.024 A 
ATOM     12  C   LIG    1       24.689 -29.204   6.503  0.00  0.00    +0.034 A 
ATOM     13  C   LIG    1       24.229 -28.329   5.495  0.00  0.00    +0.018 A 
ATOM     14  C   LIG    1       24.588 -26.989   5.486  0.00  0.00    +0.016 A 
ENDROOT
BRANCH   1  16
ATOM     15  C   LIG    1       24.236 -24.057   6.516  0.00  0.00    +0.090 C 
ATOM     16  S   LIG    1       25.892 -24.789   6.506  0.00  0.00    -0.129 S 
ENDBRANCH   1  16
BRANCH   4  17
ATOM     17  C   LIG    1       26.839 -29.032   9.640  0.00  0.00    +0.112 C 
BRANCH  17  18
ATOM     18  C   LIG    1       25.968 -28.271  10.660  0.00  0.00    +0.038 C 
BRANCH  18  19
ATOM     19  C   LIG    1       25.794 -29.027  12.005  0.00  0.00    +0.058 C 
ATOM     20  N   LIG    1       25.826 -28.173  13.214  0.00  0.00    -0.302 NA
ATOM     21  C   LIG    1       27.095 -27.488  13.424  0.00  0.00    +0.105 C 
ATOM     22  C   LIG    1       24.693 -27.247  13.309  0.00  0.00    +0.084 C 
ATOM     23  C   LIG    1       23.362 -28.000  13.317  0.00  0.00    +0.015 C 
ATOM     24  C   LIG    1       23.250 -28.983  12.159  0.00  0.00    +0.003 C 
ATOM     25  C   LIG    1       24.497 -29.859  12.079  0.00  0.00    +0.019 C 
ENDBRANCH  18  19
ENDBRANCH  17  18
ENDBRANCH   4  17
TORSDOF 4
ENDMDL
MODEL 5
REMARK VINA RESULT:      -5.8      5.782      9.736
REMARK  Name = *****
REMARK                            x       y       z     vdW  Elec       q    Type
REMARK                         _______ _______ _______ _____ _____    ______ ____
ROOT
ATOM      1  C   LIG    1       25.344 -26.460   6.535  0.00  0.00    +0.009 A 
ATOM      2  C   LIG    1       25.746 -27.327   7.566  0.00  0.00    +0.039 A 
ATOM      3  C   LIG    1       25.467 -28.716   7.559  0.00  0.00    +0.049 A 
ATOM      4  N   LIG    1       25.889 -29.592   8.610  0.00  0.00    -0.298 N 
ATOM      5  C   LIG    1       25.665 -31.003   8.649  0.00  0.00    +0.048 A 
ATOM      6  C   LIG    1       24.933 -31.670   7.646  0.00  0.00    +0.034 A 
ATOM      7  S   LIG    1       24.252 -30.872   6.215  0.00  0.00    -0.086 S 
ATOM      8  C   LIG    1       24.687 -33.058   7.712  0.00  0.00    +0.017 A 
ATOM      9  C   LIG    1       25.168 -33.824   8.765  0.00  0.00    +0.001 A 
ATOM     10  C   LIG    1       25.909 -33.204   9.755  0.00  0.00    +0.002 A 
ATOM     11  C   LIG    1       26.160 -31.825   9.691  0.00  0.00    +0.024 A 
ATOM     12  C   LIG    1       24.746 -29.186   6.442  0.00  0.00    +0.034 A 
ATOM     13  C   LIG    1       24.342 -28.313   5.408  0.00  0.00    +0.018 A 
ATOM     14  C   LIG    1       24.637 -26.958   5.453  0.00  0.00    +0.016 A 
ENDROOT
BRANCH   1  16
ATOM     15  C   LIG    1       24.043 -24.069   6.574  0.00  0.00    +0.090 C 
ATOM     16  S   LIG    1       25.731 -24.721   6.627  0.00  0.00    -0.129 S 
ENDBRANCH   1  16
BRANCH   4  17
ATOM     17  C   LIG    1       26.576 -28.976   9.773  0.00  0.00    +0.112 C 
BRANCH  17  18
ATOM     18  C   LIG    1       25.638 -28.865  10.992  0.00  0.00    +0.038 C 
BRANCH  18  19
ATOM     19  C   LIG    1       26.228 -28.012  12.147  0.00  0.00    +0.058 C 
ATOM     20  N   LIG    1       25.425 -27.996  13.390  0.00  0.00    -0.302 NA
ATOM     21  C   LIG    1       24.101 -27.406  13.235  0.00  0.00    +0.105 C 
ATOM     22  C   LIG    1       25.357 -29.297  14.062  0.00  0.00    +0.084 C 
ATOM     23  C   LIG    1       26.753 -29.805  14.427  0.00  0.00    +0.015 C 
ATOM     24  C   LIG    1       27.703 -29.783  13.236  0.00  0.00    +0.003 C 
ATOM     25  C   LIG    1       27.661 -28.423  12.545  0.00  0.00    +0.019 C 
ENDBRANCH  18  19
ENDBRANCH  17  18
ENDBRANCH   4  17
TORSDOF 4
ENDMDL
MODEL 6
REMARK VINA RESULT:      -5.7      7.780     10.538
REMARK  Name = *****
REMARK                            x       y       z     vdW  Elec       q    Type
REMARK                         _______ _______ _______ _____ _____    ______ ____
ROOT
ATOM      1  C   LIG    1       25.127 -28.086  12.442  0.00  0.00    +0.009 A 
ATOM      2  C   LIG    1       24.677 -29.191  11.697  0.00  0.00    +0.039 A 
ATOM      3  C   LIG    1       23.335 -29.644  11.722  0.00  0.00    +0.049 A 
ATOM      4  N   LIG    1       22.886 -30.765  10.953  0.00  0.00    -0.298 N 
ATOM      5  C   LIG    1       21.543 -31.254  10.912  0.00  0.00    +0.048 A 
ATOM      6  C   LIG    1       20.520 -30.687  11.698  0.00  0.00    +0.034 A 
ATOM      7  S   LIG    1       20.747 -29.299  12.778  0.00  0.00    -0.086 S 
ATOM      8  C   LIG    1       19.204 -31.200  11.677  0.00  0.00    +0.017 A 
ATOM      9  C   LIG    1       18.866 -32.278  10.871  0.00  0.00    +0.001 A 
ATOM     10  C   LIG    1       19.843 -32.842  10.070  0.00  0.00    +0.002 A 
ATOM     11  C   LIG    1       21.150 -32.333  10.084  0.00  0.00    +0.024 A 
ATOM     12  C   LIG    1       22.463 -28.914  12.555  0.00  0.00    +0.034 A 
ATOM     13  C   LIG    1       22.916 -27.805  13.303  0.00  0.00    +0.018 A 
ATOM     14  C   LIG    1       24.240 -27.394  13.249  0.00  0.00    +0.016 A 
ENDROOT
BRANCH   1  16
ATOM     15  C   LIG    1       27.401 -28.781  11.119  0.00  0.00    +0.090 C 
ATOM     16  S   LIG    1       26.837 -27.587  12.357  0.00  0.00    -0.129 S 
ENDBRANCH   1  16
BRANCH   4  17
ATOM     17  C   LIG    1       23.908 -31.505  10.170  0.00  0.00    +0.112 C 
BRANCH  17  18
ATOM     18  C   LIG    1       23.924 -31.057   8.695  0.00  0.00    +0.038 C 
BRANCH  18  19
ATOM     19  C   LIG    1       25.311 -30.546   8.222  0.00  0.00    +0.058 C 
ATOM     20  N   LIG    1       25.844 -31.205   7.009  0.00  0.00    -0.302 NA
ATOM     21  C   LIG    1       26.096 -32.632   7.170  0.00  0.00    +0.105 C 
ATOM     22  C   LIG    1       25.061 -30.932   5.799  0.00  0.00    +0.084 C 
ATOM     23  C   LIG    1       24.995 -29.432   5.511  0.00  0.00    +0.015 C 
ATOM     24  C   LIG    1       24.540 -28.631   6.725  0.00  0.00    +0.003 C 
ATOM     25  C   LIG    1       25.348 -29.026   7.958  0.00  0.00    +0.019 C 
ENDBRANCH  18  19
ENDBRANCH  17  18
ENDBRANCH   4  17
TORSDOF 4
ENDMDL
MODEL 7
REMARK VINA RESULT:      -5.6      5.784     10.149
REMARK  Name = *****
REMARK                            x       y       z     vdW  Elec       q    Type
REMARK                         _______ _______ _______ _____ _____    ______ ____
ROOT
ATOM      1  C   LIG    1       23.594 -32.323   7.535  0.00  0.00    +0.009 A 
ATOM      2  C   LIG    1       24.483 -31.282   7.862  0.00  0.00    +0.039 A 
ATOM      3  C   LIG    1       24.595 -30.744   9.167  0.00  0.00    +0.049 A 
ATOM      4  N   LIG    1       25.508 -29.690   9.490  0.00  0.00    -0.298 N 
ATOM      5  C   LIG    1       25.690 -29.124  10.790  0.00  0.00    +0.048 A 
ATOM      6  C   LIG    1       24.916 -29.532  11.895  0.00  0.00    +0.034 A 
ATOM      7  S   LIG    1       23.679 -30.802  11.830  0.00  0.00    -0.086 S 
ATOM      8  C   LIG    1       25.078 -28.942  13.168  0.00  0.00    +0.017 A 
ATOM      9  C   LIG    1       26.017 -27.943  13.381  0.00  0.00    +0.001 A 
ATOM     10  C   LIG    1       26.808 -27.535  12.322  0.00  0.00    +0.002 A 
ATOM     11  C   LIG    1       26.653 -28.122  11.058  0.00  0.00    +0.024 A 
ATOM     12  C   LIG    1       23.746 -31.318  10.136  0.00  0.00    +0.034 A 
ATOM     13  C   LIG    1       22.855 -32.363   9.806  0.00  0.00    +0.018 A 
ATOM     14  C   LIG    1       22.777 -32.862   8.514  0.00  0.00    +0.016 A 
ENDROOT
BRANCH   1  16
ATOM     15  C   LIG    1       25.146 -32.395   5.300  0.00  0.00    +0.090 C 
ATOM     16  S   LIG    1       23.512 -32.936   5.862  0.00  0.00    -0.129 S 
ENDBRANCH   1  16
BRANCH   4  17
ATOM     17  C   LIG    1       26.298 -29.110   8.375  0.00  0.00    +0.112 C 
BRANCH  17  18
ATOM     18  C   LIG    1       25.588 -27.892   7.751  0.00  0.00    +0.038 C 
BRANCH  18  19
ATOM     19  C   LIG    1       25.979 -27.644   6.270  0.00  0.00    +0.058 C 
ATOM     20  N   LIG    1       24.841 -27.524   5.331  0.00  0.00    -0.302 NA
ATOM     21  C   LIG    1       24.030 -28.731   5.223  0.00  0.00    +0.105 C 
ATOM     22  C   LIG    1       24.010 -26.339   5.563  0.00  0.00    +0.084 C 
ATOM     23  C   LIG    1       24.832 -25.054   5.448  0.00  0.00    +0.015 C 
ATOM     24  C   LIG    1       26.089 -25.097   6.309  0.00  0.00    +0.003 C 
ATOM     25  C   LIG    1       26.859 -26.392   6.068  0.00  0.00    +0.019 C 
ENDBRANCH  18  19
ENDBRANCH  17  18
ENDBRANCH   4  17
TORSDOF 4
ENDMDL
MODEL 8
REMARK VINA RESULT:      -5.5      1.512      2.160
REMARK  Name = *****
REMARK                            x       y       z     vdW  Elec       q    Type
REMARK                         _______ _______ _______ _____ _____    ______ ____
ROOT
ATOM      1  C   LIG    1       29.293 -20.992   7.419  0.00  0.00    +0.009 A 
ATOM      2  C   LIG    1       28.083 -21.691   7.576  0.00  0.00    +0.039 A 
ATOM      3  C   LIG    1       26.910 -21.377   6.846  0.00  0.00    +0.049 A 
ATOM      4  N   LIG    1       25.685 -22.100   7.008  0.00  0.00    -0.298 N 
ATOM      5  C   LIG    1       24.478 -21.853   6.284  0.00  0.00    +0.048 A 
ATOM      6  C   LIG    1       24.370 -20.800   5.352  0.00  0.00    +0.034 A 
ATOM      7  S   LIG    1       25.698 -19.702   4.934  0.00  0.00    -0.086 S 
ATOM      8  C   LIG    1       23.162 -20.542   4.668  0.00  0.00    +0.017 A 
ATOM      9  C   LIG    1       22.036 -21.325   4.878  0.00  0.00    +0.001 A 
ATOM     10  C   LIG    1       22.115 -22.380   5.769  0.00  0.00    +0.002 A 
ATOM     11  C   LIG    1       23.314 -22.642   6.448  0.00  0.00    +0.024 A 
ATOM     12  C   LIG    1       27.027 -20.303   5.941  0.00  0.00    +0.034 A 
ATOM     13  C   LIG    1       28.243 -19.602   5.784  0.00  0.00    +0.018 A 
ATOM     14  C   LIG    1       29.369 -19.942   6.519  0.00  0.00    +0.016 A 
ENDROOT
BRANCH   1  16
ATOM     15  C   LIG    1       31.327 -19.787   8.768  0.00  0.00    +0.090 C 
ATOM     16  S   LIG    1       30.721 -21.450   8.386  0.00  0.00    -0.129 S 
ENDBRANCH   1  16
BRANCH   4  17
ATOM     17  C   LIG    1       25.655 -23.163   8.045  0.00  0.00    +0.112 C 
BRANCH  17  18
ATOM     18  C   LIG    1       25.005 -24.455   7.512  0.00  0.00    +0.038 C 
BRANCH  18  19
ATOM     19  C   LIG    1       25.960 -25.308   6.634  0.00  0.00    +0.058 C 
ATOM     20  N   LIG    1       25.994 -26.751   6.961  0.00  0.00    -0.302 NA
ATOM     21  C   LIG    1       26.486 -27.044   8.302  0.00  0.00    +0.105 C 
ATOM     22  C   LIG    1       24.732 -27.445   6.689  0.00  0.00    +0.084 C 
ATOM     23  C   LIG    1       24.339 -27.321   5.216  0.00  0.00    +0.015 C 
ATOM     24  C   LIG    1       24.356 -25.875   4.735  0.00  0.00    +0.003 C 
ATOM     25  C   LIG    1       25.668 -25.199   5.123  0.00  0.00    +0.019 C 
ENDBRANCH  18  19
ENDBRANCH  17  18
ENDBRANCH   4  17
TORSDOF 4
ENDMDL
MODEL 9
REMARK VINA RESULT:      -5.4      6.407      9.954
REMARK  Name = *****
REMARK                            x       y       z     vdW  Elec       q    Type
REMARK                         _______ _______ _______ _____ _____    ______ ____
ROOT
ATOM      1  C   LIG    1       24.828 -32.818  10.152  0.00  0.00    +0.009 A 
ATOM      2  C   LIG    1       25.453 -31.569   9.984  0.00  0.00    +0.039 A 
ATOM      3  C   LIG    1       25.199 -30.722   8.878  0.00  0.00    +0.049 A 
ATOM      4  N   LIG    1       25.835 -29.449   8.720  0.00  0.00    -0.298 N 
ATOM      5  C   LIG    1       25.602 -28.536   7.645  0.00  0.00    +0.048 A 
ATOM      6  C   LIG    1       24.735 -28.848   6.578  0.00  0.00    +0.034 A 
ATOM      7  S   LIG    1       23.808 -30.355   6.456  0.00  0.00    -0.086 S 
ATOM      8  C   LIG    1       24.539 -27.954   5.502  0.00  0.00    +0.017 A 
ATOM      9  C   LIG    1       25.185 -26.726   5.462  0.00  0.00    +0.001 A 
ATOM     10  C   LIG    1       26.025 -26.381   6.505  0.00  0.00    +0.002 A 
ATOM     11  C   LIG    1       26.219 -27.264   7.577  0.00  0.00    +0.024 A 
ATOM     12  C   LIG    1       24.272 -31.213   7.936  0.00  0.00    +0.034 A 
ATOM     13  C   LIG    1       23.646 -32.467   8.106  0.00  0.00    +0.018 A 
ATOM     14  C   LIG    1       23.922 -33.266   9.206  0.00  0.00    +0.016 A 
ENDROOT
BRANCH   1  16
ATOM     15  C   LIG    1       24.986 -32.570  12.858  0.00  0.00    +0.090 C 
ATOM     16  S   LIG    1       25.212 -33.825  11.573  0.00  0.00    -0.129 S 
ENDBRANCH   1  16
BRANCH   4  17
ATOM     17  C   LIG    1       26.850 -29.066   9.734  0.00  0.00    +0.112 C 
BRANCH  17  18
ATOM     18  C   LIG    1       26.240 -28.184  10.841  0.00  0.00    +0.038 C 
BRANCH  18  19
ATOM     19  C   LIG    1       25.854 -28.978  12.118  0.00  0.00    +0.058 C 
ATOM     20  N   LIG    1       26.759 -28.788  13.274  0.00  0.00    -0.302 NA
ATOM     21  C   LIG    1       28.123 -29.248  13.043  0.00  0.00    +0.105 C 
ATOM     22  C   LIG    1       26.737 -27.428  13.821  0.00  0.00    +0.084 C 
ATOM     23  C   LIG    1       25.330 -27.036  14.274  0.00  0.00    +0.015 C 
ATOM     24  C   LIG    1       24.288 -27.274  13.188  0.00  0.00    +0.003 C 
ATOM     25  C   LIG    1       24.424 -28.682  12.616  0.00  0.00    +0.019 C 
ENDBRANCH  18  19
ENDBRANCH  17  18
ENDBRANCH   4  17
TORSDOF 4
ENDMDL
