MODEL 1
REMARK VINA RESULT:       2.2      0.000      0.000
REMARK  Name = *****
REMARK                            x       y       z     vdW  Elec       q    Type
REMARK                         _______ _______ _______ _____ _____    ______ ____
ROOT
ATOM      1  C   LIG    1       22.557 -18.648   3.573  0.00  0.00    +0.045 C 
ATOM      2  C   LIG    1       23.944 -18.974   4.021  0.00  0.00    -0.038 C 
ATOM      3  C   LIG    1       25.017 -17.968   4.092  0.00  0.00    -0.014 C 
ATOM      4  C   LIG    1       24.869 -16.704   3.658  0.00  0.00    +0.016 C 
ATOM      5  C   LIG    1       26.199 -18.641   4.654  0.00  0.00    -0.010 A 
ATOM      6  C   LIG    1       25.824 -19.991   4.823  0.00  0.00    -0.011 A 
ATOM      7  C   LIG    1       26.726 -20.925   5.314  0.00  0.00    +0.047 A 
ATOM      8  C   LIG    1       27.996 -20.477   5.671  0.00  0.00    +0.124 A 
ATOM      9  C   LIG    1       28.367 -19.136   5.534  0.00  0.00    +0.039 A 
ATOM     10  F   LIG    1       28.881 -21.353   6.166  0.00  0.00    -0.205 F 
ATOM     11  C   LIG    1       27.465 -18.204   5.011  0.00  0.00    +0.012 A 
ATOM     12  C   LIG    1       24.420 -20.176   4.417  0.00  0.00    -0.025 C 
ENDROOT
BRANCH   4  13
ATOM     13  C   LIG    1       25.843 -15.614   3.623  0.00  0.00    -0.024 A 
ATOM     14  C   LIG    1       26.155 -14.921   4.797  0.00  0.00    +0.009 A 
ATOM     15  C   LIG    1       27.180 -13.971   4.799  0.00  0.00    +0.017 A 
ATOM     16  C   LIG    1       27.905 -13.708   3.632  0.00  0.00    +0.039 A 
ATOM     17  C   LIG    1       27.571 -14.382   2.452  0.00  0.00    +0.017 A 
ATOM     18  C   LIG    1       26.547 -15.335   2.448  0.00  0.00    +0.009 A 
BRANCH  16  19
ATOM     19  S   LIG    1       29.256 -12.505   3.631  0.00  0.00    +0.051 S 
ATOM     20  C   LIG    1       28.963 -11.820   5.283  0.00  0.00    +0.127 C 
ATOM     21  O   LIG    1       28.869 -11.449   2.637  0.00  0.00    -0.252 OA
ENDBRANCH  16  19
ENDBRANCH   4  13
BRANCH  12  22
ATOM     22  C   LIG    1       23.703 -21.486   4.488  0.00  0.00    +0.156 C 
BRANCH  22  23
ATOM     23  C   LIG    1       22.515 -21.516   5.447  0.00  0.00    +0.309 C 
ATOM     24  O   LIG    1       22.654 -21.572   6.663  0.00  0.00    -0.251 OA
BRANCH  23  25
ATOM     25  O   LIG    1       21.290 -21.554   4.871  0.00  0.00    -0.480 OA
ATOM     26  H   LIG    1       20.562 -21.871   5.455  0.00  0.00    +0.295 HD
ENDBRANCH  23  25
ENDBRANCH  22  23
ENDBRANCH  12  22
TORSDOF 5
ENDMDL
MODEL 2
REMARK VINA RESULT:       3.5      3.774      8.280
REMARK  Name = *****
REMARK                            x       y       z     vdW  Elec       q    Type
REMARK                         _______ _______ _______ _____ _____    ______ ____
ROOT
ATOM      1  C   LIG    1       28.782 -16.679   4.394  0.00  0.00    +0.045 C 
ATOM      2  C   LIG    1       27.598 -15.852   4.010  0.00  0.00    -0.038 C 
ATOM      3  C   LIG    1       26.243 -16.414   3.875  0.00  0.00    -0.014 C 
ATOM      4  C   LIG    1       25.979 -17.727   3.976  0.00  0.00    +0.016 C 
ATOM      5  C   LIG    1       25.343 -15.289   3.575  0.00  0.00    -0.010 A 
ATOM      6  C   LIG    1       26.172 -14.152   3.475  0.00  0.00    -0.011 A 
ATOM      7  C   LIG    1       25.640 -12.907   3.169  0.00  0.00    +0.047 A 
ATOM      8  C   LIG    1       24.260 -12.812   3.004  0.00  0.00    +0.124 A 
ATOM      9  C   LIG    1       23.427 -13.927   3.131  0.00  0.00    +0.039 A 
ATOM     10  F   LIG    1       23.717 -11.618   2.726  0.00  0.00    -0.205 F 
ATOM     11  C   LIG    1       23.969 -15.186   3.410  0.00  0.00    +0.012 A 
ATOM     12  C   LIG    1       27.571 -14.528   3.743  0.00  0.00    -0.025 C 
ENDROOT
BRANCH   4  13
ATOM     13  C   LIG    1       24.707 -18.434   3.825  0.00  0.00    -0.024 A 
ATOM     14  C   LIG    1       24.623 -19.546   2.982  0.00  0.00    +0.009 A 
ATOM     15  C   LIG    1       23.451 -20.306   2.937  0.00  0.00    +0.017 A 
ATOM     16  C   LIG    1       22.355 -19.964   3.735  0.00  0.00    +0.039 A 
ATOM     17  C   LIG    1       22.431 -18.833   4.556  0.00  0.00    +0.017 A 
ATOM     18  C   LIG    1       23.604 -18.074   4.605  0.00  0.00    +0.009 A 
BRANCH  16  19
ATOM     19  S   LIG    1       20.844 -20.960   3.710  0.00  0.00    +0.051 S 
ATOM     20  C   LIG    1       19.660 -19.589   3.633  0.00  0.00    +0.127 C 
ATOM     21  O   LIG    1       20.728 -21.571   5.075  0.00  0.00    -0.252 OA
ENDBRANCH  16  19
ENDBRANCH   4  13
BRANCH  12  22
ATOM     22  C   LIG    1       28.706 -13.554   3.734  0.00  0.00    +0.156 C 
BRANCH  22  23
ATOM     23  C   LIG    1       28.714 -12.568   4.899  0.00  0.00    +0.309 C 
ATOM     24  O   LIG    1       28.042 -12.738   5.909  0.00  0.00    -0.251 OA
BRANCH  23  25
ATOM     25  O   LIG    1       29.454 -11.447   4.721  0.00  0.00    -0.480 OA
ATOM     26  H   LIG    1       29.131 -10.840   4.016  0.00  0.00    +0.295 HD
ENDBRANCH  23  25
ENDBRANCH  22  23
ENDBRANCH  12  22
TORSDOF 5
ENDMDL
MODEL 3
REMARK VINA RESULT:       3.9      3.738      8.198
REMARK  Name = *****
REMARK                            x       y       z     vdW  Elec       q    Type
REMARK                         _______ _______ _______ _____ _____    ______ ____
ROOT
ATOM      1  C   LIG    1       28.851 -16.531   4.084  0.00  0.00    +0.045 C 
ATOM      2  C   LIG    1       27.592 -15.756   3.870  0.00  0.00    -0.038 C 
ATOM      3  C   LIG    1       26.258 -16.380   3.888  0.00  0.00    -0.014 C 
ATOM      4  C   LIG    1       26.069 -17.706   3.988  0.00  0.00    +0.016 C 
ATOM      5  C   LIG    1       25.277 -15.295   3.729  0.00  0.00    -0.010 A 
ATOM      6  C   LIG    1       26.035 -14.117   3.556  0.00  0.00    -0.011 A 
ATOM      7  C   LIG    1       25.413 -12.894   3.348  0.00  0.00    +0.047 A 
ATOM      8  C   LIG    1       24.020 -12.862   3.357  0.00  0.00    +0.124 A 
ATOM      9  C   LIG    1       23.261 -14.019   3.558  0.00  0.00    +0.039 A 
ATOM     10  F   LIG    1       23.393 -11.692   3.177  0.00  0.00    -0.205 F 
ATOM     11  C   LIG    1       23.891 -15.255   3.737  0.00  0.00    +0.012 A 
ATOM     12  C   LIG    1       27.472 -14.429   3.640  0.00  0.00    -0.025 C 
ENDROOT
BRANCH   4  13
ATOM     13  C   LIG    1       24.822 -18.471   3.978  0.00  0.00    -0.024 A 
ATOM     14  C   LIG    1       23.633 -17.869   4.402  0.00  0.00    +0.009 A 
ATOM     15  C   LIG    1       22.417 -18.545   4.269  0.00  0.00    +0.017 A 
ATOM     16  C   LIG    1       22.378 -19.826   3.707  0.00  0.00    +0.039 A 
ATOM     17  C   LIG    1       23.573 -20.437   3.310  0.00  0.00    +0.017 A 
ATOM     18  C   LIG    1       24.790 -19.760   3.441  0.00  0.00    +0.009 A 
BRANCH  16  19
ATOM     19  S   LIG    1       20.807 -20.699   3.498  0.00  0.00    +0.051 S 
ATOM     20  C   LIG    1       19.721 -19.251   3.576  0.00  0.00    +0.127 C 
ATOM     21  O   LIG    1       20.597 -21.480   4.763  0.00  0.00    -0.252 OA
ENDBRANCH  16  19
ENDBRANCH   4  13
BRANCH  12  22
ATOM     22  C   LIG    1       28.552 -13.402   3.516  0.00  0.00    +0.156 C 
BRANCH  22  23
ATOM     23  C   LIG    1       28.697 -12.476   4.721  0.00  0.00    +0.309 C 
ATOM     24  O   LIG    1       29.474 -11.530   4.733  0.00  0.00    -0.251 OA
BRANCH  23  25
ATOM     25  O   LIG    1       27.966 -12.807   5.813  0.00  0.00    -0.480 OA
ATOM     26  H   LIG    1       27.096 -13.228   5.622  0.00  0.00    +0.295 HD
ENDBRANCH  23  25
ENDBRANCH  22  23
ENDBRANCH  12  22
TORSDOF 5
ENDMDL
