MODEL 1
REMARK VINA RESULT:      -8.5      0.000      0.000
REMARK  Name = *****
REMARK                            x       y       z     vdW  Elec       q    Type
REMARK                         _______ _______ _______ _____ _____    ______ ____
ROOT
ATOM      1  C   LIG    1       25.782 -27.644   7.147  0.00  0.00    -0.024 A 
ATOM      2  C   LIG    1       25.058 -28.714   6.604  0.00  0.00    +0.044 A 
ATOM      3 CL   LIG    1       24.526 -28.735   4.961  0.00  0.00    -0.083 Cl
ATOM      4  C   LIG    1       24.736 -29.826   7.391  0.00  0.00    +0.021 A 
ATOM      5  C   LIG    1       25.125 -29.887   8.731  0.00  0.00    +0.010 A 
ATOM      6  C   LIG    1       25.848 -28.837   9.313  0.00  0.00    +0.014 A 
ATOM      7  C   LIG    1       26.170 -27.729   8.502  0.00  0.00    +0.014 A 
ENDROOT
BRANCH   6   8
ATOM      8  C   LIG    1       26.260 -28.887  10.775  0.00  0.00    +0.227 C 
ATOM      9  C   LIG    1       27.185 -30.097  11.152  0.00  0.00    +0.209 C 
ATOM     10  C   LIG    1       28.216 -29.646  12.206  0.00  0.00    +0.180 C 
ATOM     11  C   LIG    1       27.552 -28.735  13.273  0.00  0.00    +0.182 C 
ATOM     12  C   LIG    1       26.664 -27.641  12.595  0.00  0.00    +0.147 C 
ATOM     13  C   LIG    1       25.179 -27.969  12.570  0.00  0.00    +0.203 C 
ATOM     14  O   LIG    1       26.930 -27.671  11.175  0.00  0.00    -0.329 OA
ATOM     15  O   LIG    1       25.064 -29.015  11.592  0.00  0.00    -0.340 OA
BRANCH   9  16
ATOM     16  O   LIG    1       26.422 -31.197  11.697  0.00  0.00    -0.383 OA
ATOM     17  H   LIG    1       26.831 -31.411  12.562  0.00  0.00    +0.210 HD
ENDBRANCH   9  16
BRANCH  10  18
ATOM     18  O   LIG    1       29.301 -28.964  11.561  0.00  0.00    -0.386 OA
ATOM     19  H   LIG    1       30.123 -29.201  12.038  0.00  0.00    +0.210 HD
ENDBRANCH  10  18
BRANCH  11  20
ATOM     20  O   LIG    1       26.788 -29.501  14.214  0.00  0.00    -0.386 OA
ATOM     21  H   LIG    1       25.845 -29.442  13.963  0.00  0.00    +0.210 HD
ENDBRANCH  11  20
BRANCH  12  22
ATOM     22  C   LIG    1       26.925 -26.242  13.160  0.00  0.00    +0.196 C 
BRANCH  22  23
ATOM     23  O   LIG    1       28.084 -26.244  13.995  0.00  0.00    -0.392 OA
ATOM     24  H   LIG    1       28.317 -27.173  14.166  0.00  0.00    +0.209 HD
ENDBRANCH  22  23
ENDBRANCH  12  22
ENDBRANCH   6   8
BRANCH   1  25
ATOM     25  C   LIG    1       26.206 -26.434   6.330  0.00  0.00    +0.071 C 
BRANCH  25  29
ATOM     26  C   LIG    1       23.867 -22.855   7.049  0.00  0.00    +0.120 A 
ATOM     27  C   LIG    1       23.249 -24.024   6.609  0.00  0.00    +0.046 A 
ATOM     28  C   LIG    1       23.999 -25.178   6.360  0.00  0.00    +0.007 A 
ATOM     29  C   LIG    1       25.389 -25.182   6.570  0.00  0.00    -0.043 A 
ATOM     30  C   LIG    1       26.001 -24.001   6.988  0.00  0.00    +0.007 A 
ATOM     31  C   LIG    1       25.251 -22.850   7.236  0.00  0.00    +0.046 A 
BRANCH  26  32
ATOM     32  O   LIG    1       23.035 -21.800   7.306  0.00  0.00    -0.492 OA
BRANCH  32  34
ATOM     33  C   LIG    1       22.710 -20.275   5.491  0.00  0.00    +0.048 C 
ATOM     34  C   LIG    1       23.447 -20.534   6.792  0.00  0.00    +0.226 C 
ENDBRANCH  32  34
ENDBRANCH  26  32
ENDBRANCH  25  29
ENDBRANCH   1  25
TORSDOF 10
ENDMDL
MODEL 2
REMARK VINA RESULT:      -8.2      1.061      1.911
REMARK  Name = *****
REMARK                            x       y       z     vdW  Elec       q    Type
REMARK                         _______ _______ _______ _____ _____    ______ ____
ROOT
ATOM      1  C   LIG    1       25.754 -27.854   7.179  0.00  0.00    -0.024 A 
ATOM      2  C   LIG    1       24.920 -28.773   6.528  0.00  0.00    +0.044 A 
ATOM      3 CL   LIG    1       24.388 -28.550   4.899  0.00  0.00    -0.083 Cl
ATOM      4  C   LIG    1       24.482 -29.927   7.187  0.00  0.00    +0.021 A 
ATOM      5  C   LIG    1       24.863 -30.181   8.507  0.00  0.00    +0.010 A 
ATOM      6  C   LIG    1       25.693 -29.286   9.195  0.00  0.00    +0.014 A 
ATOM      7  C   LIG    1       26.131 -28.133   8.511  0.00  0.00    +0.014 A 
ENDROOT
BRANCH   6   8
ATOM      8  C   LIG    1       26.098 -29.546  10.636  0.00  0.00    +0.227 C 
ATOM      9  C   LIG    1       27.439 -28.858  11.072  0.00  0.00    +0.209 C 
ATOM     10  C   LIG    1       27.324 -28.390  12.537  0.00  0.00    +0.180 C 
ATOM     11  C   LIG    1       26.611 -29.462  13.405  0.00  0.00    +0.182 C 
ATOM     12  C   LIG    1       25.320 -29.985  12.694  0.00  0.00    +0.147 C 
ATOM     13  C   LIG    1       25.499 -31.309  11.967  0.00  0.00    +0.203 C 
ATOM     14  O   LIG    1       25.063 -29.130  11.557  0.00  0.00    -0.329 OA
ATOM     15  O   LIG    1       26.292 -30.976  10.816  0.00  0.00    -0.340 OA
BRANCH   9  16
ATOM     16  O   LIG    1       28.559 -29.767  10.968  0.00  0.00    -0.383 OA
ATOM     17  H   LIG    1       28.646 -30.194  11.846  0.00  0.00    +0.210 HD
ENDBRANCH   9  16
BRANCH  10  18
ATOM     18  O   LIG    1       26.618 -27.142  12.592  0.00  0.00    -0.386 OA
ATOM     19  H   LIG    1       25.844 -27.214  11.997  0.00  0.00    +0.210 HD
ENDBRANCH  10  18
BRANCH  11  20
ATOM     20  O   LIG    1       27.492 -30.547  13.725  0.00  0.00    -0.386 OA
ATOM     21  H   LIG    1       28.385 -30.182  13.883  0.00  0.00    +0.210 HD
ENDBRANCH  11  20
BRANCH  12  22
ATOM     22  C   LIG    1       24.108 -30.012  13.628  0.00  0.00    +0.196 C 
BRANCH  22  23
ATOM     23  O   LIG    1       24.523 -30.096  14.992  0.00  0.00    -0.392 OA
ATOM     24  H   LIG    1       24.438 -31.026  15.264  0.00  0.00    +0.209 HD
ENDBRANCH  22  23
ENDBRANCH  12  22
ENDBRANCH   6   8
BRANCH   1  25
ATOM     25  C   LIG    1       26.304 -26.611   6.499  0.00  0.00    +0.071 C 
BRANCH  25  29
ATOM     26  C   LIG    1       23.858 -23.060   6.958  0.00  0.00    +0.120 A 
ATOM     27  C   LIG    1       23.278 -24.272   6.588  0.00  0.00    +0.046 A 
ATOM     28  C   LIG    1       24.063 -25.418   6.423  0.00  0.00    +0.007 A 
ATOM     29  C   LIG    1       25.449 -25.369   6.648  0.00  0.00    -0.043 A 
ATOM     30  C   LIG    1       26.024 -24.147   6.995  0.00  0.00    +0.007 A 
ATOM     31  C   LIG    1       25.238 -23.004   7.159  0.00  0.00    +0.046 A 
BRANCH  26  32
ATOM     32  O   LIG    1       22.994 -22.015   7.137  0.00  0.00    -0.492 OA
BRANCH  32  34
ATOM     33  C   LIG    1       22.879 -20.097   5.711  0.00  0.00    +0.048 C 
ATOM     34  C   LIG    1       23.535 -20.710   6.934  0.00  0.00    +0.226 C 
ENDBRANCH  32  34
ENDBRANCH  26  32
ENDBRANCH  25  29
ENDBRANCH   1  25
TORSDOF 10
ENDMDL
MODEL 3
REMARK VINA RESULT:      -8.0      2.888      4.600
REMARK  Name = *****
REMARK                            x       y       z     vdW  Elec       q    Type
REMARK                         _______ _______ _______ _____ _____    ______ ____
ROOT
ATOM      1  C   LIG    1       24.177 -25.792   6.045  0.00  0.00    -0.024 A 
ATOM      2  C   LIG    1       24.915 -25.660   4.861  0.00  0.00    +0.044 A 
ATOM      3 CL   LIG    1       24.992 -24.178   3.978  0.00  0.00    -0.083 Cl
ATOM      4  C   LIG    1       25.630 -26.746   4.343  0.00  0.00    +0.021 A 
ATOM      5  C   LIG    1       25.617 -27.982   4.994  0.00  0.00    +0.010 A 
ATOM      6  C   LIG    1       24.890 -28.158   6.179  0.00  0.00    +0.014 A 
ATOM      7  C   LIG    1       24.182 -27.049   6.689  0.00  0.00    +0.014 A 
ENDROOT
BRANCH   6   8
ATOM      8  C   LIG    1       24.856 -29.503   6.884  0.00  0.00    +0.227 C 
ATOM      9  C   LIG    1       24.699 -30.738   5.928  0.00  0.00    +0.209 C 
ATOM     10  C   LIG    1       25.530 -31.918   6.472  0.00  0.00    +0.180 C 
ATOM     11  C   LIG    1       25.388 -32.028   8.014  0.00  0.00    +0.182 C 
ATOM     12  C   LIG    1       25.562 -30.629   8.691  0.00  0.00    +0.147 C 
ATOM     13  C   LIG    1       24.254 -29.940   9.047  0.00  0.00    +0.203 C 
ATOM     14  O   LIG    1       26.042 -29.708   7.686  0.00  0.00    -0.329 OA
ATOM     15  O   LIG    1       23.712 -29.531   7.781  0.00  0.00    -0.340 OA
BRANCH   9  16
ATOM     16  O   LIG    1       23.320 -31.157   5.826  0.00  0.00    -0.383 OA
ATOM     17  H   LIG    1       23.193 -31.850   6.508  0.00  0.00    +0.210 HD
ENDBRANCH   9  16
BRANCH  10  18
ATOM     18  O   LIG    1       26.906 -31.753   6.101  0.00  0.00    -0.386 OA
ATOM     19  H   LIG    1       27.202 -32.591   5.688  0.00  0.00    +0.210 HD
ENDBRANCH  10  18
BRANCH  11  20
ATOM     20  O   LIG    1       24.135 -32.620   8.383  0.00  0.00    -0.386 OA
ATOM     21  H   LIG    1       24.086 -33.511   7.985  0.00  0.00    +0.210 HD
ENDBRANCH  11  20
BRANCH  12  22
ATOM     22  C   LIG    1       26.523 -30.671   9.882  0.00  0.00    +0.196 C 
BRANCH  22  23
ATOM     23  O   LIG    1       27.588 -29.737   9.704  0.00  0.00    -0.392 OA
ATOM     24  H   LIG    1       27.901 -29.481  10.589  0.00  0.00    +0.209 HD
ENDBRANCH  22  23
ENDBRANCH  12  22
ENDBRANCH   6   8
BRANCH   1  25
ATOM     25  C   LIG    1       23.424 -24.637   6.683  0.00  0.00    +0.071 C 
BRANCH  25  29
ATOM     26  C   LIG    1       25.869 -21.196   7.675  0.00  0.00    +0.120 A 
ATOM     27  C   LIG    1       26.418 -22.477   7.684  0.00  0.00    +0.046 A 
ATOM     28  C   LIG    1       25.633 -23.593   7.380  0.00  0.00    +0.007 A 
ATOM     29  C   LIG    1       24.277 -23.438   7.041  0.00  0.00    -0.043 A 
ATOM     30  C   LIG    1       23.731 -22.155   7.059  0.00  0.00    +0.007 A 
ATOM     31  C   LIG    1       24.517 -21.041   7.362  0.00  0.00    +0.046 A 
BRANCH  26  32
ATOM     32  O   LIG    1       26.736 -20.172   7.942  0.00  0.00    -0.492 OA
BRANCH  32  34
ATOM     33  C   LIG    1       27.975 -19.909   5.911  0.00  0.00    +0.048 C 
ATOM     34  C   LIG    1       28.042 -20.291   7.378  0.00  0.00    +0.226 C 
ENDBRANCH  32  34
ENDBRANCH  26  32
ENDBRANCH  25  29
ENDBRANCH   1  25
TORSDOF 10
ENDMDL
MODEL 4
REMARK VINA RESULT:      -8.0      5.797      9.055
REMARK  Name = *****
REMARK                            x       y       z     vdW  Elec       q    Type
REMARK                         _______ _______ _______ _____ _____    ______ ____
ROOT
ATOM      1  C   LIG    1       25.950 -20.694   6.736  0.00  0.00    -0.024 A 
ATOM      2  C   LIG    1       25.959 -20.283   5.396  0.00  0.00    +0.044 A 
ATOM      3 CL   LIG    1       24.645 -20.603   4.321  0.00  0.00    -0.083 Cl
ATOM      4  C   LIG    1       27.053 -19.585   4.872  0.00  0.00    +0.021 A 
ATOM      5  C   LIG    1       28.158 -19.290   5.673  0.00  0.00    +0.010 A 
ATOM      6  C   LIG    1       28.192 -19.685   7.018  0.00  0.00    +0.014 A 
ATOM      7  C   LIG    1       27.076 -20.380   7.529  0.00  0.00    +0.014 A 
ENDROOT
BRANCH   6   8
ATOM      8  C   LIG    1       29.397 -19.383   7.892  0.00  0.00    +0.227 C 
ATOM      9  C   LIG    1       30.537 -20.459   7.827  0.00  0.00    +0.209 C 
ATOM     10  C   LIG    1       31.909 -19.761   7.916  0.00  0.00    +0.180 C 
ATOM     11  C   LIG    1       31.884 -18.630   8.979  0.00  0.00    +0.182 C 
ATOM     12  C   LIG    1       30.611 -17.737   8.812  0.00  0.00    +0.147 C 
ATOM     13  C   LIG    1       29.479 -18.078   9.769  0.00  0.00    +0.203 C 
ATOM     14  O   LIG    1       29.976 -18.099   7.565  0.00  0.00    -0.329 OA
ATOM     15  O   LIG    1       28.965 -19.327   9.279  0.00  0.00    -0.340 OA
BRANCH   9  16
ATOM     16  O   LIG    1       30.434 -21.407   8.913  0.00  0.00    -0.383 OA
ATOM     17  H   LIG    1       30.384 -20.876   9.735  0.00  0.00    +0.210 HD
ENDBRANCH   9  16
BRANCH  10  18
ATOM     18  O   LIG    1       32.272 -19.239   6.629  0.00  0.00    -0.386 OA
ATOM     19  H   LIG    1       31.443 -19.013   6.159  0.00  0.00    +0.210 HD
ENDBRANCH  10  18
BRANCH  11  20
ATOM     20  O   LIG    1       31.964 -19.160  10.309  0.00  0.00    -0.386 OA
ATOM     21  H   LIG    1       32.652 -18.665  10.796  0.00  0.00    +0.210 HD
ENDBRANCH  11  20
BRANCH  12  22
ATOM     22  C   LIG    1       30.939 -16.242   8.832  0.00  0.00    +0.196 C 
BRANCH  22  23
ATOM     23  O   LIG    1       32.352 -16.035   8.837  0.00  0.00    -0.392 OA
ATOM     24  H   LIG    1       32.737 -16.647   8.186  0.00  0.00    +0.209 HD
ENDBRANCH  22  23
ENDBRANCH  12  22
ENDBRANCH   6   8
BRANCH   1  25
ATOM     25  C   LIG    1       24.771 -21.408   7.374  0.00  0.00    +0.071 C 
BRANCH  25  29
ATOM     26  C   LIG    1       24.434 -25.609   6.354  0.00  0.00    +0.120 A 
ATOM     27  C   LIG    1       23.293 -24.816   6.460  0.00  0.00    +0.046 A 
ATOM     28  C   LIG    1       23.393 -23.464   6.803  0.00  0.00    +0.007 A 
ATOM     29  C   LIG    1       24.650 -22.878   7.029  0.00  0.00    -0.043 A 
ATOM     30  C   LIG    1       25.784 -23.686   6.945  0.00  0.00    +0.007 A 
ATOM     31  C   LIG    1       25.683 -25.035   6.602  0.00  0.00    +0.046 A 
BRANCH  26  32
ATOM     32  O   LIG    1       24.228 -26.905   5.968  0.00  0.00    -0.492 OA
BRANCH  32  34
ATOM     33  C   LIG    1       25.075 -29.076   5.425  0.00  0.00    +0.048 C 
ATOM     34  C   LIG    1       25.354 -27.584   5.415  0.00  0.00    +0.226 C 
ENDBRANCH  32  34
ENDBRANCH  26  32
ENDBRANCH  25  29
ENDBRANCH   1  25
TORSDOF 10
ENDMDL
MODEL 5
REMARK VINA RESULT:      -7.9      5.982      9.722
REMARK  Name = *****
REMARK                            x       y       z     vdW  Elec       q    Type
REMARK                         _______ _______ _______ _____ _____    ______ ____
ROOT
ATOM      1  C   LIG    1       28.788 -20.286   7.031  0.00  0.00    -0.024 A 
ATOM      2  C   LIG    1       28.822 -19.318   6.018  0.00  0.00    +0.044 A 
ATOM      3 CL   LIG    1       30.166 -18.255   5.798  0.00  0.00    -0.083 Cl
ATOM      4  C   LIG    1       27.748 -19.178   5.133  0.00  0.00    +0.021 A 
ATOM      5  C   LIG    1       26.621 -19.995   5.245  0.00  0.00    +0.010 A 
ATOM      6  C   LIG    1       26.545 -20.974   6.245  0.00  0.00    +0.014 A 
ATOM      7  C   LIG    1       27.641 -21.105   7.123  0.00  0.00    +0.014 A 
ENDROOT
BRANCH   6   8
ATOM      8  C   LIG    1       25.316 -21.855   6.385  0.00  0.00    +0.227 C 
ATOM      9  C   LIG    1       23.962 -21.073   6.511  0.00  0.00    +0.209 C 
ATOM     10  C   LIG    1       22.851 -21.846   5.770  0.00  0.00    +0.180 C 
ATOM     11  C   LIG    1       22.966 -23.371   6.041  0.00  0.00    +0.182 C 
ATOM     12  C   LIG    1       24.443 -23.856   5.870  0.00  0.00    +0.147 C 
ATOM     13  C   LIG    1       25.210 -23.999   7.176  0.00  0.00    +0.203 C 
ATOM     14  O   LIG    1       25.199 -22.776   5.277  0.00  0.00    -0.329 OA
ATOM     15  O   LIG    1       25.446 -22.647   7.598  0.00  0.00    -0.340 OA
BRANCH   9  16
ATOM     16  O   LIG    1       23.567 -20.914   7.892  0.00  0.00    -0.383 OA
ATOM     17  H   LIG    1       22.601 -21.076   7.921  0.00  0.00    +0.210 HD
ENDBRANCH   9  16
BRANCH  10  18
ATOM     18  O   LIG    1       22.926 -21.574   4.364  0.00  0.00    -0.386 OA
ATOM     19  H   LIG    1       22.872 -22.431   3.894  0.00  0.00    +0.210 HD
ENDBRANCH  10  18
BRANCH  11  20
ATOM     20  O   LIG    1       22.466 -23.712   7.341  0.00  0.00    -0.386 OA
ATOM     21  H   LIG    1       22.908 -23.142   8.000  0.00  0.00    +0.210 HD
ENDBRANCH  11  20
BRANCH  12  22
ATOM     22  C   LIG    1       24.548 -25.118   5.010  0.00  0.00    +0.196 C 
BRANCH  22  23
ATOM     23  O   LIG    1       23.598 -26.097   5.432  0.00  0.00    -0.392 OA
ATOM     24  H   LIG    1       23.982 -26.564   6.194  0.00  0.00    +0.209 HD
ENDBRANCH  22  23
ENDBRANCH  12  22
ENDBRANCH   6   8
BRANCH   1  25
ATOM     25  C   LIG    1       29.944 -20.521   7.989  0.00  0.00    +0.071 C 
BRANCH  25  29
ATOM     26  C   LIG    1       31.425 -16.943   9.940  0.00  0.00    +0.120 A 
ATOM     27  C   LIG    1       32.288 -17.752   9.203  0.00  0.00    +0.046 A 
ATOM     28  C   LIG    1       31.821 -18.916   8.584  0.00  0.00    +0.007 A 
ATOM     29  C   LIG    1       30.466 -19.278   8.679  0.00  0.00    -0.043 A 
ATOM     30  C   LIG    1       29.616 -18.475   9.440  0.00  0.00    +0.007 A 
ATOM     31  C   LIG    1       30.084 -17.314  10.057  0.00  0.00    +0.046 A 
BRANCH  26  32
ATOM     32  O   LIG    1       31.975 -15.806  10.465  0.00  0.00    -0.492 OA
BRANCH  32  34
ATOM     33  C   LIG    1       32.188 -16.039  12.837  0.00  0.00    +0.048 C 
ATOM     34  C   LIG    1       32.927 -15.992  11.512  0.00  0.00    +0.226 C 
ENDBRANCH  32  34
ENDBRANCH  26  32
ENDBRANCH  25  29
ENDBRANCH   1  25
TORSDOF 10
ENDMDL
MODEL 6
REMARK VINA RESULT:      -7.9      1.094      1.816
REMARK  Name = *****
REMARK                            x       y       z     vdW  Elec       q    Type
REMARK                         _______ _______ _______ _____ _____    ______ ____
ROOT
ATOM      1  C   LIG    1       25.753 -27.677   7.067  0.00  0.00    -0.024 A 
ATOM      2  C   LIG    1       25.023 -28.679   6.412  0.00  0.00    +0.044 A 
ATOM      3 CL   LIG    1       24.578 -28.562   4.747  0.00  0.00    -0.083 Cl
ATOM      4  C   LIG    1       24.624 -29.832   7.097  0.00  0.00    +0.021 A 
ATOM      5  C   LIG    1       24.940 -30.003   8.447  0.00  0.00    +0.010 A 
ATOM      6  C   LIG    1       25.666 -29.025   9.140  0.00  0.00    +0.014 A 
ATOM      7  C   LIG    1       26.066 -27.873   8.430  0.00  0.00    +0.014 A 
ENDROOT
BRANCH   6   8
ATOM      8  C   LIG    1       25.999 -29.194  10.612  0.00  0.00    +0.227 C 
ATOM      9  C   LIG    1       24.922 -29.980  11.439  0.00  0.00    +0.209 C 
ATOM     10  C   LIG    1       25.624 -30.853  12.499  0.00  0.00    +0.180 C 
ATOM     11  C   LIG    1       26.791 -30.078  13.167  0.00  0.00    +0.182 C 
ATOM     12  C   LIG    1       27.677 -29.369  12.090  0.00  0.00    +0.147 C 
ATOM     13  C   LIG    1       27.369 -27.892  11.901  0.00  0.00    +0.203 C 
ATOM     14  O   LIG    1       27.271 -29.858  10.792  0.00  0.00    -0.329 OA
ATOM     15  O   LIG    1       26.103 -27.878  11.222  0.00  0.00    -0.340 OA
BRANCH   9  16
ATOM     16  O   LIG    1       24.012 -29.082  12.115  0.00  0.00    -0.383 OA
ATOM     17  H   LIG    1       24.528 -28.661  12.834  0.00  0.00    +0.210 HD
ENDBRANCH   9  16
BRANCH  10  18
ATOM     18  O   LIG    1       26.101 -32.063  11.893  0.00  0.00    -0.386 OA
ATOM     19  H   LIG    1       25.402 -32.383  11.286  0.00  0.00    +0.210 HD
ENDBRANCH  10  18
BRANCH  11  20
ATOM     20  O   LIG    1       26.309 -29.132  14.132  0.00  0.00    -0.386 OA
ATOM     21  H   LIG    1       26.687 -28.257  13.919  0.00  0.00    +0.210 HD
ENDBRANCH  11  20
BRANCH  12  22
ATOM     22  C   LIG    1       29.172 -29.613  12.310  0.00  0.00    +0.196 C 
BRANCH  22  23
ATOM     23  O   LIG    1       29.409 -30.160  13.608  0.00  0.00    -0.392 OA
ATOM     24  H   LIG    1       30.269 -29.822  13.913  0.00  0.00    +0.209 HD
ENDBRANCH  22  23
ENDBRANCH  12  22
ENDBRANCH   6   8
BRANCH   1  25
ATOM     25  C   LIG    1       26.259 -26.429   6.363  0.00  0.00    +0.071 C 
BRANCH  25  29
ATOM     26  C   LIG    1       23.871 -22.874   7.042  0.00  0.00    +0.120 A 
ATOM     27  C   LIG    1       23.269 -24.057   6.618  0.00  0.00    +0.046 A 
ATOM     28  C   LIG    1       24.034 -25.203   6.382  0.00  0.00    +0.007 A 
ATOM     29  C   LIG    1       25.424 -25.185   6.589  0.00  0.00    -0.043 A 
ATOM     30  C   LIG    1       26.021 -23.990   6.990  0.00  0.00    +0.007 A 
ATOM     31  C   LIG    1       25.255 -22.846   7.225  0.00  0.00    +0.046 A 
BRANCH  26  32
ATOM     32  O   LIG    1       23.025 -21.827   7.287  0.00  0.00    -0.492 OA
BRANCH  32  34
ATOM     33  C   LIG    1       22.607 -20.523   5.324  0.00  0.00    +0.048 C 
ATOM     34  C   LIG    1       23.348 -20.593   6.647  0.00  0.00    +0.226 C 
ENDBRANCH  32  34
ENDBRANCH  26  32
ENDBRANCH  25  29
ENDBRANCH   1  25
TORSDOF 10
ENDMDL
MODEL 7
REMARK VINA RESULT:      -7.8      3.369      5.364
REMARK  Name = *****
REMARK                            x       y       z     vdW  Elec       q    Type
REMARK                         _______ _______ _______ _____ _____    ______ ____
ROOT
ATOM      1  C   LIG    1       24.199 -25.846   6.019  0.00  0.00    -0.024 A 
ATOM      2  C   LIG    1       24.906 -25.674   4.821  0.00  0.00    +0.044 A 
ATOM      3 CL   LIG    1       24.917 -24.177   3.958  0.00  0.00    -0.083 Cl
ATOM      4  C   LIG    1       25.642 -26.730   4.272  0.00  0.00    +0.021 A 
ATOM      5  C   LIG    1       25.682 -27.975   4.904  0.00  0.00    +0.010 A 
ATOM      6  C   LIG    1       24.987 -28.189   6.102  0.00  0.00    +0.014 A 
ATOM      7  C   LIG    1       24.257 -27.111   6.644  0.00  0.00    +0.014 A 
ENDROOT
BRANCH   6   8
ATOM      8  C   LIG    1       25.010 -29.545   6.788  0.00  0.00    +0.227 C 
ATOM      9  C   LIG    1       25.231 -29.489   8.340  0.00  0.00    +0.209 C 
ATOM     10  C   LIG    1       24.395 -30.593   9.018  0.00  0.00    +0.180 C 
ATOM     11  C   LIG    1       24.469 -31.916   8.209  0.00  0.00    +0.182 C 
ATOM     12  C   LIG    1       24.241 -31.650   6.685  0.00  0.00    +0.147 C 
ATOM     13  C   LIG    1       25.520 -31.576   5.865  0.00  0.00    +0.203 C 
ATOM     14  O   LIG    1       23.793 -30.283   6.536  0.00  0.00    -0.329 OA
ATOM     15  O   LIG    1       26.113 -30.323   6.245  0.00  0.00    -0.340 OA
BRANCH   9  16
ATOM     16  O   LIG    1       26.621 -29.688   8.686  0.00  0.00    -0.383 OA
ATOM     17  H   LIG    1       27.032 -30.135   7.917  0.00  0.00    +0.210 HD
ENDBRANCH   9  16
BRANCH  10  18
ATOM     18  O   LIG    1       23.035 -30.157   9.155  0.00  0.00    -0.386 OA
ATOM     19  H   LIG    1       22.542 -30.869   9.612  0.00  0.00    +0.210 HD
ENDBRANCH  10  18
BRANCH  11  20
ATOM     20  O   LIG    1       25.713 -32.595   8.427  0.00  0.00    -0.386 OA
ATOM     21  H   LIG    1       25.930 -33.105   7.622  0.00  0.00    +0.210 HD
ENDBRANCH  11  20
BRANCH  12  22
ATOM     22  C   LIG    1       23.227 -32.616   6.067  0.00  0.00    +0.196 C 
BRANCH  22  23
ATOM     23  O   LIG    1       23.544 -32.873   4.699  0.00  0.00    -0.392 OA
ATOM     24  H   LIG    1       23.964 -32.071   4.343  0.00  0.00    +0.209 HD
ENDBRANCH  22  23
ENDBRANCH  12  22
ENDBRANCH   6   8
BRANCH   1  25
ATOM     25  C   LIG    1       23.425 -24.723   6.690  0.00  0.00    +0.071 C 
BRANCH  25  29
ATOM     26  C   LIG    1       25.775 -21.204   7.637  0.00  0.00    +0.120 A 
ATOM     27  C   LIG    1       26.362 -22.468   7.653  0.00  0.00    +0.046 A 
ATOM     28  C   LIG    1       25.607 -23.609   7.364  0.00  0.00    +0.007 A 
ATOM     29  C   LIG    1       24.245 -23.497   7.032  0.00  0.00    -0.043 A 
ATOM     30  C   LIG    1       23.662 -22.230   7.043  0.00  0.00    +0.007 A 
ATOM     31  C   LIG    1       24.417 -21.092   7.332  0.00  0.00    +0.046 A 
BRANCH  26  32
ATOM     32  O   LIG    1       26.614 -20.154   7.889  0.00  0.00    -0.492 OA
BRANCH  32  34
ATOM     33  C   LIG    1       28.174 -19.864   6.098  0.00  0.00    +0.048 C 
ATOM     34  C   LIG    1       27.982 -20.339   7.527  0.00  0.00    +0.226 C 
ENDBRANCH  32  34
ENDBRANCH  26  32
ENDBRANCH  25  29
ENDBRANCH   1  25
TORSDOF 10
ENDMDL
MODEL 8
REMARK VINA RESULT:      -7.8      2.201      2.931
REMARK  Name = *****
REMARK                            x       y       z     vdW  Elec       q    Type
REMARK                         _______ _______ _______ _____ _____    ______ ____
ROOT
ATOM      1  C   LIG    1       25.657 -27.270   6.552  0.00  0.00    -0.024 A 
ATOM      2  C   LIG    1       25.243 -27.674   5.275  0.00  0.00    +0.044 A 
ATOM      3 CL   LIG    1       25.465 -26.688   3.875  0.00  0.00    -0.083 Cl
ATOM      4  C   LIG    1       24.623 -28.914   5.088  0.00  0.00    +0.021 A 
ATOM      5  C   LIG    1       24.402 -29.770   6.169  0.00  0.00    +0.010 A 
ATOM      6  C   LIG    1       24.798 -29.405   7.463  0.00  0.00    +0.014 A 
ATOM      7  C   LIG    1       25.428 -28.154   7.630  0.00  0.00    +0.014 A 
ENDROOT
BRANCH   6   8
ATOM      8  C   LIG    1       24.546 -30.322   8.647  0.00  0.00    +0.227 C 
ATOM      9  C   LIG    1       25.230 -31.730   8.541  0.00  0.00    +0.209 C 
ATOM     10  C   LIG    1       25.708 -32.176   9.938  0.00  0.00    +0.180 C 
ATOM     11  C   LIG    1       24.644 -31.840  11.018  0.00  0.00    +0.182 C 
ATOM     12  C   LIG    1       24.122 -30.375  10.849  0.00  0.00    +0.147 C 
ATOM     13  C   LIG    1       22.793 -30.265  10.117  0.00  0.00    +0.203 C 
ATOM     14  O   LIG    1       24.971 -29.711   9.886  0.00  0.00    -0.329 OA
ATOM     15  O   LIG    1       23.116 -30.567   8.750  0.00  0.00    -0.340 OA
BRANCH   9  16
ATOM     16  O   LIG    1       24.316 -32.726   8.029  0.00  0.00    -0.383 OA
ATOM     17  H   LIG    1       23.562 -32.752   8.655  0.00  0.00    +0.210 HD
ENDBRANCH   9  16
BRANCH  10  18
ATOM     18  O   LIG    1       26.959 -31.545  10.246  0.00  0.00    -0.386 OA
ATOM     19  H   LIG    1       27.514 -31.583   9.440  0.00  0.00    +0.210 HD
ENDBRANCH  10  18
BRANCH  11  20
ATOM     20  O   LIG    1       23.556 -32.774  10.990  0.00  0.00    -0.386 OA
ATOM     21  H   LIG    1       23.091 -32.731  11.849  0.00  0.00    +0.210 HD
ENDBRANCH  11  20
BRANCH  12  22
ATOM     22  C   LIG    1       24.106 -29.604  12.172  0.00  0.00    +0.196 C 
BRANCH  22  23
ATOM     23  O   LIG    1       25.041 -28.526  12.138  0.00  0.00    -0.392 OA
ATOM     24  H   LIG    1       24.802 -27.912  12.854  0.00  0.00    +0.209 HD
ENDBRANCH  22  23
ENDBRANCH  12  22
ENDBRANCH   6   8
BRANCH   1  25
ATOM     25  C   LIG    1       26.381 -25.960   6.811  0.00  0.00    +0.071 C 
BRANCH  25  29
ATOM     26  C   LIG    1       23.824 -22.465   7.034  0.00  0.00    +0.120 A 
ATOM     27  C   LIG    1       23.293 -23.705   6.685  0.00  0.00    +0.046 A 
ATOM     28  C   LIG    1       24.114 -24.834   6.595  0.00  0.00    +0.007 A 
ATOM     29  C   LIG    1       25.488 -24.738   6.877  0.00  0.00    -0.043 A 
ATOM     30  C   LIG    1       26.014 -23.488   7.203  0.00  0.00    +0.007 A 
ATOM     31  C   LIG    1       25.192 -22.362   7.291  0.00  0.00    +0.046 A 
BRANCH  26  32
ATOM     32  O   LIG    1       22.926 -21.438   7.137  0.00  0.00    -0.492 OA
BRANCH  32  34
ATOM     33  C   LIG    1       22.331 -20.594   4.979  0.00  0.00    +0.048 C 
ATOM     34  C   LIG    1       23.122 -20.339   6.249  0.00  0.00    +0.226 C 
ENDBRANCH  32  34
ENDBRANCH  26  32
ENDBRANCH  25  29
ENDBRANCH   1  25
TORSDOF 10
ENDMDL
MODEL 9
REMARK VINA RESULT:      -7.7      5.124      8.707
REMARK  Name = *****
REMARK                            x       y       z     vdW  Elec       q    Type
REMARK                         _______ _______ _______ _____ _____    ______ ____
ROOT
ATOM      1  C   LIG    1       25.671 -21.598   6.725  0.00  0.00    -0.024 A 
ATOM      2  C   LIG    1       25.294 -20.958   5.537  0.00  0.00    +0.044 A 
ATOM      3 CL   LIG    1       23.812 -21.314   4.723  0.00  0.00    -0.083 Cl
ATOM      4  C   LIG    1       26.120 -19.988   4.959  0.00  0.00    +0.021 A 
ATOM      5  C   LIG    1       27.337 -19.645   5.551  0.00  0.00    +0.010 A 
ATOM      6  C   LIG    1       27.753 -20.263   6.738  0.00  0.00    +0.014 A 
ATOM      7  C   LIG    1       26.903 -21.232   7.310  0.00  0.00    +0.014 A 
ENDROOT
BRANCH   6   8
ATOM      8  C   LIG    1       29.084 -19.908   7.380  0.00  0.00    +0.227 C 
ATOM      9  C   LIG    1       29.279 -18.380   7.677  0.00  0.00    +0.209 C 
ATOM     10  C   LIG    1       30.057 -18.209   8.998  0.00  0.00    +0.180 C 
ATOM     11  C   LIG    1       31.217 -19.236   9.093  0.00  0.00    +0.182 C 
ATOM     12  C   LIG    1       30.724 -20.669   8.708  0.00  0.00    +0.147 C 
ATOM     13  C   LIG    1       31.047 -21.078   7.279  0.00  0.00    +0.203 C 
ATOM     14  O   LIG    1       29.282 -20.632   8.616  0.00  0.00    -0.329 OA
ATOM     15  O   LIG    1       30.156 -20.291   6.474  0.00  0.00    -0.340 OA
BRANCH   9  16
ATOM     16  O   LIG    1       30.019 -17.726   6.622  0.00  0.00    -0.383 OA
ATOM     17  H   LIG    1       29.450 -16.995   6.301  0.00  0.00    +0.210 HD
ENDBRANCH   9  16
BRANCH  10  18
ATOM     18  O   LIG    1       29.161 -18.352  10.109  0.00  0.00    -0.386 OA
ATOM     19  H   LIG    1       29.378 -19.196  10.556  0.00  0.00    +0.210 HD
ENDBRANCH  10  18
BRANCH  11  20
ATOM     20  O   LIG    1       32.331 -18.844   8.279  0.00  0.00    -0.386 OA
ATOM     21  H   LIG    1       31.989 -18.549   7.413  0.00  0.00    +0.210 HD
ENDBRANCH  11  20
BRANCH  12  22
ATOM     22  C   LIG    1       31.170 -21.731   9.716  0.00  0.00    +0.196 C 
BRANCH  22  23
ATOM     23  O   LIG    1       31.624 -22.906   9.043  0.00  0.00    -0.392 OA
ATOM     24  H   LIG    1       31.802 -22.661   8.119  0.00  0.00    +0.209 HD
ENDBRANCH  22  23
ENDBRANCH  12  22
ENDBRANCH   6   8
BRANCH   1  25
ATOM     25  C   LIG    1       24.793 -22.620   7.428  0.00  0.00    +0.071 C 
BRANCH  25  29
ATOM     26  C   LIG    1       25.077 -26.642   5.832  0.00  0.00    +0.120 A 
ATOM     27  C   LIG    1       23.851 -25.980   5.861  0.00  0.00    +0.046 A 
ATOM     28  C   LIG    1       23.748 -24.690   6.388  0.00  0.00    +0.007 A 
ATOM     29  C   LIG    1       24.888 -24.030   6.880  0.00  0.00    -0.043 A 
ATOM     30  C   LIG    1       26.106 -24.709   6.870  0.00  0.00    +0.007 A 
ATOM     31  C   LIG    1       26.206 -25.998   6.343  0.00  0.00    +0.046 A 
BRANCH  26  32
ATOM     32  O   LIG    1       25.074 -27.881   5.253  0.00  0.00    -0.492 OA
BRANCH  32  34
ATOM     33  C   LIG    1       24.646 -29.194   7.208  0.00  0.00    +0.048 C 
ATOM     34  C   LIG    1       24.170 -28.835   5.812  0.00  0.00    +0.226 C 
ENDBRANCH  32  34
ENDBRANCH  26  32
ENDBRANCH  25  29
ENDBRANCH   1  25
TORSDOF 10
ENDMDL
