MODEL 1
REMARK VINA RESULT:      -8.0      0.000      0.000
REMARK  Name = *****
REMARK                            x       y       z     vdW  Elec       q    Type
REMARK                         _______ _______ _______ _____ _____    ______ ____
ROOT
ATOM      1  C   LIG    1       24.024 -22.295   6.958  0.00  0.00    +0.144 C 
ATOM      2  C   LIG    1       25.299 -22.739   6.690  0.00  0.00    +0.014 C 
ENDROOT
BRANCH   2   3
ATOM      3  C   LIG    1       26.537 -21.892   6.603  0.00  0.00    -0.016 A 
ATOM      4  C   LIG    1       27.588 -21.990   7.515  0.00  0.00    +0.012 A 
ATOM      5  C   LIG    1       28.683 -21.127   7.471  0.00  0.00    +0.046 A 
ATOM      6  C   LIG    1       28.732 -20.086   6.552  0.00  0.00    +0.120 A 
ATOM      7  C   LIG    1       27.665 -19.918   5.676  0.00  0.00    +0.046 A 
ATOM      8  C   LIG    1       26.597 -20.827   5.682  0.00  0.00    +0.012 A 
BRANCH   6   9
ATOM      9  O   LIG    1       29.763 -19.196   6.427  0.00  0.00    -0.495 OA
ATOM     10  C   LIG    1       30.890 -19.441   7.265  0.00  0.00    +0.277 C 
ENDBRANCH   6   9
ENDBRANCH   2   3
BRANCH   2  11
ATOM     11  C   LIG    1       25.461 -24.226   6.360  0.00  0.00    -0.016 A 
ATOM     12  C   LIG    1       25.224 -24.710   5.064  0.00  0.00    +0.008 A 
ATOM     13  C   LIG    1       25.379 -26.072   4.765  0.00  0.00    +0.001 A 
ATOM     14  C   LIG    1       25.767 -26.970   5.756  0.00  0.00    +0.000 A 
ATOM     15  C   LIG    1       25.997 -26.508   7.051  0.00  0.00    +0.001 A 
ATOM     16  C   LIG    1       25.846 -25.146   7.353  0.00  0.00    +0.008 A 
ENDBRANCH   2  11
BRANCH   1  17
ATOM     17  C   LIG    1       23.536 -20.910   7.222  0.00  0.00    +0.350 C 
ATOM     18  O   LIG    1       23.818 -20.222   8.157  0.00  0.00    -0.244 OA
BRANCH  17  19
ATOM     19  O   LIG    1       22.635 -20.554   6.249  0.00  0.00    -0.460 OA
BRANCH  19  20
ATOM     20  C   LIG    1       23.118 -20.489   4.896  0.00  0.00    +0.236 C 
BRANCH  20  21
ATOM     21  C   LIG    1       23.441 -19.022   4.544  0.00  0.00    +0.026 C 
BRANCH  21  22
ATOM     22  C   LIG    1       22.178 -18.167   4.354  0.00  0.00    +0.003 C 
ATOM     23  C   LIG    1       22.244 -16.726   4.823  0.00  0.00    +0.004 C 
ENDBRANCH  21  22
BRANCH  21  24
ATOM     24  C   LIG    1       24.390 -18.931   3.313  0.00  0.00    +0.007 C 
BRANCH  24  25
ATOM     25  C   LIG    1       25.689 -18.110   3.463  0.00  0.00    +0.000 C 
BRANCH  25  27
ATOM     26  C   LIG    1       26.852 -15.857   3.542  0.00  0.00    +0.004 C 
ATOM     27  C   LIG    1       25.567 -16.607   3.224  0.00  0.00    -0.003 C 
ENDBRANCH  25  27
ENDBRANCH  24  25
ENDBRANCH  21  24
ENDBRANCH  20  21
ENDBRANCH  19  20
ENDBRANCH  17  19
ENDBRANCH   1  17
BRANCH   1  28
ATOM     28  C   LIG    1       22.998 -23.241   6.784  0.00  0.00    +0.107 C 
ATOM     29  N   LIG    1       22.158 -24.015   6.641  0.00  0.00    -0.191 NA
ENDBRANCH   1  28
TORSDOF 12
ENDMDL
MODEL 2
REMARK VINA RESULT:      -7.2      1.934      6.742
REMARK  Name = *****
REMARK                            x       y       z     vdW  Elec       q    Type
REMARK                         _______ _______ _______ _____ _____    ______ ____
ROOT
ATOM      1  C   LIG    1       25.191 -22.364   6.726  0.00  0.00    +0.144 C 
ATOM      2  C   LIG    1       25.605 -21.150   6.228  0.00  0.00    +0.014 C 
ENDROOT
BRANCH   2   3
ATOM      3  C   LIG    1       26.942 -20.504   6.452  0.00  0.00    -0.016 A 
ATOM      4  C   LIG    1       27.491 -20.320   7.720  0.00  0.00    +0.012 A 
ATOM      5  C   LIG    1       28.689 -19.631   7.910  0.00  0.00    +0.046 A 
ATOM      6  C   LIG    1       29.348 -19.040   6.839  0.00  0.00    +0.120 A 
ATOM      7  C   LIG    1       28.787 -19.145   5.571  0.00  0.00    +0.046 A 
ATOM      8  C   LIG    1       27.617 -19.893   5.376  0.00  0.00    +0.012 A 
BRANCH   6   9
ATOM      9  O   LIG    1       30.528 -18.353   6.924  0.00  0.00    -0.495 OA
ATOM     10  C   LIG    1       31.445 -18.829   7.906  0.00  0.00    +0.277 C 
ENDBRANCH   6   9
ENDBRANCH   2   3
BRANCH   2  11
ATOM     11  C   LIG    1       24.572 -20.335   5.442  0.00  0.00    -0.016 A 
ATOM     12  C   LIG    1       24.799 -19.974   4.104  0.00  0.00    +0.008 A 
ATOM     13  C   LIG    1       23.848 -19.234   3.388  0.00  0.00    +0.001 A 
ATOM     14  C   LIG    1       22.659 -18.838   3.997  0.00  0.00    +0.000 A 
ATOM     15  C   LIG    1       22.422 -19.179   5.327  0.00  0.00    +0.001 A 
ATOM     16  C   LIG    1       23.369 -19.923   6.046  0.00  0.00    +0.008 A 
ENDBRANCH   2  11
BRANCH   1  17
ATOM     17  C   LIG    1       25.922 -23.334   7.592  0.00  0.00    +0.350 C 
ATOM     18  O   LIG    1       26.226 -23.178   8.737  0.00  0.00    -0.244 OA
BRANCH  17  19
ATOM     19  O   LIG    1       26.270 -24.435   6.848  0.00  0.00    -0.460 OA
BRANCH  19  20
ATOM     20  C   LIG    1       25.355 -25.545   6.848  0.00  0.00    +0.236 C 
BRANCH  20  21
ATOM     21  C   LIG    1       26.144 -26.849   6.602  0.00  0.00    +0.026 C 
BRANCH  21  22
ATOM     22  C   LIG    1       26.369 -27.133   5.109  0.00  0.00    +0.003 C 
ATOM     23  C   LIG    1       25.501 -26.373   4.124  0.00  0.00    +0.004 C 
ENDBRANCH  21  22
BRANCH  21  24
ATOM     24  C   LIG    1       25.479 -28.057   7.326  0.00  0.00    +0.007 C 
BRANCH  24  25
ATOM     25  C   LIG    1       24.433 -28.880   6.543  0.00  0.00    +0.000 C 
BRANCH  25  27
ATOM     26  C   LIG    1       25.556 -30.773   5.283  0.00  0.00    +0.004 C 
ATOM     27  C   LIG    1       24.681 -30.385   6.465  0.00  0.00    -0.003 C 
ENDBRANCH  25  27
ENDBRANCH  24  25
ENDBRANCH  21  24
ENDBRANCH  20  21
ENDBRANCH  19  20
ENDBRANCH  17  19
ENDBRANCH   1  17
BRANCH   1  28
ATOM     28  C   LIG    1       23.828 -22.664   6.554  0.00  0.00    +0.107 C 
ATOM     29  N   LIG    1       22.712 -22.910   6.413  0.00  0.00    -0.191 NA
ENDBRANCH   1  28
TORSDOF 12
ENDMDL
MODEL 3
REMARK VINA RESULT:      -6.7      0.770      1.781
REMARK  Name = *****
REMARK                            x       y       z     vdW  Elec       q    Type
REMARK                         _______ _______ _______ _____ _____    ______ ____
ROOT
ATOM      1  C   LIG    1       23.998 -22.334   7.121  0.00  0.00    +0.144 C 
ATOM      2  C   LIG    1       25.285 -22.732   6.838  0.00  0.00    +0.014 C 
ENDROOT
BRANCH   2   3
ATOM      3  C   LIG    1       26.504 -21.854   6.821  0.00  0.00    -0.016 A 
ATOM      4  C   LIG    1       27.384 -21.760   7.898  0.00  0.00    +0.012 A 
ATOM      5  C   LIG    1       28.455 -20.865   7.897  0.00  0.00    +0.046 A 
ATOM      6  C   LIG    1       28.644 -19.983   6.841  0.00  0.00    +0.120 A 
ATOM      7  C   LIG    1       27.740 -20.004   5.784  0.00  0.00    +0.046 A 
ATOM      8  C   LIG    1       26.703 -20.948   5.761  0.00  0.00    +0.012 A 
BRANCH   6   9
ATOM      9  O   LIG    1       29.665 -19.078   6.745  0.00  0.00    -0.495 OA
ATOM     10  C   LIG    1       30.969 -19.596   6.998  0.00  0.00    +0.277 C 
ENDBRANCH   6   9
ENDBRANCH   2   3
BRANCH   2  11
ATOM     11  C   LIG    1       25.482 -24.190   6.412  0.00  0.00    -0.016 A 
ATOM     12  C   LIG    1       25.913 -25.161   7.330  0.00  0.00    +0.008 A 
ATOM     13  C   LIG    1       26.086 -26.496   6.937  0.00  0.00    +0.001 A 
ATOM     14  C   LIG    1       25.837 -26.880   5.622  0.00  0.00    +0.000 A 
ATOM     15  C   LIG    1       25.419 -25.927   4.695  0.00  0.00    +0.001 A 
ATOM     16  C   LIG    1       25.241 -24.591   5.085  0.00  0.00    +0.008 A 
ENDBRANCH   2  11
BRANCH   1  17
ATOM     17  C   LIG    1       23.477 -20.981   7.471  0.00  0.00    +0.350 C 
ATOM     18  O   LIG    1       23.469 -20.480   8.555  0.00  0.00    -0.244 OA
BRANCH  17  19
ATOM     19  O   LIG    1       22.925 -20.404   6.353  0.00  0.00    -0.460 OA
BRANCH  19  20
ATOM     20  C   LIG    1       23.807 -19.663   5.492  0.00  0.00    +0.236 C 
BRANCH  20  21
ATOM     21  C   LIG    1       23.033 -19.229   4.229  0.00  0.00    +0.026 C 
BRANCH  21  22
ATOM     22  C   LIG    1       23.962 -18.834   3.072  0.00  0.00    +0.003 C 
ATOM     23  C   LIG    1       25.388 -18.459   3.429  0.00  0.00    +0.004 C 
ENDBRANCH  21  22
BRANCH  21  24
ATOM     24  C   LIG    1       22.004 -18.106   4.554  0.00  0.00    +0.007 C 
BRANCH  24  25
ATOM     25  C   LIG    1       22.267 -16.699   3.975  0.00  0.00    +0.000 C 
BRANCH  25  27
ATOM     26  C   LIG    1       23.676 -14.606   4.233  0.00  0.00    +0.004 C 
ATOM     27  C   LIG    1       22.855 -15.673   4.941  0.00  0.00    -0.003 C 
ENDBRANCH  25  27
ENDBRANCH  24  25
ENDBRANCH  21  24
ENDBRANCH  20  21
ENDBRANCH  19  20
ENDBRANCH  17  19
ENDBRANCH   1  17
BRANCH   1  28
ATOM     28  C   LIG    1       22.994 -23.289   6.873  0.00  0.00    +0.107 C 
ATOM     29  N   LIG    1       22.173 -24.069   6.671  0.00  0.00    -0.191 NA
ENDBRANCH   1  28
TORSDOF 12
ENDMDL
MODEL 4
REMARK VINA RESULT:      -6.2      4.801      7.695
REMARK  Name = *****
REMARK                            x       y       z     vdW  Elec       q    Type
REMARK                         _______ _______ _______ _____ _____    ______ ____
ROOT
ATOM      1  C   LIG    1       25.150 -28.711   6.930  0.00  0.00    +0.144 C 
ATOM      2  C   LIG    1       25.226 -29.542   8.025  0.00  0.00    +0.014 C 
ENDROOT
BRANCH   2   3
ATOM      3  C   LIG    1       25.496 -29.125   9.442  0.00  0.00    -0.016 A 
ATOM      4  C   LIG    1       26.710 -28.574   9.852  0.00  0.00    +0.012 A 
ATOM      5  C   LIG    1       26.972 -28.285  11.191  0.00  0.00    +0.046 A 
ATOM      6  C   LIG    1       26.050 -28.602  12.181  0.00  0.00    +0.120 A 
ATOM      7  C   LIG    1       24.859 -29.219  11.811  0.00  0.00    +0.046 A 
ATOM      8  C   LIG    1       24.574 -29.449  10.458  0.00  0.00    +0.012 A 
BRANCH   6   9
ATOM      9  O   LIG    1       26.212 -28.352  13.516  0.00  0.00    -0.495 OA
ATOM     10  C   LIG    1       25.085 -27.776  14.173  0.00  0.00    +0.277 C 
ENDBRANCH   6   9
ENDBRANCH   2   3
BRANCH   2  11
ATOM     11  C   LIG    1       25.114 -31.047   7.761  0.00  0.00    -0.016 A 
ATOM     12  C   LIG    1       26.261 -31.850   7.646  0.00  0.00    +0.008 A 
ATOM     13  C   LIG    1       26.153 -33.228   7.410  0.00  0.00    +0.001 A 
ATOM     14  C   LIG    1       24.902 -33.824   7.282  0.00  0.00    +0.000 A 
ATOM     15  C   LIG    1       23.753 -33.042   7.383  0.00  0.00    +0.001 A 
ATOM     16  C   LIG    1       23.857 -31.663   7.622  0.00  0.00    +0.008 A 
ENDBRANCH   2  11
BRANCH   1  17
ATOM     17  C   LIG    1       25.310 -27.230   6.849  0.00  0.00    +0.350 C 
ATOM     18  O   LIG    1       26.288 -26.603   7.128  0.00  0.00    -0.244 OA
BRANCH  17  19
ATOM     19  O   LIG    1       24.118 -26.665   6.466  0.00  0.00    -0.460 OA
BRANCH  19  20
ATOM     20  C   LIG    1       24.178 -25.408   5.770  0.00  0.00    +0.236 C 
BRANCH  20  21
ATOM     21  C   LIG    1       24.055 -24.258   6.793  0.00  0.00    +0.026 C 
BRANCH  21  22
ATOM     22  C   LIG    1       22.719 -23.508   6.682  0.00  0.00    +0.003 C 
ATOM     23  C   LIG    1       22.768 -22.086   6.155  0.00  0.00    +0.004 C 
ENDBRANCH  21  22
BRANCH  21  24
ATOM     24  C   LIG    1       25.271 -23.289   6.704  0.00  0.00    +0.007 C 
BRANCH  24  25
ATOM     25  C   LIG    1       25.817 -22.696   8.020  0.00  0.00    +0.000 C 
BRANCH  25  27
ATOM     26  C   LIG    1       26.091 -20.506   6.770  0.00  0.00    +0.004 C 
ATOM     27  C   LIG    1       25.838 -21.172   8.114  0.00  0.00    -0.003 C 
ENDBRANCH  25  27
ENDBRANCH  24  25
ENDBRANCH  21  24
ENDBRANCH  20  21
ENDBRANCH  19  20
ENDBRANCH  17  19
ENDBRANCH   1  17
BRANCH   1  28
ATOM     28  C   LIG    1       25.094 -29.351   5.678  0.00  0.00    +0.107 C 
ATOM     29  N   LIG    1       25.048 -29.874   4.654  0.00  0.00    -0.191 NA
ENDBRANCH   1  28
TORSDOF 12
ENDMDL
MODEL 5
REMARK VINA RESULT:      -6.2      5.744     10.080
REMARK  Name = *****
REMARK                            x       y       z     vdW  Elec       q    Type
REMARK                         _______ _______ _______ _____ _____    ______ ____
ROOT
ATOM      1  C   LIG    1       24.175 -31.174   8.546  0.00  0.00    +0.144 C 
ATOM      2  C   LIG    1       24.924 -30.615   7.535  0.00  0.00    +0.014 C 
ENDROOT
BRANCH   2   3
ATOM      3  C   LIG    1       24.949 -29.165   7.142  0.00  0.00    -0.016 A 
ATOM      4  C   LIG    1       24.169 -28.647   6.108  0.00  0.00    +0.012 A 
ATOM      5  C   LIG    1       24.281 -27.319   5.697  0.00  0.00    +0.046 A 
ATOM      6  C   LIG    1       25.229 -26.476   6.263  0.00  0.00    +0.120 A 
ATOM      7  C   LIG    1       26.071 -26.984   7.248  0.00  0.00    +0.046 A 
ATOM      8  C   LIG    1       25.911 -28.302   7.701  0.00  0.00    +0.012 A 
BRANCH   6   9
ATOM      9  O   LIG    1       25.409 -25.161   5.934  0.00  0.00    -0.495 OA
ATOM     10  C   LIG    1       24.379 -24.275   6.366  0.00  0.00    +0.277 C 
ENDBRANCH   6   9
ENDBRANCH   2   3
BRANCH   2  11
ATOM     11  C   LIG    1       25.744 -31.576   6.668  0.00  0.00    -0.016 A 
ATOM     12  C   LIG    1       26.952 -32.119   7.133  0.00  0.00    +0.008 A 
ATOM     13  C   LIG    1       27.696 -33.003   6.338  0.00  0.00    +0.001 A 
ATOM     14  C   LIG    1       27.248 -33.353   5.066  0.00  0.00    +0.000 A 
ATOM     15  C   LIG    1       26.056 -32.815   4.585  0.00  0.00    +0.001 A 
ATOM     16  C   LIG    1       25.307 -31.933   5.379  0.00  0.00    +0.008 A 
ENDBRANCH   2  11
BRANCH   1  17
ATOM     17  C   LIG    1       23.219 -30.525   9.489  0.00  0.00    +0.350 C 
ATOM     18  O   LIG    1       22.075 -30.823   9.660  0.00  0.00    -0.244 OA
BRANCH  17  19
ATOM     19  O   LIG    1       23.836 -29.460  10.100  0.00  0.00    -0.460 OA
BRANCH  19  20
ATOM     20  C   LIG    1       24.645 -29.742  11.255  0.00  0.00    +0.236 C 
BRANCH  20  21
ATOM     21  C   LIG    1       25.718 -28.642  11.401  0.00  0.00    +0.026 C 
BRANCH  21  22
ATOM     22  C   LIG    1       27.148 -29.189  11.277  0.00  0.00    +0.003 C 
ATOM     23  C   LIG    1       27.367 -30.333  10.305  0.00  0.00    +0.004 C 
ENDBRANCH  21  22
BRANCH  21  24
ATOM     24  C   LIG    1       25.522 -27.831  12.715  0.00  0.00    +0.007 C 
BRANCH  24  25
ATOM     25  C   LIG    1       24.147 -27.910  13.413  0.00  0.00    +0.000 C 
BRANCH  25  27
ATOM     26  C   LIG    1       21.938 -26.686  13.171  0.00  0.00    +0.004 C 
ATOM     27  C   LIG    1       23.400 -26.589  13.580  0.00  0.00    -0.003 C 
ENDBRANCH  25  27
ENDBRANCH  24  25
ENDBRANCH  21  24
ENDBRANCH  20  21
ENDBRANCH  19  20
ENDBRANCH  17  19
ENDBRANCH   1  17
BRANCH   1  28
ATOM     28  C   LIG    1       24.160 -32.580   8.591  0.00  0.00    +0.107 C 
ATOM     29  N   LIG    1       24.148 -33.730   8.628  0.00  0.00    -0.191 NA
ENDBRANCH   1  28
TORSDOF 12
ENDMDL
MODEL 6
REMARK VINA RESULT:      -6.2      5.666      9.858
REMARK  Name = *****
REMARK                            x       y       z     vdW  Elec       q    Type
REMARK                         _______ _______ _______ _____ _____    ______ ____
ROOT
ATOM      1  C   LIG    1       26.043 -30.214   8.750  0.00  0.00    +0.144 C 
ATOM      2  C   LIG    1       25.534 -29.868   7.519  0.00  0.00    +0.014 C 
ENDROOT
BRANCH   2   3
ATOM      3  C   LIG    1       25.276 -28.475   7.021  0.00  0.00    -0.016 A 
ATOM      4  C   LIG    1       24.313 -28.181   6.056  0.00  0.00    +0.012 A 
ATOM      5  C   LIG    1       24.158 -26.895   5.539  0.00  0.00    +0.046 A 
ATOM      6  C   LIG    1       25.010 -25.866   5.922  0.00  0.00    +0.120 A 
ATOM      7  C   LIG    1       26.027 -26.145   6.830  0.00  0.00    +0.046 A 
ATOM      8  C   LIG    1       26.138 -27.424   7.394  0.00  0.00    +0.012 A 
BRANCH   6   9
ATOM      9  O   LIG    1       24.934 -24.575   5.478  0.00  0.00    -0.495 OA
ATOM     10  C   LIG    1       25.119 -23.573   6.474  0.00  0.00    +0.277 C 
ENDBRANCH   6   9
ENDBRANCH   2   3
BRANCH   2  11
ATOM     11  C   LIG    1       25.105 -31.016   6.599  0.00  0.00    -0.016 A 
ATOM     12  C   LIG    1       23.836 -31.606   6.720  0.00  0.00    +0.008 A 
ATOM     13  C   LIG    1       23.446 -32.652   5.872  0.00  0.00    +0.001 A 
ATOM     14  C   LIG    1       24.316 -33.128   4.895  0.00  0.00    +0.000 A 
ATOM     15  C   LIG    1       25.583 -32.561   4.767  0.00  0.00    +0.001 A 
ATOM     16  C   LIG    1       25.976 -31.511   5.611  0.00  0.00    +0.008 A 
ENDBRANCH   2  11
BRANCH   1  17
ATOM     17  C   LIG    1       26.459 -29.340   9.886  0.00  0.00    +0.350 C 
ATOM     18  O   LIG    1       27.578 -29.076  10.207  0.00  0.00    -0.244 OA
BRANCH  17  19
ATOM     19  O   LIG    1       25.343 -28.929  10.574  0.00  0.00    -0.460 OA
BRANCH  19  20
ATOM     20  C   LIG    1       25.215 -29.362  11.939  0.00  0.00    +0.236 C 
BRANCH  20  21
ATOM     21  C   LIG    1       23.780 -29.881  12.171  0.00  0.00    +0.026 C 
BRANCH  21  22
ATOM     22  C   LIG    1       23.009 -30.099  10.860  0.00  0.00    +0.003 C 
ATOM     23  C   LIG    1       21.522 -30.373  10.972  0.00  0.00    +0.004 C 
ENDBRANCH  21  22
BRANCH  21  24
ATOM     24  C   LIG    1       22.998 -28.961  13.154  0.00  0.00    +0.007 C 
BRANCH  24  25
ATOM     25  C   LIG    1       23.356 -27.459  13.177  0.00  0.00    +0.000 C 
BRANCH  25  27
ATOM     26  C   LIG    1       20.852 -27.130  12.954  0.00  0.00    +0.004 C 
ATOM     27  C   LIG    1       22.185 -26.489  13.309  0.00  0.00    -0.003 C 
ENDBRANCH  25  27
ENDBRANCH  24  25
ENDBRANCH  21  24
ENDBRANCH  20  21
ENDBRANCH  19  20
ENDBRANCH  17  19
ENDBRANCH   1  17
BRANCH   1  28
ATOM     28  C   LIG    1       26.002 -31.584   9.066  0.00  0.00    +0.107 C 
ATOM     29  N   LIG    1       25.968 -32.705   9.325  0.00  0.00    -0.191 NA
ENDBRANCH   1  28
TORSDOF 12
ENDMDL
MODEL 7
REMARK VINA RESULT:      -6.1      5.858     10.109
REMARK  Name = *****
REMARK                            x       y       z     vdW  Elec       q    Type
REMARK                         _______ _______ _______ _____ _____    ______ ____
ROOT
ATOM      1  C   LIG    1       24.257 -31.238   8.694  0.00  0.00    +0.144 C 
ATOM      2  C   LIG    1       24.958 -30.704   7.635  0.00  0.00    +0.014 C 
ENDROOT
BRANCH   2   3
ATOM      3  C   LIG    1       24.931 -29.272   7.182  0.00  0.00    -0.016 A 
ATOM      4  C   LIG    1       24.180 -28.837   6.090  0.00  0.00    +0.012 A 
ATOM      5  C   LIG    1       24.247 -27.523   5.628  0.00  0.00    +0.046 A 
ATOM      6  C   LIG    1       25.124 -26.611   6.202  0.00  0.00    +0.120 A 
ATOM      7  C   LIG    1       25.939 -27.035   7.246  0.00  0.00    +0.046 A 
ATOM      8  C   LIG    1       25.822 -28.339   7.748  0.00  0.00    +0.012 A 
BRANCH   6   9
ATOM      9  O   LIG    1       25.256 -25.303   5.824  0.00  0.00    -0.495 OA
ATOM     10  C   LIG    1       25.837 -24.440   6.799  0.00  0.00    +0.277 C 
ENDBRANCH   6   9
ENDBRANCH   2   3
BRANCH   2  11
ATOM     11  C   LIG    1       25.773 -31.680   6.782  0.00  0.00    -0.016 A 
ATOM     12  C   LIG    1       27.021 -32.156   7.218  0.00  0.00    +0.008 A 
ATOM     13  C   LIG    1       27.761 -33.054   6.435  0.00  0.00    +0.001 A 
ATOM     14  C   LIG    1       27.270 -33.487   5.206  0.00  0.00    +0.000 A 
ATOM     15  C   LIG    1       26.039 -33.017   4.753  0.00  0.00    +0.001 A 
ATOM     16  C   LIG    1       25.293 -32.121   5.534  0.00  0.00    +0.008 A 
ENDBRANCH   2  11
BRANCH   1  17
ATOM     17  C   LIG    1       23.316 -30.573   9.642  0.00  0.00    +0.350 C 
ATOM     18  O   LIG    1       22.123 -30.601   9.597  0.00  0.00    -0.244 OA
BRANCH  17  19
ATOM     19  O   LIG    1       24.035 -29.845  10.558  0.00  0.00    -0.460 OA
BRANCH  19  20
ATOM     20  C   LIG    1       23.777 -30.099  11.950  0.00  0.00    +0.236 C 
BRANCH  20  21
ATOM     21  C   LIG    1       24.142 -28.844  12.769  0.00  0.00    +0.026 C 
BRANCH  21  22
ATOM     22  C   LIG    1       22.980 -27.844  12.872  0.00  0.00    +0.003 C 
ATOM     23  C   LIG    1       21.579 -28.395  12.691  0.00  0.00    +0.004 C 
ENDBRANCH  21  22
BRANCH  21  24
ATOM     24  C   LIG    1       25.437 -28.171  12.226  0.00  0.00    +0.007 C 
BRANCH  24  25
ATOM     25  C   LIG    1       26.783 -28.883  12.483  0.00  0.00    +0.000 C 
BRANCH  25  27
ATOM     26  C   LIG    1       27.413 -30.189  10.402  0.00  0.00    +0.004 C 
ATOM     27  C   LIG    1       27.726 -28.992  11.287  0.00  0.00    -0.003 C 
ENDBRANCH  25  27
ENDBRANCH  24  25
ENDBRANCH  21  24
ENDBRANCH  20  21
ENDBRANCH  19  20
ENDBRANCH  17  19
ENDBRANCH   1  17
BRANCH   1  28
ATOM     28  C   LIG    1       24.281 -32.640   8.798  0.00  0.00    +0.107 C 
ATOM     29  N   LIG    1       24.300 -33.788   8.883  0.00  0.00    -0.191 NA
ENDBRANCH   1  28
TORSDOF 12
ENDMDL
MODEL 8
REMARK VINA RESULT:      -6.0      2.208      5.037
REMARK  Name = *****
REMARK                            x       y       z     vdW  Elec       q    Type
REMARK                         _______ _______ _______ _____ _____    ______ ____
ROOT
ATOM      1  C   LIG    1       24.150 -22.135   6.888  0.00  0.00    +0.144 C 
ATOM      2  C   LIG    1       25.354 -22.754   6.638  0.00  0.00    +0.014 C 
ENDROOT
BRANCH   2   3
ATOM      3  C   LIG    1       25.547 -24.155   6.132  0.00  0.00    -0.016 A 
ATOM      4  C   LIG    1       25.105 -24.576   4.878  0.00  0.00    +0.012 A 
ATOM      5  C   LIG    1       25.207 -25.906   4.469  0.00  0.00    +0.046 A 
ATOM      6  C   LIG    1       25.696 -26.879   5.331  0.00  0.00    +0.120 A 
ATOM      7  C   LIG    1       26.078 -26.503   6.615  0.00  0.00    +0.046 A 
ATOM      8  C   LIG    1       26.032 -25.155   6.999  0.00  0.00    +0.012 A 
BRANCH   6   9
ATOM      9  O   LIG    1       25.842 -28.203   5.021  0.00  0.00    -0.495 OA
ATOM     10  C   LIG    1       24.698 -29.018   5.261  0.00  0.00    +0.277 C 
ENDBRANCH   6   9
ENDBRANCH   2   3
BRANCH   2  11
ATOM     11  C   LIG    1       26.622 -21.971   6.992  0.00  0.00    -0.016 A 
ATOM     12  C   LIG    1       27.135 -20.992   6.125  0.00  0.00    +0.008 A 
ATOM     13  C   LIG    1       28.293 -20.274   6.457  0.00  0.00    +0.001 A 
ATOM     14  C   LIG    1       28.958 -20.525   7.654  0.00  0.00    +0.000 A 
ATOM     15  C   LIG    1       28.469 -21.500   8.521  0.00  0.00    +0.001 A 
ATOM     16  C   LIG    1       27.309 -22.219   8.195  0.00  0.00    +0.008 A 
ENDBRANCH   2  11
BRANCH   1  17
ATOM     17  C   LIG    1       22.762 -22.662   6.738  0.00  0.00    +0.350 C 
ATOM     18  O   LIG    1       22.392 -23.771   6.979  0.00  0.00    -0.244 OA
BRANCH  17  19
ATOM     19  O   LIG    1       21.961 -21.683   6.201  0.00  0.00    -0.460 OA
BRANCH  19  20
ATOM     20  C   LIG    1       21.791 -21.682   4.774  0.00  0.00    +0.236 C 
BRANCH  20  21
ATOM     21  C   LIG    1       22.560 -20.486   4.174  0.00  0.00    +0.026 C 
BRANCH  21  22
ATOM     22  C   LIG    1       24.037 -20.809   3.900  0.00  0.00    +0.003 C 
ATOM     23  C   LIG    1       24.954 -19.640   3.593  0.00  0.00    +0.004 C 
ENDBRANCH  21  22
BRANCH  21  24
ATOM     24  C   LIG    1       22.402 -19.212   5.055  0.00  0.00    +0.007 C 
BRANCH  24  25
ATOM     25  C   LIG    1       21.988 -17.899   4.357  0.00  0.00    +0.000 C 
BRANCH  25  27
ATOM     26  C   LIG    1       23.097 -15.618   4.356  0.00  0.00    +0.004 C 
ATOM     27  C   LIG    1       22.248 -16.611   5.135  0.00  0.00    -0.003 C 
ENDBRANCH  25  27
ENDBRANCH  24  25
ENDBRANCH  21  24
ENDBRANCH  20  21
ENDBRANCH  19  20
ENDBRANCH  17  19
ENDBRANCH   1  17
BRANCH   1  28
ATOM     28  C   LIG    1       24.225 -20.897   7.551  0.00  0.00    +0.107 C 
ATOM     29  N   LIG    1       24.286 -19.884   8.094  0.00  0.00    -0.191 NA
ENDBRANCH   1  28
TORSDOF 12
ENDMDL
MODEL 9
REMARK VINA RESULT:      -6.0      6.614     10.412
REMARK  Name = *****
REMARK                            x       y       z     vdW  Elec       q    Type
REMARK                         _______ _______ _______ _____ _____    ______ ____
ROOT
ATOM      1  C   LIG    1       25.668 -29.280  11.600  0.00  0.00    +0.144 C 
ATOM      2  C   LIG    1       25.130 -28.390  12.502  0.00  0.00    +0.014 C 
ENDROOT
BRANCH   2   3
ATOM      3  C   LIG    1       23.669 -28.131  12.734  0.00  0.00    -0.016 A 
ATOM      4  C   LIG    1       23.182 -26.919  13.223  0.00  0.00    +0.012 A 
ATOM      5  C   LIG    1       21.832 -26.735  13.523  0.00  0.00    +0.046 A 
ATOM      6  C   LIG    1       20.929 -27.784  13.408  0.00  0.00    +0.120 A 
ATOM      7  C   LIG    1       21.397 -29.026  12.992  0.00  0.00    +0.046 A 
ATOM      8  C   LIG    1       22.742 -29.188  12.631  0.00  0.00    +0.012 A 
BRANCH   6   9
ATOM      9  O   LIG    1       19.589 -27.700  13.671  0.00  0.00    -0.495 OA
ATOM     10  C   LIG    1       19.200 -26.637  14.536  0.00  0.00    +0.277 C 
ENDBRANCH   6   9
ENDBRANCH   2   3
BRANCH   2  11
ATOM     11  C   LIG    1       26.115 -27.513  13.282  0.00  0.00    -0.016 A 
ATOM     12  C   LIG    1       26.643 -27.935  14.513  0.00  0.00    +0.008 A 
ATOM     13  C   LIG    1       27.549 -27.132  15.220  0.00  0.00    +0.001 A 
ATOM     14  C   LIG    1       27.937 -25.895  14.712  0.00  0.00    +0.000 A 
ATOM     15  C   LIG    1       27.416 -25.456  13.496  0.00  0.00    +0.001 A 
ATOM     16  C   LIG    1       26.512 -26.258  12.784  0.00  0.00    +0.008 A 
ENDBRANCH   2  11
BRANCH   1  17
ATOM     17  C   LIG    1       24.980 -30.193  10.641  0.00  0.00    +0.350 C 
ATOM     18  O   LIG    1       24.872 -31.379  10.741  0.00  0.00    -0.244 OA
BRANCH  17  19
ATOM     19  O   LIG    1       24.539 -29.469   9.561  0.00  0.00    -0.460 OA
BRANCH  19  20
ATOM     20  C   LIG    1       25.223 -29.667   8.312  0.00  0.00    +0.236 C 
BRANCH  20  21
ATOM     21  C   LIG    1       24.886 -28.499   7.361  0.00  0.00    +0.026 C 
BRANCH  21  22
ATOM     22  C   LIG    1       24.544 -28.971   5.940  0.00  0.00    +0.003 C 
ATOM     23  C   LIG    1       25.335 -30.145   5.394  0.00  0.00    +0.004 C 
ENDBRANCH  21  22
BRANCH  21  24
ATOM     24  C   LIG    1       26.017 -27.428   7.357  0.00  0.00    +0.007 C 
BRANCH  24  25
ATOM     25  C   LIG    1       26.008 -26.374   6.229  0.00  0.00    +0.000 C 
BRANCH  25  27
ATOM     26  C   LIG    1       23.956 -24.891   6.387  0.00  0.00    +0.004 C 
ATOM     27  C   LIG    1       25.459 -24.998   6.598  0.00  0.00    -0.003 C 
ENDBRANCH  25  27
ENDBRANCH  24  25
ENDBRANCH  21  24
ENDBRANCH  20  21
ENDBRANCH  19  20
ENDBRANCH  17  19
ENDBRANCH   1  17
BRANCH   1  28
ATOM     28  C   LIG    1       27.060 -29.198  11.416  0.00  0.00    +0.107 C 
ATOM     29  N   LIG    1       28.199 -29.131  11.265  0.00  0.00    -0.191 NA
ENDBRANCH   1  28
TORSDOF 12
ENDMDL
