MODEL 1
REMARK VINA RESULT:      -8.9      0.000      0.000
REMARK  Name = *****
REMARK                            x       y       z     vdW  Elec       q    Type
REMARK                         _______ _______ _______ _____ _____    ______ ____
ROOT
ATOM      1  C   LIG    1       26.840 -20.449   7.516  0.00  0.00    +0.008 C 
ATOM      2  C   LIG    1       28.017 -20.256   6.897  0.00  0.00    +0.009 C 
ENDROOT
BRANCH   1   6
ATOM      3  C   LIG    1       23.113 -21.122   5.549  0.00  0.00    +0.117 A 
ATOM      4  C   LIG    1       24.231 -20.810   4.787  0.00  0.00    +0.046 A 
ATOM      5  C   LIG    1       25.458 -20.582   5.417  0.00  0.00    +0.011 A 
ATOM      6  C   LIG    1       25.565 -20.652   6.812  0.00  0.00    -0.025 A 
ATOM      7  C   LIG    1       24.426 -20.986   7.561  0.00  0.00    +0.011 A 
ATOM      8  C   LIG    1       23.198 -21.215   6.933  0.00  0.00    +0.046 A 
BRANCH   3   9
ATOM      9  O   LIG    1       21.937 -21.338   4.894  0.00  0.00    -0.507 OA
ATOM     10  H   LIG    1       21.381 -20.547   4.984  0.00  0.00    +0.292 HD
ENDBRANCH   3   9
ENDBRANCH   1   6
BRANCH   2  11
ATOM     11  C   LIG    1       29.288 -20.032   7.603  0.00  0.00    -0.018 A 
ATOM     12  C   LIG    1       30.012 -21.076   8.192  0.00  0.00    +0.053 A 
ATOM     13  C   LIG    1       31.225 -20.819   8.828  0.00  0.00    +0.121 A 
ATOM     14  C   LIG    1       31.745 -19.531   8.879  0.00  0.00    +0.090 A 
ATOM     15  C   LIG    1       31.036 -18.498   8.279  0.00  0.00    +0.121 A 
ATOM     16  C   LIG    1       29.820 -18.734   7.639  0.00  0.00    +0.053 A 
BRANCH  13  17
ATOM     17  O   LIG    1       31.883 -21.872   9.391  0.00  0.00    -0.507 OA
ATOM     18  H   LIG    1       31.513 -22.029  10.276  0.00  0.00    +0.292 HD
ENDBRANCH  13  17
BRANCH  15  19
ATOM     19  O   LIG    1       31.574 -17.245   8.339  0.00  0.00    -0.507 OA
ATOM     20  H   LIG    1       32.428 -17.294   8.801  0.00  0.00    +0.292 HD
ENDBRANCH  15  19
ENDBRANCH   2  11
TORSDOF 5
ENDMDL
MODEL 2
REMARK VINA RESULT:      -8.9      0.075      2.006
REMARK  Name = *****
REMARK                            x       y       z     vdW  Elec       q    Type
REMARK                         _______ _______ _______ _____ _____    ______ ____
ROOT
ATOM      1  C   LIG    1       26.890 -20.414   7.473  0.00  0.00    +0.008 C 
ATOM      2  C   LIG    1       28.044 -20.160   6.833  0.00  0.00    +0.009 C 
ENDROOT
BRANCH   1   6
ATOM      3  C   LIG    1       23.136 -21.137   5.575  0.00  0.00    +0.117 A 
ATOM      4  C   LIG    1       24.237 -20.819   4.792  0.00  0.00    +0.046 A 
ATOM      5  C   LIG    1       25.473 -20.575   5.399  0.00  0.00    +0.011 A 
ATOM      6  C   LIG    1       25.605 -20.635   6.793  0.00  0.00    -0.025 A 
ATOM      7  C   LIG    1       24.482 -20.974   7.563  0.00  0.00    +0.011 A 
ATOM      8  C   LIG    1       23.246 -21.220   6.958  0.00  0.00    +0.046 A 
BRANCH   3   9
ATOM      9  O   LIG    1       21.951 -21.369   4.943  0.00  0.00    -0.507 OA
ATOM     10  H   LIG    1       21.971 -20.934   4.076  0.00  0.00    +0.292 HD
ENDBRANCH   3   9
ENDBRANCH   1   6
BRANCH   2  11
ATOM     11  C   LIG    1       29.324 -19.920   7.516  0.00  0.00    -0.018 A 
ATOM     12  C   LIG    1       29.883 -18.641   7.633  0.00  0.00    +0.053 A 
ATOM     13  C   LIG    1       31.086 -18.459   8.313  0.00  0.00    +0.121 A 
ATOM     14  C   LIG    1       31.745 -19.533   8.897  0.00  0.00    +0.090 A 
ATOM     15  C   LIG    1       31.183 -20.800   8.797  0.00  0.00    +0.121 A 
ATOM     16  C   LIG    1       29.981 -21.003   8.120  0.00  0.00    +0.053 A 
BRANCH  13  17
ATOM     17  O   LIG    1       31.587 -17.193   8.389  0.00  0.00    -0.507 OA
ATOM     18  H   LIG    1       32.547 -17.250   8.533  0.00  0.00    +0.292 HD
ENDBRANCH  13  17
BRANCH  15  19
ATOM     19  O   LIG    1       31.849 -21.835   9.386  0.00  0.00    -0.507 OA
ATOM     20  H   LIG    1       32.509 -21.472  10.001  0.00  0.00    +0.292 HD
ENDBRANCH  15  19
ENDBRANCH   2  11
TORSDOF 5
ENDMDL
MODEL 3
REMARK VINA RESULT:      -8.9      1.506      2.618
REMARK  Name = *****
REMARK                            x       y       z     vdW  Elec       q    Type
REMARK                         _______ _______ _______ _____ _____    ______ ____
ROOT
ATOM      1  C   LIG    1       27.000 -21.874   8.026  0.00  0.00    +0.008 C 
ATOM      2  C   LIG    1       27.747 -20.984   7.350  0.00  0.00    +0.009 C 
ENDROOT
BRANCH   1   6
ATOM      3  C   LIG    1       23.135 -23.209   6.802  0.00  0.00    +0.117 A 
ATOM      4  C   LIG    1       24.214 -24.075   6.691  0.00  0.00    +0.046 A 
ATOM      5  C   LIG    1       25.487 -23.652   7.083  0.00  0.00    +0.011 A 
ATOM      6  C   LIG    1       25.685 -22.354   7.574  0.00  0.00    -0.025 A 
ATOM      7  C   LIG    1       24.578 -21.501   7.694  0.00  0.00    +0.011 A 
ATOM      8  C   LIG    1       23.303 -21.923   7.304  0.00  0.00    +0.046 A 
BRANCH   3   9
ATOM      9  O   LIG    1       21.911 -23.663   6.410  0.00  0.00    -0.507 OA
ATOM     10  H   LIG    1       21.231 -23.233   6.953  0.00  0.00    +0.292 HD
ENDBRANCH   3   9
ENDBRANCH   1   6
BRANCH   2  11
ATOM     11  C   LIG    1       29.052 -20.490   7.814  0.00  0.00    -0.018 A 
ATOM     12  C   LIG    1       29.401 -19.134   7.766  0.00  0.00    +0.053 A 
ATOM     13  C   LIG    1       30.640 -18.711   8.241  0.00  0.00    +0.121 A 
ATOM     14  C   LIG    1       31.545 -19.616   8.782  0.00  0.00    +0.090 A 
ATOM     15  C   LIG    1       31.193 -20.958   8.846  0.00  0.00    +0.121 A 
ATOM     16  C   LIG    1       29.958 -21.403   8.375  0.00  0.00    +0.053 A 
BRANCH  13  17
ATOM     17  O   LIG    1       30.930 -17.380   8.162  0.00  0.00    -0.507 OA
ATOM     18  H   LIG    1       31.102 -17.157   7.231  0.00  0.00    +0.292 HD
ENDBRANCH  13  17
BRANCH  15  19
ATOM     19  O   LIG    1       32.099 -21.823   9.388  0.00  0.00    -0.507 OA
ATOM     20  H   LIG    1       32.104 -22.640   8.862  0.00  0.00    +0.292 HD
ENDBRANCH  15  19
ENDBRANCH   2  11
TORSDOF 5
ENDMDL
MODEL 4
REMARK VINA RESULT:      -8.2      1.376      7.373
REMARK  Name = *****
REMARK                            x       y       z     vdW  Elec       q    Type
REMARK                         _______ _______ _______ _____ _____    ______ ____
ROOT
ATOM      1  C   LIG    1       27.275 -20.612   6.747  0.00  0.00    +0.008 C 
ATOM      2  C   LIG    1       26.219 -21.095   7.423  0.00  0.00    +0.009 C 
ENDROOT
BRANCH   1   6
ATOM      3  C   LIG    1       31.069 -19.954   8.588  0.00  0.00    +0.117 A 
ATOM      4  C   LIG    1       30.423 -18.889   7.974  0.00  0.00    +0.046 A 
ATOM      5  C   LIG    1       29.183 -19.089   7.362  0.00  0.00    +0.011 A 
ATOM      6  C   LIG    1       28.591 -20.360   7.352  0.00  0.00    -0.025 A 
ATOM      7  C   LIG    1       29.254 -21.418   7.993  0.00  0.00    +0.011 A 
ATOM      8  C   LIG    1       30.494 -21.219   8.606  0.00  0.00    +0.046 A 
BRANCH   3   9
ATOM      9  O   LIG    1       32.277 -19.714   9.173  0.00  0.00    -0.507 OA
ATOM     10  H   LIG    1       32.223 -19.962  10.110  0.00  0.00    +0.292 HD
ENDBRANCH   3   9
ENDBRANCH   1   6
BRANCH   2  11
ATOM     11  C   LIG    1       24.897 -21.327   6.820  0.00  0.00    -0.018 A 
ATOM     12  C   LIG    1       24.174 -22.508   7.031  0.00  0.00    +0.053 A 
ATOM     13  C   LIG    1       22.913 -22.671   6.460  0.00  0.00    +0.121 A 
ATOM     14  C   LIG    1       22.345 -21.668   5.685  0.00  0.00    +0.090 A 
ATOM     15  C   LIG    1       23.054 -20.489   5.490  0.00  0.00    +0.121 A 
ATOM     16  C   LIG    1       24.317 -20.306   6.052  0.00  0.00    +0.053 A 
BRANCH  13  17
ATOM     17  O   LIG    1       22.258 -23.845   6.692  0.00  0.00    -0.507 OA
ATOM     18  H   LIG    1       21.362 -23.777   6.321  0.00  0.00    +0.292 HD
ENDBRANCH  13  17
BRANCH  15  19
ATOM     19  O   LIG    1       22.468 -19.518   4.730  0.00  0.00    -0.507 OA
ATOM     20  H   LIG    1       22.614 -19.726   3.792  0.00  0.00    +0.292 HD
ENDBRANCH  15  19
ENDBRANCH   2  11
TORSDOF 5
ENDMDL
MODEL 5
REMARK VINA RESULT:      -8.2      1.420      7.637
REMARK  Name = *****
REMARK                            x       y       z     vdW  Elec       q    Type
REMARK                         _______ _______ _______ _____ _____    ______ ____
ROOT
ATOM      1  C   LIG    1       27.293 -20.739   6.855  0.00  0.00    +0.008 C 
ATOM      2  C   LIG    1       26.174 -20.944   7.571  0.00  0.00    +0.009 C 
ENDROOT
BRANCH   1   6
ATOM      3  C   LIG    1       31.065 -19.877   8.655  0.00  0.00    +0.117 A 
ATOM      4  C   LIG    1       30.327 -18.837   8.105  0.00  0.00    +0.046 A 
ATOM      5  C   LIG    1       29.092 -19.104   7.508  0.00  0.00    +0.011 A 
ATOM      6  C   LIG    1       28.599 -20.415   7.447  0.00  0.00    -0.025 A 
ATOM      7  C   LIG    1       29.354 -21.447   8.024  0.00  0.00    +0.011 A 
ATOM      8  C   LIG    1       30.589 -21.182   8.623  0.00  0.00    +0.046 A 
BRANCH   3   9
ATOM      9  O   LIG    1       32.264 -19.573   9.229  0.00  0.00    -0.507 OA
ATOM     10  H   LIG    1       32.678 -20.394   9.537  0.00  0.00    +0.292 HD
ENDBRANCH   3   9
ENDBRANCH   1   6
BRANCH   2  11
ATOM     11  C   LIG    1       24.864 -21.249   6.975  0.00  0.00    -0.018 A 
ATOM     12  C   LIG    1       24.155 -20.317   6.207  0.00  0.00    +0.053 A 
ATOM     13  C   LIG    1       22.929 -20.660   5.641  0.00  0.00    +0.121 A 
ATOM     14  C   LIG    1       22.393 -21.931   5.815  0.00  0.00    +0.090 A 
ATOM     15  C   LIG    1       23.104 -22.861   6.562  0.00  0.00    +0.121 A 
ATOM     16  C   LIG    1       24.332 -22.537   7.137  0.00  0.00    +0.053 A 
BRANCH  13  17
ATOM     17  O   LIG    1       22.278 -19.710   4.909  0.00  0.00    -0.507 OA
ATOM     18  H   LIG    1       22.635 -18.839   5.150  0.00  0.00    +0.292 HD
ENDBRANCH  13  17
BRANCH  15  19
ATOM     19  O   LIG    1       22.557 -24.103   6.710  0.00  0.00    -0.507 OA
ATOM     20  H   LIG    1       22.696 -24.398   7.626  0.00  0.00    +0.292 HD
ENDBRANCH  15  19
ENDBRANCH   2  11
TORSDOF 5
ENDMDL
MODEL 6
REMARK VINA RESULT:      -8.1      2.755      7.493
REMARK  Name = *****
REMARK                            x       y       z     vdW  Elec       q    Type
REMARK                         _______ _______ _______ _____ _____    ______ ____
ROOT
ATOM      1  C   LIG    1       27.924 -22.055   7.137  0.00  0.00    +0.008 C 
ATOM      2  C   LIG    1       26.590 -21.916   7.225  0.00  0.00    +0.009 C 
ENDROOT
BRANCH   1   6
ATOM      3  C   LIG    1       30.695 -18.855   7.680  0.00  0.00    +0.117 A 
ATOM      4  C   LIG    1       30.868 -20.027   8.404  0.00  0.00    +0.046 A 
ATOM      5  C   LIG    1       29.966 -21.082   8.241  0.00  0.00    +0.011 A 
ATOM      6  C   LIG    1       28.881 -20.962   7.363  0.00  0.00    -0.025 A 
ATOM      7  C   LIG    1       28.735 -19.775   6.629  0.00  0.00    +0.011 A 
ATOM      8  C   LIG    1       29.637 -18.718   6.789  0.00  0.00    +0.046 A 
BRANCH   3   9
ATOM      9  O   LIG    1       31.598 -17.851   7.869  0.00  0.00    -0.507 OA
ATOM     10  H   LIG    1       31.461 -17.472   8.752  0.00  0.00    +0.292 HD
ENDBRANCH   3   9
ENDBRANCH   1   6
BRANCH   2  11
ATOM     11  C   LIG    1       25.634 -23.006   6.978  0.00  0.00    -0.018 A 
ATOM     12  C   LIG    1       24.250 -22.794   6.935  0.00  0.00    +0.053 A 
ATOM     13  C   LIG    1       23.385 -23.855   6.672  0.00  0.00    +0.121 A 
ATOM     14  C   LIG    1       23.875 -25.134   6.435  0.00  0.00    +0.090 A 
ATOM     15  C   LIG    1       25.248 -25.341   6.460  0.00  0.00    +0.121 A 
ATOM     16  C   LIG    1       26.130 -24.294   6.723  0.00  0.00    +0.053 A 
BRANCH  13  17
ATOM     17  O   LIG    1       22.047 -23.592   6.650  0.00  0.00    -0.507 OA
ATOM     18  H   LIG    1       21.578 -24.404   6.394  0.00  0.00    +0.292 HD
ENDBRANCH  13  17
BRANCH  15  19
ATOM     19  O   LIG    1       25.700 -26.606   6.218  0.00  0.00    -0.507 OA
ATOM     20  H   LIG    1       26.128 -26.944   7.022  0.00  0.00    +0.292 HD
ENDBRANCH  15  19
ENDBRANCH   2  11
TORSDOF 5
ENDMDL
MODEL 7
REMARK VINA RESULT:      -8.0      2.765      7.321
REMARK  Name = *****
REMARK                            x       y       z     vdW  Elec       q    Type
REMARK                         _______ _______ _______ _____ _____    ______ ____
ROOT
ATOM      1  C   LIG    1       27.982 -22.085   7.151  0.00  0.00    +0.008 C 
ATOM      2  C   LIG    1       26.647 -21.935   7.100  0.00  0.00    +0.009 C 
ENDROOT
BRANCH   1   6
ATOM      3  C   LIG    1       30.710 -18.846   7.689  0.00  0.00    +0.117 A 
ATOM      4  C   LIG    1       30.901 -20.017   8.412  0.00  0.00    +0.046 A 
ATOM      5  C   LIG    1       30.013 -21.084   8.251  0.00  0.00    +0.011 A 
ATOM      6  C   LIG    1       28.924 -20.978   7.375  0.00  0.00    -0.025 A 
ATOM      7  C   LIG    1       28.760 -19.793   6.642  0.00  0.00    +0.011 A 
ATOM      8  C   LIG    1       29.647 -18.724   6.802  0.00  0.00    +0.046 A 
BRANCH   3   9
ATOM      9  O   LIG    1       31.599 -17.831   7.876  0.00  0.00    -0.507 OA
ATOM     10  H   LIG    1       31.175 -17.140   8.410  0.00  0.00    +0.292 HD
ENDBRANCH   3   9
ENDBRANCH   1   6
BRANCH   2  11
ATOM     11  C   LIG    1       25.708 -23.040   6.855  0.00  0.00    -0.018 A 
ATOM     12  C   LIG    1       26.135 -24.361   6.673  0.00  0.00    +0.053 A 
ATOM     13  C   LIG    1       25.205 -25.379   6.470  0.00  0.00    +0.121 A 
ATOM     14  C   LIG    1       23.842 -25.109   6.458  0.00  0.00    +0.090 A 
ATOM     15  C   LIG    1       23.416 -23.802   6.657  0.00  0.00    +0.121 A 
ATOM     16  C   LIG    1       24.331 -22.769   6.861  0.00  0.00    +0.053 A 
BRANCH  13  17
ATOM     17  O   LIG    1       25.678 -26.645   6.289  0.00  0.00    -0.507 OA
ATOM     18  H   LIG    1       24.923 -27.238   6.139  0.00  0.00    +0.292 HD
ENDBRANCH  13  17
BRANCH  15  19
ATOM     19  O   LIG    1       22.072 -23.567   6.648  0.00  0.00    -0.507 OA
ATOM     20  H   LIG    1       21.892 -22.806   6.071  0.00  0.00    +0.292 HD
ENDBRANCH  15  19
ENDBRANCH   2  11
TORSDOF 5
ENDMDL
MODEL 8
REMARK VINA RESULT:      -7.7      1.898      2.164
REMARK  Name = *****
REMARK                            x       y       z     vdW  Elec       q    Type
REMARK                         _______ _______ _______ _____ _____    ______ ____
ROOT
ATOM      1  C   LIG    1       26.590 -20.659   7.949  0.00  0.00    +0.008 C 
ATOM      2  C   LIG    1       27.811 -20.840   7.416  0.00  0.00    +0.009 C 
ENDROOT
BRANCH   1   6
ATOM      3  C   LIG    1       23.237 -23.058   6.849  0.00  0.00    +0.117 A 
ATOM      4  C   LIG    1       23.043 -21.709   7.114  0.00  0.00    +0.046 A 
ATOM      5  C   LIG    1       24.130 -20.911   7.480  0.00  0.00    +0.011 A 
ATOM      6  C   LIG    1       25.412 -21.465   7.595  0.00  0.00    -0.025 A 
ATOM      7  C   LIG    1       25.588 -22.827   7.307  0.00  0.00    +0.011 A 
ATOM      8  C   LIG    1       24.502 -23.626   6.939  0.00  0.00    +0.046 A 
BRANCH   3   9
ATOM      9  O   LIG    1       22.149 -23.799   6.494  0.00  0.00    -0.507 OA
ATOM     10  H   LIG    1       21.573 -23.896   7.268  0.00  0.00    +0.292 HD
ENDBRANCH   3   9
ENDBRANCH   1   6
BRANCH   2  11
ATOM     11  C   LIG    1       28.983 -20.019   7.757  0.00  0.00    -0.018 A 
ATOM     12  C   LIG    1       30.124 -19.969   6.946  0.00  0.00    +0.053 A 
ATOM     13  C   LIG    1       31.200 -19.156   7.297  0.00  0.00    +0.121 A 
ATOM     14  C   LIG    1       31.159 -18.372   8.443  0.00  0.00    +0.090 A 
ATOM     15  C   LIG    1       30.021 -18.407   9.238  0.00  0.00    +0.121 A 
ATOM     16  C   LIG    1       28.934 -19.215   8.906  0.00  0.00    +0.053 A 
BRANCH  13  17
ATOM     17  O   LIG    1       32.289 -19.153   6.474  0.00  0.00    -0.507 OA
ATOM     18  H   LIG    1       32.617 -18.241   6.400  0.00  0.00    +0.292 HD
ENDBRANCH  13  17
BRANCH  15  19
ATOM     19  O   LIG    1       30.006 -17.622  10.355  0.00  0.00    -0.507 OA
ATOM     20  H   LIG    1       29.262 -17.000  10.289  0.00  0.00    +0.292 HD
ENDBRANCH  15  19
ENDBRANCH   2  11
TORSDOF 5
ENDMDL
MODEL 9
REMARK VINA RESULT:      -7.6      5.520      6.779
REMARK  Name = *****
REMARK                            x       y       z     vdW  Elec       q    Type
REMARK                         _______ _______ _______ _____ _____    ______ ____
ROOT
ATOM      1  C   LIG    1       25.743 -25.462   6.633  0.00  0.00    +0.008 C 
ATOM      2  C   LIG    1       24.914 -24.416   6.799  0.00  0.00    +0.009 C 
ENDROOT
BRANCH   1   6
ATOM      3  C   LIG    1       24.346 -29.489   6.417  0.00  0.00    +0.117 A 
ATOM      4  C   LIG    1       25.169 -29.116   7.472  0.00  0.00    +0.046 A 
ATOM      5  C   LIG    1       25.638 -27.802   7.554  0.00  0.00    +0.011 A 
ATOM      6  C   LIG    1       25.297 -26.862   6.572  0.00  0.00    -0.025 A 
ATOM      7  C   LIG    1       24.451 -27.256   5.525  0.00  0.00    +0.011 A 
ATOM      8  C   LIG    1       23.979 -28.570   5.441  0.00  0.00    +0.046 A 
BRANCH   3   9
ATOM      9  O   LIG    1       23.910 -30.780   6.376  0.00  0.00    -0.507 OA
ATOM     10  H   LIG    1       24.680 -31.369   6.421  0.00  0.00    +0.292 HD
ENDBRANCH   3   9
ENDBRANCH   1   6
BRANCH   2  11
ATOM     11  C   LIG    1       25.364 -23.018   6.879  0.00  0.00    -0.018 A 
ATOM     12  C   LIG    1       25.617 -22.245   5.739  0.00  0.00    +0.053 A 
ATOM     13  C   LIG    1       26.017 -20.916   5.866  0.00  0.00    +0.121 A 
ATOM     14  C   LIG    1       26.160 -20.330   7.117  0.00  0.00    +0.090 A 
ATOM     15  C   LIG    1       25.892 -21.090   8.248  0.00  0.00    +0.121 A 
ATOM     16  C   LIG    1       25.491 -22.422   8.143  0.00  0.00    +0.053 A 
BRANCH  13  17
ATOM     17  O   LIG    1       26.258 -20.213   4.722  0.00  0.00    -0.507 OA
ATOM     18  H   LIG    1       26.074 -20.791   3.961  0.00  0.00    +0.292 HD
ENDBRANCH  13  17
BRANCH  15  19
ATOM     19  O   LIG    1       26.034 -20.486   9.464  0.00  0.00    -0.507 OA
ATOM     20  H   LIG    1       26.883 -20.014   9.480  0.00  0.00    +0.292 HD
ENDBRANCH  15  19
ENDBRANCH   2  11
TORSDOF 5
ENDMDL
