MODEL 1
REMARK VINA RESULT:      -4.2      0.000      0.000
REMARK  Name = *****
REMARK                            x       y       z     vdW  Elec       q    Type
REMARK                         _______ _______ _______ _____ _____    ______ ____
ROOT
ATOM      1  C   LIG    1       26.350 -16.429   3.309  0.00  0.00    +0.086 C 
ATOM      2  C   LIG    1       25.310 -15.409   3.608  0.00  0.00    +0.112 A 
ATOM      3  N   LIG    1       25.468 -14.037   3.448  0.00  0.00    -0.268 N 
ATOM      4  C   LIG    1       24.278 -13.469   3.848  0.00  0.00    +0.368 A 
ATOM      5  C   LIG    1       23.460 -14.506   4.218  0.00  0.00    +0.217 A 
ATOM      6  N   LIG    1       24.106 -15.698   4.066  0.00  0.00    -0.234 NA
ENDROOT
BRANCH   4   7
ATOM      7  N   LIG    1       23.961 -12.083   3.876  0.00  0.00    +0.100 N 
ATOM      8  O   LIG    1       23.847 -11.493   2.793  0.00  0.00    -0.575 OA
ATOM      9  O   LIG    1       23.834 -11.565   4.990  0.00  0.00    +0.043 OA
ENDBRANCH   4   7
BRANCH   3  10
ATOM     10  C   LIG    1       26.660 -13.389   2.907  0.00  0.00    +0.160 C 
BRANCH  10  11
ATOM     11  C   LIG    1       27.893 -13.526   3.812  0.00  0.00    +0.131 C 
ATOM     12  C   LIG    1       27.558 -13.206   5.265  0.00  0.00    +0.039 C 
BRANCH  11  13
ATOM     13  O   LIG    1       28.899 -12.604   3.391  0.00  0.00    -0.390 OA
ATOM     14  H   LIG    1       28.448 -11.828   3.009  0.00  0.00    +0.210 HD
ENDBRANCH  11  13
ENDBRANCH  10  11
ENDBRANCH   3  10
TORSDOF 4
ENDMDL
MODEL 2
REMARK VINA RESULT:      -4.2      5.847      7.016
REMARK  Name = *****
REMARK                            x       y       z     vdW  Elec       q    Type
REMARK                         _______ _______ _______ _____ _____    ______ ____
ROOT
ATOM      1  C   LIG    1       23.140 -21.477   7.051  0.00  0.00    +0.086 C 
ATOM      2  C   LIG    1       23.309 -20.555   5.897  0.00  0.00    +0.112 A 
ATOM      3  N   LIG    1       24.475 -20.414   5.152  0.00  0.00    -0.268 N 
ATOM      4  C   LIG    1       24.201 -19.459   4.197  0.00  0.00    +0.368 A 
ATOM      5  C   LIG    1       22.900 -19.075   4.395  0.00  0.00    +0.217 A 
ATOM      6  N   LIG    1       22.358 -19.758   5.446  0.00  0.00    -0.234 NA
ENDROOT
BRANCH   4   7
ATOM      7  N   LIG    1       25.092 -18.964   3.206  0.00  0.00    +0.100 N 
ATOM      8  O   LIG    1       25.512 -17.806   3.332  0.00  0.00    -0.575 OA
ATOM      9  O   LIG    1       25.374 -19.730   2.279  0.00  0.00    +0.043 OA
ENDBRANCH   4   7
BRANCH   3  10
ATOM     10  C   LIG    1       25.695 -21.191   5.351  0.00  0.00    +0.160 C 
BRANCH  10  11
ATOM     11  C   LIG    1       26.688 -20.530   6.319  0.00  0.00    +0.131 C 
ATOM     12  C   LIG    1       27.741 -19.718   5.570  0.00  0.00    +0.039 C 
BRANCH  11  13
ATOM     13  O   LIG    1       27.373 -21.538   7.062  0.00  0.00    -0.390 OA
ATOM     14  H   LIG    1       28.053 -21.097   7.603  0.00  0.00    +0.210 HD
ENDBRANCH  11  13
ENDBRANCH  10  11
ENDBRANCH   3  10
TORSDOF 4
ENDMDL
MODEL 3
REMARK VINA RESULT:      -4.0      2.480      3.342
REMARK  Name = *****
REMARK                            x       y       z     vdW  Elec       q    Type
REMARK                         _______ _______ _______ _____ _____    ______ ____
ROOT
ATOM      1  C   LIG    1       24.717 -11.447   5.974  0.00  0.00    +0.086 C 
ATOM      2  C   LIG    1       24.769 -12.421   4.851  0.00  0.00    +0.112 A 
ATOM      3  N   LIG    1       25.859 -13.226   4.542  0.00  0.00    -0.268 N 
ATOM      4  C   LIG    1       25.488 -13.959   3.436  0.00  0.00    +0.368 A 
ATOM      5  C   LIG    1       24.205 -13.580   3.133  0.00  0.00    +0.217 A 
ATOM      6  N   LIG    1       23.770 -12.631   4.012  0.00  0.00    -0.234 NA
ENDROOT
BRANCH   4   7
ATOM      7  N   LIG    1       26.278 -14.915   2.742  0.00  0.00    +0.100 N 
ATOM      8  O   LIG    1       26.990 -14.512   1.812  0.00  0.00    -0.575 OA
ATOM      9  O   LIG    1       26.185 -16.089   3.113  0.00  0.00    +0.043 OA
ENDBRANCH   4   7
BRANCH   3  10
ATOM     10  C   LIG    1       27.102 -13.281   5.306  0.00  0.00    +0.160 C 
BRANCH  10  11
ATOM     11  C   LIG    1       28.181 -12.318   4.789  0.00  0.00    +0.131 C 
ATOM     12  C   LIG    1       29.041 -12.970   3.710  0.00  0.00    +0.039 C 
BRANCH  11  13
ATOM     13  O   LIG    1       29.046 -11.949   5.862  0.00  0.00    -0.390 OA
ATOM     14  H   LIG    1       28.514 -11.931   6.679  0.00  0.00    +0.210 HD
ENDBRANCH  11  13
ENDBRANCH  10  11
ENDBRANCH   3  10
TORSDOF 4
ENDMDL
MODEL 4
REMARK VINA RESULT:      -3.7      2.272      3.388
REMARK  Name = *****
REMARK                            x       y       z     vdW  Elec       q    Type
REMARK                         _______ _______ _______ _____ _____    ______ ____
ROOT
ATOM      1  C   LIG    1       24.223 -12.138   3.291  0.00  0.00    +0.086 C 
ATOM      2  C   LIG    1       24.420 -13.594   3.517  0.00  0.00    +0.112 A 
ATOM      3  N   LIG    1       25.574 -14.302   3.198  0.00  0.00    -0.268 N 
ATOM      4  C   LIG    1       25.329 -15.609   3.560  0.00  0.00    +0.368 A 
ATOM      5  C   LIG    1       24.061 -15.635   4.082  0.00  0.00    +0.217 A 
ATOM      6  N   LIG    1       23.510 -14.387   4.051  0.00  0.00    -0.234 NA
ENDROOT
BRANCH   4   7
ATOM      7  N   LIG    1       26.212 -16.714   3.416  0.00  0.00    +0.100 N 
ATOM      8  O   LIG    1       27.377 -16.579   3.815  0.00  0.00    -0.575 OA
ATOM      9  O   LIG    1       25.750 -17.731   2.888  0.00  0.00    +0.043 OA
ENDBRANCH   4   7
BRANCH   3  10
ATOM     10  C   LIG    1       26.791 -13.714   2.646  0.00  0.00    +0.160 C 
BRANCH  10  11
ATOM     11  C   LIG    1       27.927 -13.586   3.673  0.00  0.00    +0.131 C 
ATOM     12  C   LIG    1       27.394 -13.213   5.052  0.00  0.00    +0.039 C 
BRANCH  11  13
ATOM     13  O   LIG    1       28.823 -12.552   3.266  0.00  0.00    -0.390 OA
ATOM     14  H   LIG    1       28.298 -11.864   2.819  0.00  0.00    +0.210 HD
ENDBRANCH  11  13
ENDBRANCH  10  11
ENDBRANCH   3  10
TORSDOF 4
ENDMDL
MODEL 5
REMARK VINA RESULT:      -3.6      5.626      6.974
REMARK  Name = *****
REMARK                            x       y       z     vdW  Elec       q    Type
REMARK                         _______ _______ _______ _____ _____    ______ ____
ROOT
ATOM      1  C   LIG    1       21.885 -21.366   5.208  0.00  0.00    +0.086 C 
ATOM      2  C   LIG    1       22.689 -20.213   4.722  0.00  0.00    +0.112 A 
ATOM      3  N   LIG    1       24.060 -20.238   4.492  0.00  0.00    -0.268 N 
ATOM      4  C   LIG    1       24.395 -18.971   4.064  0.00  0.00    +0.368 A 
ATOM      5  C   LIG    1       23.230 -18.249   4.045  0.00  0.00    +0.217 A 
ATOM      6  N   LIG    1       22.183 -19.024   4.451  0.00  0.00    -0.234 NA
ENDROOT
BRANCH   4   7
ATOM      7  N   LIG    1       25.692 -18.503   3.717  0.00  0.00    +0.100 N 
ATOM      8  O   LIG    1       26.668 -19.090   4.205  0.00  0.00    -0.575 OA
ATOM      9  O   LIG    1       25.748 -17.531   2.958  0.00  0.00    +0.043 OA
ENDBRANCH   4   7
BRANCH   3  10
ATOM     10  C   LIG    1       24.913 -21.414   4.637  0.00  0.00    +0.160 C 
BRANCH  10  11
ATOM     11  C   LIG    1       25.509 -21.566   6.045  0.00  0.00    +0.131 C 
ATOM     12  C   LIG    1       24.765 -20.706   7.062  0.00  0.00    +0.039 C 
BRANCH  11  13
ATOM     13  O   LIG    1       26.871 -21.138   6.035  0.00  0.00    -0.390 OA
ATOM     14  H   LIG    1       27.240 -21.308   6.921  0.00  0.00    +0.210 HD
ENDBRANCH  11  13
ENDBRANCH  10  11
ENDBRANCH   3  10
TORSDOF 4
ENDMDL
MODEL 6
REMARK VINA RESULT:      -3.5      6.080      7.378
REMARK  Name = *****
REMARK                            x       y       z     vdW  Elec       q    Type
REMARK                         _______ _______ _______ _____ _____    ______ ____
ROOT
ATOM      1  C   LIG    1       28.208 -19.498   5.490  0.00  0.00    +0.086 C 
ATOM      2  C   LIG    1       26.994 -20.246   5.912  0.00  0.00    +0.112 A 
ATOM      3  N   LIG    1       25.806 -20.310   5.192  0.00  0.00    -0.268 N 
ATOM      4  C   LIG    1       24.951 -21.089   5.940  0.00  0.00    +0.368 A 
ATOM      5  C   LIG    1       25.649 -21.466   7.059  0.00  0.00    +0.217 A 
ATOM      6  N   LIG    1       26.908 -20.941   7.031  0.00  0.00    -0.234 NA
ENDROOT
BRANCH   4   7
ATOM      7  N   LIG    1       23.608 -21.431   5.621  0.00  0.00    +0.100 N 
ATOM      8  O   LIG    1       23.315 -21.569   4.425  0.00  0.00    -0.575 OA
ATOM      9  O   LIG    1       22.825 -21.555   6.567  0.00  0.00    +0.043 OA
ENDBRANCH   4   7
BRANCH   3  10
ATOM     10  C   LIG    1       25.586 -19.700   3.884  0.00  0.00    +0.160 C 
BRANCH  10  11
ATOM     11  C   LIG    1       25.064 -18.257   3.963  0.00  0.00    +0.131 C 
ATOM     12  C   LIG    1       23.568 -18.188   3.673  0.00  0.00    +0.039 C 
BRANCH  11  13
ATOM     13  O   LIG    1       25.728 -17.456   2.985  0.00  0.00    -0.390 OA
ATOM     14  H   LIG    1       26.277 -16.805   3.459  0.00  0.00    +0.210 HD
ENDBRANCH  11  13
ENDBRANCH  10  11
ENDBRANCH   3  10
TORSDOF 4
ENDMDL
MODEL 7
REMARK VINA RESULT:      -3.4      5.797      7.087
REMARK  Name = *****
REMARK                            x       y       z     vdW  Elec       q    Type
REMARK                         _______ _______ _______ _____ _____    ______ ____
ROOT
ATOM      1  C   LIG    1       28.110 -19.697   5.475  0.00  0.00    +0.086 C 
ATOM      2  C   LIG    1       26.734 -20.125   5.843  0.00  0.00    +0.112 A 
ATOM      3  N   LIG    1       25.660 -20.201   4.963  0.00  0.00    -0.268 N 
ATOM      4  C   LIG    1       24.585 -20.627   5.713  0.00  0.00    +0.368 A 
ATOM      5  C   LIG    1       25.049 -20.796   6.993  0.00  0.00    +0.217 A 
ATOM      6  N   LIG    1       26.375 -20.484   7.062  0.00  0.00    -0.234 NA
ENDROOT
BRANCH   4   7
ATOM      7  N   LIG    1       23.256 -20.842   5.254  0.00  0.00    +0.100 N 
ATOM      8  O   LIG    1       23.099 -21.551   4.250  0.00  0.00    -0.575 OA
ATOM      9  O   LIG    1       22.352 -20.293   5.891  0.00  0.00    +0.043 OA
ENDBRANCH   4   7
BRANCH   3  10
ATOM     10  C   LIG    1       25.730 -19.929   3.530  0.00  0.00    +0.160 C 
BRANCH  10  11
ATOM     11  C   LIG    1       25.060 -18.607   3.127  0.00  0.00    +0.131 C 
ATOM     12  C   LIG    1       25.987 -17.418   3.357  0.00  0.00    +0.039 C 
BRANCH  11  13
ATOM     13  O   LIG    1       23.893 -18.401   3.923  0.00  0.00    -0.390 OA
ATOM     14  H   LIG    1       23.423 -19.252   3.985  0.00  0.00    +0.210 HD
ENDBRANCH  11  13
ENDBRANCH  10  11
ENDBRANCH   3  10
TORSDOF 4
ENDMDL
MODEL 8
REMARK VINA RESULT:      -3.3      6.021      7.583
REMARK  Name = *****
REMARK                            x       y       z     vdW  Elec       q    Type
REMARK                         _______ _______ _______ _____ _____    ______ ____
ROOT
ATOM      1  C   LIG    1       21.905 -21.043   4.502  0.00  0.00    +0.086 C 
ATOM      2  C   LIG    1       23.126 -21.039   5.350  0.00  0.00    +0.112 A 
ATOM      3  N   LIG    1       24.403 -20.709   4.910  0.00  0.00    -0.268 N 
ATOM      4  C   LIG    1       25.229 -20.845   6.005  0.00  0.00    +0.368 A 
ATOM      5  C   LIG    1       24.428 -21.236   7.047  0.00  0.00    +0.217 A 
ATOM      6  N   LIG    1       23.133 -21.352   6.633  0.00  0.00    -0.234 NA
ENDROOT
BRANCH   4   7
ATOM      7  N   LIG    1       26.633 -20.629   6.046  0.00  0.00    +0.100 N 
ATOM      8  O   LIG    1       27.121 -19.837   5.229  0.00  0.00    -0.575 OA
ATOM      9  O   LIG    1       27.269 -21.262   6.895  0.00  0.00    +0.043 OA
ENDBRANCH   4   7
BRANCH   3  10
ATOM     10  C   LIG    1       24.733 -20.260   3.560  0.00  0.00    +0.160 C 
BRANCH  10  11
ATOM     11  C   LIG    1       24.384 -18.787   3.304  0.00  0.00    +0.131 C 
ATOM     12  C   LIG    1       25.633 -17.912   3.280  0.00  0.00    +0.039 C 
BRANCH  11  13
ATOM     13  O   LIG    1       23.544 -18.306   4.354  0.00  0.00    -0.390 OA
ATOM     14  H   LIG    1       23.056 -19.068   4.716  0.00  0.00    +0.210 HD
ENDBRANCH  11  13
ENDBRANCH  10  11
ENDBRANCH   3  10
TORSDOF 4
ENDMDL
MODEL 9
REMARK VINA RESULT:      -3.2      5.853      7.061
REMARK  Name = *****
REMARK                            x       y       z     vdW  Elec       q    Type
REMARK                         _______ _______ _______ _____ _____    ______ ____
ROOT
ATOM      1  C   LIG    1       26.615 -20.927   5.924  0.00  0.00    +0.086 C 
ATOM      2  C   LIG    1       25.133 -20.814   5.973  0.00  0.00    +0.112 A 
ATOM      3  N   LIG    1       24.321 -20.486   4.892  0.00  0.00    -0.268 N 
ATOM      4  C   LIG    1       23.031 -20.482   5.375  0.00  0.00    +0.368 A 
ATOM      5  C   LIG    1       23.114 -20.812   6.703  0.00  0.00    +0.217 A 
ATOM      6  N   LIG    1       24.414 -21.015   7.062  0.00  0.00    -0.234 NA
ENDROOT
BRANCH   4   7
ATOM      7  N   LIG    1       21.847 -20.189   4.643  0.00  0.00    +0.100 N 
ATOM      8  O   LIG    1       21.571 -18.999   4.444  0.00  0.00    -0.575 OA
ATOM      9  O   LIG    1       21.172 -21.153   4.268  0.00  0.00    +0.043 OA
ENDBRANCH   4   7
BRANCH   3  10
ATOM     10  C   LIG    1       24.794 -20.259   3.529  0.00  0.00    +0.160 C 
BRANCH  10  11
ATOM     11  C   LIG    1       25.004 -18.774   3.196  0.00  0.00    +0.131 C 
ATOM     12  C   LIG    1       26.362 -18.279   3.682  0.00  0.00    +0.039 C 
BRANCH  11  13
ATOM     13  O   LIG    1       24.004 -17.992   3.850  0.00  0.00    -0.390 OA
ATOM     14  H   LIG    1       24.074 -17.080   3.513  0.00  0.00    +0.210 HD
ENDBRANCH  11  13
ENDBRANCH  10  11
ENDBRANCH   3  10
TORSDOF 4
ENDMDL
