MODEL 1
REMARK VINA RESULT:       5.0      0.000      0.000
REMARK  Name = *****
REMARK                            x       y       z     vdW  Elec       q    Type
REMARK                         _______ _______ _______ _____ _____    ______ ____
ROOT
ATOM      1  C   LIG    1       25.094 -17.869   3.541  0.00  0.00    +0.162 A 
ATOM      2  C   LIG    1       25.818 -16.715   3.779  0.00  0.00    +0.167 A 
ATOM      3  O   LIG    1       27.127 -16.352   3.604  0.00  0.00    -0.476 OA
ATOM      4  C   LIG    1       27.075 -14.903   3.451  0.00  0.00    +0.253 C 
ATOM      5  C   LIG    1       26.191 -14.305   4.537  0.00  0.00    +0.075 C 
ATOM      6  C   LIG    1       25.771 -12.580   4.251  0.00  0.00    +0.096 C 
ATOM      7  C   LIG    1       23.819 -12.414   4.119  0.00  0.00    +0.093 C 
ATOM      8  N   LIG    1       23.529 -12.667   2.769  0.00  0.00    -0.299 NA
ATOM      9  C   LIG    1       24.368 -13.823   2.945  0.00  0.00    +0.085 C 
ATOM     10  C   LIG    1       23.899 -11.654   1.812  0.00  0.00    +0.105 C 
ATOM     11  C   LIG    1       22.742 -13.955   4.613  0.00  0.00    +0.057 C 
ATOM     12  C   LIG    1       23.473 -15.606   4.311  0.00  0.00    -0.038 A 
ATOM     13  C   LIG    1       22.809 -16.769   4.048  0.00  0.00    +0.008 A 
ATOM     14  C   LIG    1       26.780 -12.037   3.202  0.00  0.00    +0.045 C 
ATOM     15  C   LIG    1       28.211 -12.556   3.502  0.00  0.00    +0.081 C 
ATOM     16  C   LIG    1       24.882 -14.055   4.869  0.00  0.00    +0.034 C 
ATOM     17  C   LIG    1       28.361 -14.087   3.551  0.00  0.00    +0.174 C 
ATOM     18  O   LIG    1       29.475 -14.605   3.636  0.00  0.00    -0.293 OA
ATOM     19  C   LIG    1       25.079 -15.657   4.205  0.00  0.00    +0.014 A 
ATOM     20  C   LIG    1       23.639 -17.877   3.685  0.00  0.00    +0.050 A 
ENDROOT
BRANCH   1  22
ATOM     21  C   LIG    1       24.970 -20.239   3.634  0.00  0.00    +0.277 C 
ATOM     22  O   LIG    1       25.602 -19.073   3.120  0.00  0.00    -0.491 OA
ENDBRANCH   1  22
BRANCH   6  23
ATOM     23  O   LIG    1       26.154 -11.818   5.444  0.00  0.00    -0.386 OA
ATOM     24  H   LIG    1       25.562 -11.045   5.493  0.00  0.00    +0.210 HD
ENDBRANCH   6  23
TORSDOF 2
ENDMDL
MODEL 2
REMARK VINA RESULT:       5.4      2.635      6.051
REMARK  Name = *****
REMARK                            x       y       z     vdW  Elec       q    Type
REMARK                         _______ _______ _______ _____ _____    ______ ____
ROOT
ATOM      1  C   LIG    1       24.558 -15.184   4.100  0.00  0.00    +0.162 A 
ATOM      2  C   LIG    1       25.193 -16.411   4.061  0.00  0.00    +0.167 A 
ATOM      3  O   LIG    1       26.484 -16.827   4.246  0.00  0.00    -0.476 OA
ATOM      4  C   LIG    1       26.351 -18.213   4.682  0.00  0.00    +0.253 C 
ATOM      5  C   LIG    1       25.371 -18.943   3.773  0.00  0.00    +0.075 C 
ATOM      6  C   LIG    1       24.861 -20.545   4.409  0.00  0.00    +0.096 C 
ATOM      7  C   LIG    1       22.913 -20.541   4.657  0.00  0.00    +0.093 C 
ATOM      8  N   LIG    1       22.717 -20.013   5.942  0.00  0.00    -0.299 NA
ATOM      9  C   LIG    1       23.615 -18.976   5.508  0.00  0.00    +0.085 C 
ATOM     10  C   LIG    1       23.076 -20.847   7.062  0.00  0.00    +0.105 C 
ATOM     11  C   LIG    1       21.908 -19.049   3.918  0.00  0.00    +0.057 C 
ATOM     12  C   LIG    1       22.757 -17.429   3.859  0.00  0.00    -0.038 A 
ATOM     13  C   LIG    1       22.183 -16.192   3.919  0.00  0.00    +0.008 A 
ATOM     14  C   LIG    1       25.892 -20.948   5.499  0.00  0.00    +0.045 C 
ATOM     15  C   LIG    1       27.334 -20.601   5.041  0.00  0.00    +0.081 C 
ATOM     16  C   LIG    1       24.032 -19.156   3.554  0.00  0.00    +0.034 C 
ATOM     17  C   LIG    1       27.576 -19.124   4.687  0.00  0.00    +0.174 C 
ATOM     18  O   LIG    1       28.713 -18.713   4.453  0.00  0.00    -0.293 OA
ATOM     19  C   LIG    1       24.366 -17.475   3.883  0.00  0.00    +0.014 A 
ATOM     20  C   LIG    1       23.101 -15.098   4.021  0.00  0.00    +0.050 A 
ENDROOT
BRANCH   1  22
ATOM     21  C   LIG    1       24.371 -12.821   3.943  0.00  0.00    +0.277 C 
ATOM     22  O   LIG    1       25.163 -13.961   4.254  0.00  0.00    -0.491 OA
ENDBRANCH   1  22
BRANCH   6  23
ATOM     23  O   LIG    1       25.126 -21.548   3.373  0.00  0.00    -0.386 OA
ATOM     24  H   LIG    1       24.311 -22.070   3.263  0.00  0.00    +0.210 HD
ENDBRANCH   6  23
TORSDOF 2
ENDMDL
MODEL 3
REMARK VINA RESULT:       6.4      2.537      6.031
REMARK  Name = *****
REMARK                            x       y       z     vdW  Elec       q    Type
REMARK                         _______ _______ _______ _____ _____    ______ ____
ROOT
ATOM      1  C   LIG    1       27.257 -15.455   3.930  0.00  0.00    +0.162 A 
ATOM      2  C   LIG    1       27.297 -16.819   4.157  0.00  0.00    +0.167 A 
ATOM      3  O   LIG    1       28.174 -17.659   4.789  0.00  0.00    -0.476 OA
ATOM      4  C   LIG    1       27.347 -18.787   5.204  0.00  0.00    +0.253 C 
ATOM      5  C   LIG    1       26.470 -19.233   4.042  0.00  0.00    +0.075 C 
ATOM      6  C   LIG    1       25.170 -20.377   4.523  0.00  0.00    +0.096 C 
ATOM      7  C   LIG    1       23.428 -19.582   4.088  0.00  0.00    +0.093 C 
ATOM      8  N   LIG    1       23.101 -18.803   5.207  0.00  0.00    -0.299 NA
ATOM      9  C   LIG    1       24.436 -18.284   5.069  0.00  0.00    +0.085 C 
ATOM     10  C   LIG    1       22.726 -19.499   6.412  0.00  0.00    +0.105 C 
ATOM     11  C   LIG    1       23.413 -17.975   2.994  0.00  0.00    +0.057 C 
ATOM     12  C   LIG    1       24.840 -16.842   3.170  0.00  0.00    -0.038 A 
ATOM     13  C   LIG    1       24.851 -15.490   2.983  0.00  0.00    +0.008 A 
ATOM     14  C   LIG    1       25.561 -20.947   5.915  0.00  0.00    +0.045 C 
ATOM     15  C   LIG    1       27.079 -21.266   5.966  0.00  0.00    +0.081 C 
ATOM     16  C   LIG    1       25.297 -18.950   3.385  0.00  0.00    +0.034 C 
ATOM     17  C   LIG    1       28.013 -20.082   5.662  0.00  0.00    +0.174 C 
ATOM     18  O   LIG    1       29.230 -20.188   5.818  0.00  0.00    -0.293 OA
ATOM     19  C   LIG    1       26.194 -17.498   3.746  0.00  0.00    +0.014 A 
ATOM     20  C   LIG    1       26.067 -14.832   3.353  0.00  0.00    +0.050 A 
ENDROOT
BRANCH   1  22
ATOM     21  C   LIG    1       28.214 -13.319   3.530  0.00  0.00    +0.277 C 
ATOM     22  O   LIG    1       28.245 -14.552   4.238  0.00  0.00    -0.491 OA
ENDBRANCH   1  22
BRANCH   6  23
ATOM     23  O   LIG    1       25.283 -21.571   3.679  0.00  0.00    -0.386 OA
ATOM     24  H   LIG    1       24.758 -22.274   4.103  0.00  0.00    +0.210 HD
ENDBRANCH   6  23
TORSDOF 2
ENDMDL
MODEL 4
REMARK VINA RESULT:       7.7      2.321      3.839
REMARK  Name = *****
REMARK                            x       y       z     vdW  Elec       q    Type
REMARK                         _______ _______ _______ _____ _____    ______ ____
ROOT
ATOM      1  C   LIG    1       23.493 -17.493   4.453  0.00  0.00    +0.162 A 
ATOM      2  C   LIG    1       23.440 -16.112   4.494  0.00  0.00    +0.167 A 
ATOM      3  O   LIG    1       22.676 -15.204   5.177  0.00  0.00    -0.476 OA
ATOM      4  C   LIG    1       23.519 -14.015   5.247  0.00  0.00    +0.253 C 
ATOM      5  C   LIG    1       24.113 -13.728   3.875  0.00  0.00    +0.075 C 
ATOM      6  C   LIG    1       25.432 -12.506   3.907  0.00  0.00    +0.096 C 
ATOM      7  C   LIG    1       27.080 -13.328   3.224  0.00  0.00    +0.093 C 
ATOM      8  N   LIG    1       27.668 -13.934   4.344  0.00  0.00    -0.299 NA
ATOM      9  C   LIG    1       26.358 -14.488   4.566  0.00  0.00    +0.085 C 
ATOM     10  C   LIG    1       28.253 -13.066   5.335  0.00  0.00    +0.105 C 
ATOM     11  C   LIG    1       26.939 -15.076   2.384  0.00  0.00    +0.057 C 
ATOM     12  C   LIG    1       25.633 -16.193   3.013  0.00  0.00    -0.038 A 
ATOM     13  C   LIG    1       25.645 -17.559   3.020  0.00  0.00    +0.008 A 
ATOM     14  C   LIG    1       25.314 -11.748   5.258  0.00  0.00    +0.045 C 
ATOM     15  C   LIG    1       23.827 -11.448   5.587  0.00  0.00    +0.081 C 
ATOM     16  C   LIG    1       25.136 -14.084   3.029  0.00  0.00    +0.034 C 
ATOM     17  C   LIG    1       22.905 -12.678   5.655  0.00  0.00    +0.174 C 
ATOM     18  O   LIG    1       21.744 -12.570   6.049  0.00  0.00    -0.293 OA
ATOM     19  C   LIG    1       24.401 -15.483   3.768  0.00  0.00    +0.014 A 
ATOM     20  C   LIG    1       24.564 -18.175   3.727  0.00  0.00    +0.050 A 
ENDROOT
BRANCH   1  22
ATOM     21  C   LIG    1       22.821 -19.742   4.816  0.00  0.00    +0.277 C 
ATOM     22  O   LIG    1       22.634 -18.358   5.085  0.00  0.00    -0.491 OA
ENDBRANCH   1  22
BRANCH   6  23
ATOM     23  O   LIG    1       25.091 -11.448   2.950  0.00  0.00    -0.386 OA
ATOM     24  H   LIG    1       25.162 -11.834   2.058  0.00  0.00    +0.210 HD
ENDBRANCH   6  23
TORSDOF 2
ENDMDL
MODEL 5
REMARK VINA RESULT:       7.9      2.950      6.127
REMARK  Name = *****
REMARK                            x       y       z     vdW  Elec       q    Type
REMARK                         _______ _______ _______ _____ _____    ______ ____
ROOT
ATOM      1  C   LIG    1       23.173 -15.801   4.051  0.00  0.00    +0.162 A 
ATOM      2  C   LIG    1       24.245 -16.673   4.003  0.00  0.00    +0.167 A 
ATOM      3  O   LIG    1       25.598 -16.536   4.167  0.00  0.00    -0.476 OA
ATOM      4  C   LIG    1       26.036 -17.856   4.608  0.00  0.00    +0.253 C 
ATOM      5  C   LIG    1       25.417 -18.924   3.716  0.00  0.00    +0.075 C 
ATOM      6  C   LIG    1       25.599 -20.592   4.364  0.00  0.00    +0.096 C 
ATOM      7  C   LIG    1       23.816 -21.365   4.645  0.00  0.00    +0.093 C 
ATOM      8  N   LIG    1       23.445 -20.949   5.932  0.00  0.00    -0.299 NA
ATOM      9  C   LIG    1       23.847 -19.643   5.480  0.00  0.00    +0.085 C 
ATOM     10  C   LIG    1       24.124 -21.560   7.046  0.00  0.00    +0.105 C 
ATOM     11  C   LIG    1       22.288 -20.406   3.920  0.00  0.00    +0.057 C 
ATOM     12  C   LIG    1       22.417 -18.582   3.845  0.00  0.00    -0.038 A 
ATOM     13  C   LIG    1       21.397 -17.676   3.912  0.00  0.00    +0.008 A 
ATOM     14  C   LIG    1       26.722 -20.540   5.436  0.00  0.00    +0.045 C 
ATOM     15  C   LIG    1       27.898 -19.650   4.953  0.00  0.00    +0.081 C 
ATOM     16  C   LIG    1       24.271 -19.657   3.521  0.00  0.00    +0.034 C 
ATOM     17  C   LIG    1       27.524 -18.201   4.593  0.00  0.00    +0.174 C 
ATOM     18  O   LIG    1       28.398 -17.373   4.339  0.00  0.00    -0.293 OA
ATOM     19  C   LIG    1       23.911 -17.980   3.841  0.00  0.00    +0.014 A 
ATOM     20  C   LIG    1       21.802 -16.306   3.997  0.00  0.00    +0.050 A 
ENDROOT
BRANCH   1  22
ATOM     21  C   LIG    1       24.233 -13.772   3.420  0.00  0.00    +0.277 C 
ATOM     22  O   LIG    1       23.242 -14.437   4.194  0.00  0.00    -0.491 OA
ENDBRANCH   1  22
BRANCH   6  23
ATOM     23  O   LIG    1       26.229 -21.414   3.324  0.00  0.00    -0.386 OA
ATOM     24  H   LIG    1       27.119 -21.048   3.169  0.00  0.00    +0.210 HD
ENDBRANCH   6  23
TORSDOF 2
ENDMDL
