MODEL 1
REMARK VINA RESULT:       3.8      0.000      0.000
REMARK  Name = *****
REMARK                            x       y       z     vdW  Elec       q    Type
REMARK                         _______ _______ _______ _____ _____    ______ ____
ROOT
ATOM      1  C   LIG    1       24.773 -15.870   3.958  0.00  0.00    +0.117 A 
ATOM      2  C   LIG    1       23.837 -16.778   4.450  0.00  0.00    +0.050 A 
ATOM      3  C   LIG    1       24.034 -18.164   4.309  0.00  0.00    -0.032 A 
ATOM      4  C   LIG    1       23.051 -19.182   4.931  0.00  0.00    +0.028 C 
ATOM      5  C   LIG    1       23.434 -19.285   6.431  0.00  0.00    +0.030 C 
ATOM      6  C   LIG    1       24.832 -19.895   6.624  0.00  0.00    +0.086 C 
ATOM      7  N   LIG    1       25.073 -21.136   5.849  0.00  0.00    -0.296 NA
ATOM      8  C   LIG    1       24.689 -21.011   4.403  0.00  0.00    +0.093 C 
ATOM      9  C   LIG    1       25.537 -20.070   3.526  0.00  0.00    +0.057 C 
ATOM     10  C   LIG    1       23.192 -20.611   4.316  0.00  0.00    +0.091 C 
ATOM     11  C   LIG    1       22.572 -20.761   2.905  0.00  0.00    +0.037 C 
ATOM     12  C   LIG    1       21.952 -19.485   2.345  0.00  0.00    +0.003 C 
ATOM     13  C   LIG    1       21.054 -18.764   3.346  0.00  0.00    +0.001 C 
ATOM     14  C   LIG    1       21.566 -18.766   4.790  0.00  0.00    +0.014 C 
ATOM     15  C   LIG    1       25.217 -18.605   3.680  0.00  0.00    -0.042 A 
ATOM     16  C   LIG    1       26.138 -17.672   3.168  0.00  0.00    +0.007 A 
ATOM     17  C   LIG    1       25.918 -16.305   3.311  0.00  0.00    +0.045 A 
ENDROOT
BRANCH   1  18
ATOM     18  O   LIG    1       24.529 -14.542   4.150  0.00  0.00    -0.507 OA
ATOM     19  H   LIG    1       23.580 -14.424   4.315  0.00  0.00    +0.292 HD
ENDBRANCH   1  18
BRANCH  10  20
ATOM     20  O   LIG    1       22.464 -21.572   5.131  0.00  0.00    -0.386 OA
ATOM     21  H   LIG    1       21.523 -21.301   5.064  0.00  0.00    +0.210 HD
ENDBRANCH  10  20
BRANCH   7  22
ATOM     22  C   LIG    1       26.469 -21.572   6.073  0.00  0.00    +0.088 C 
BRANCH  22  23
ATOM     23  C   LIG    1       27.380 -20.486   6.643  0.00  0.00    +0.003 C 
ATOM     24  C   LIG    1       28.845 -20.820   7.062  0.00  0.00    +0.005 C 
ATOM     25  C   LIG    1       29.257 -19.467   6.452  0.00  0.00    +0.001 C 
ATOM     26  C   LIG    1       28.018 -19.584   5.546  0.00  0.00    +0.005 C 
ENDBRANCH  22  23
ENDBRANCH   7  22
TORSDOF 4
ENDMDL
MODEL 2
REMARK VINA RESULT:       4.1      3.265      5.816
REMARK  Name = *****
REMARK                            x       y       z     vdW  Elec       q    Type
REMARK                         _______ _______ _______ _____ _____    ______ ____
ROOT
ATOM      1  C   LIG    1       28.611 -12.221   5.058  0.00  0.00    +0.117 A 
ATOM      2  C   LIG    1       27.277 -12.548   5.296  0.00  0.00    +0.050 A 
ATOM      3  C   LIG    1       26.545 -13.313   4.370  0.00  0.00    -0.032 A 
ATOM      4  C   LIG    1       25.096 -13.759   4.666  0.00  0.00    +0.028 C 
ATOM      5  C   LIG    1       25.210 -14.999   5.592  0.00  0.00    +0.030 C 
ATOM      6  C   LIG    1       25.868 -16.190   4.876  0.00  0.00    +0.086 C 
ATOM      7  N   LIG    1       25.309 -16.484   3.535  0.00  0.00    -0.296 NA
ATOM      8  C   LIG    1       25.204 -15.268   2.660  0.00  0.00    +0.093 C 
ATOM      9  C   LIG    1       26.520 -14.625   2.184  0.00  0.00    +0.057 C 
ATOM     10  C   LIG    1       24.328 -14.208   3.382  0.00  0.00    +0.091 C 
ATOM     11  C   LIG    1       23.864 -13.041   2.477  0.00  0.00    +0.037 C 
ATOM     12  C   LIG    1       24.255 -11.655   2.979  0.00  0.00    +0.003 C 
ATOM     13  C   LIG    1       23.961 -11.447   4.461  0.00  0.00    +0.001 C 
ATOM     14  C   LIG    1       24.243 -12.663   5.351  0.00  0.00    +0.014 C 
ATOM     15  C   LIG    1       27.209 -13.761   3.209  0.00  0.00    -0.042 A 
ATOM     16  C   LIG    1       28.548 -13.400   2.974  0.00  0.00    +0.007 A 
ATOM     17  C   LIG    1       29.251 -12.634   3.901  0.00  0.00    +0.045 A 
ENDROOT
BRANCH   1  18
ATOM     18  O   LIG    1       29.267 -11.497   6.009  0.00  0.00    -0.507 OA
ATOM     19  H   LIG    1       30.215 -11.701   5.952  0.00  0.00    +0.292 HD
ENDBRANCH   1  18
BRANCH  10  20
ATOM     20  O   LIG    1       23.095 -14.884   3.756  0.00  0.00    -0.386 OA
ATOM     21  H   LIG    1       23.311 -15.368   4.583  0.00  0.00    +0.210 HD
ENDBRANCH  10  20
BRANCH   7  22
ATOM     22  C   LIG    1       26.075 -17.599   2.936  0.00  0.00    +0.088 C 
BRANCH  22  23
ATOM     23  C   LIG    1       25.414 -18.967   3.092  0.00  0.00    +0.003 C 
ATOM     24  C   LIG    1       25.690 -19.842   4.353  0.00  0.00    +0.005 C 
ATOM     25  C   LIG    1       24.196 -20.215   4.340  0.00  0.00    +0.001 C 
ATOM     26  C   LIG    1       23.948 -18.883   3.610  0.00  0.00    +0.005 C 
ENDBRANCH  22  23
ENDBRANCH   7  22
TORSDOF 4
ENDMDL
