MODEL 1
REMARK VINA RESULT:       4.4      0.000      0.000
REMARK  Name = *****
REMARK                            x       y       z     vdW  Elec       q    Type
REMARK                         _______ _______ _______ _____ _____    ______ ____
ROOT
ATOM      1  C   LIG    1       22.679 -19.041   3.958  0.00  0.00    +0.192 A 
ATOM      2  N   LIG    1       22.212 -17.787   3.804  0.00  0.00    -0.205 NA
ATOM      3  C   LIG    1       23.099 -16.745   3.699  0.00  0.00    +0.153 A 
ATOM      4  C   LIG    1       24.463 -17.057   3.747  0.00  0.00    +0.171 A 
ATOM      5  N   LIG    1       25.615 -16.316   3.719  0.00  0.00    -0.124 NA
ATOM      6  N   LIG    1       26.650 -17.144   3.865  0.00  0.00    -0.063 NA
ATOM      7  N   LIG    1       26.155 -18.408   3.909  0.00  0.00    -0.221 N 
ATOM      8  C   LIG    1       24.790 -18.407   3.880  0.00  0.00    +0.185 A 
ATOM      9  N   LIG    1       23.958 -19.441   3.999  0.00  0.00    -0.201 NA
ENDROOT
BRANCH   7  10
ATOM     10  C   LIG    1       26.986 -19.553   4.198  0.00  0.00    +0.145 C 
ATOM     11  C   LIG    1       28.011 -19.319   5.309  0.00  0.00    +0.170 C 
ATOM     12  C   LIG    1       28.112 -20.685   5.998  0.00  0.00    +0.174 C 
ATOM     13  C   LIG    1       26.651 -21.167   6.013  0.00  0.00    +0.151 C 
ATOM     14  C   LIG    1       26.148 -20.774   4.619  0.00  0.00    +0.064 C 
BRANCH  11  15
ATOM     15  O   LIG    1       29.275 -18.922   4.771  0.00  0.00    -0.387 OA
ATOM     16  H   LIG    1       29.560 -19.658   4.189  0.00  0.00    +0.210 HD
ENDBRANCH  11  15
BRANCH  12  17
ATOM     17  O   LIG    1       28.929 -21.535   5.177  0.00  0.00    -0.387 OA
ATOM     18  H   LIG    1       28.538 -21.535   4.284  0.00  0.00    +0.210 HD
ENDBRANCH  12  17
BRANCH  13  19
ATOM     19  O   LIG    1       25.936 -20.506   7.062  0.00  0.00    -0.372 OA
BRANCH  19  20
ATOM     20  C   LIG    1       24.549 -20.310   6.769  0.00  0.00    +0.188 C 
BRANCH  20  21
ATOM     21  C   LIG    1       23.743 -21.571   7.057  0.00  0.00    +0.184 C 
BRANCH  21  22
ATOM     22  O   LIG    1       22.385 -21.380   6.668  0.00  0.00    -0.393 OA
ATOM     23  H   LIG    1       22.395 -20.897   5.822  0.00  0.00    +0.209 HD
ENDBRANCH  21  22
ENDBRANCH  20  21
ENDBRANCH  19  20
ENDBRANCH  13  19
ENDBRANCH   7  10
BRANCH   3  24
ATOM     24  N   LIG    1       22.654 -15.425   3.610  0.00  0.00    -0.324 N 
ATOM     25  H   LIG    1       21.677 -15.314   3.351  0.00  0.00    +0.148 HD
BRANCH  24  26
ATOM     26  C   LIG    1       23.540 -14.297   3.833  0.00  0.00    +0.080 C 
ATOM     27  C   LIG    1       24.899 -14.218   3.173  0.00  0.00    +0.041 C 
ATOM     28  C   LIG    1       23.772 -13.320   2.721  0.00  0.00    +0.033 C 
BRANCH  27  29
ATOM     29  C   LIG    1       26.083 -13.610   3.890  0.00  0.00    -0.040 A 
ATOM     30  C   LIG    1       27.206 -13.162   3.173  0.00  0.00    +0.045 A 
ATOM     31  C   LIG    1       28.307 -12.617   3.831  0.00  0.00    +0.159 A 
ATOM     32  F   LIG    1       29.359 -12.197   3.113  0.00  0.00    -0.203 F 
ATOM     33  C   LIG    1       28.318 -12.512   5.214  0.00  0.00    +0.158 A 
ATOM     34  F   LIG    1       29.378 -11.989   5.845  0.00  0.00    -0.203 F 
ATOM     35  C   LIG    1       27.230 -12.957   5.954  0.00  0.00    +0.041 A 
ATOM     36  C   LIG    1       26.124 -13.504   5.294  0.00  0.00    +0.007 A 
ENDBRANCH  27  29
ENDBRANCH  24  26
ENDBRANCH   3  24
BRANCH   1  37
ATOM     37  S   LIG    1       21.469 -20.338   4.101  0.00  0.00    -0.086 S 
BRANCH  37  38
ATOM     38  C   LIG    1       19.975 -19.288   4.101  0.00  0.00    +0.077 C 
BRANCH  38  40
ATOM     39  C   LIG    1       19.488 -17.364   2.505  0.00  0.00    +0.004 C 
ATOM     40  C   LIG    1       19.527 -18.874   2.697  0.00  0.00    +0.008 C 
ENDBRANCH  38  40
ENDBRANCH  37  38
ENDBRANCH   1  37
TORSDOF 13
ENDMDL
MODEL 2
REMARK VINA RESULT:       6.3      3.016      5.454
REMARK  Name = *****
REMARK                            x       y       z     vdW  Elec       q    Type
REMARK                         _______ _______ _______ _____ _____    ______ ____
ROOT
ATOM      1  C   LIG    1       28.539 -18.303   5.853  0.00  0.00    +0.192 A 
ATOM      2  N   LIG    1       29.098 -17.171   5.381  0.00  0.00    -0.205 NA
ATOM      3  C   LIG    1       28.428 -16.431   4.440  0.00  0.00    +0.153 A 
ATOM      4  C   LIG    1       27.175 -16.899   4.029  0.00  0.00    +0.171 A 
ATOM      5  N   LIG    1       26.251 -16.477   3.109  0.00  0.00    -0.124 NA
ATOM      6  N   LIG    1       25.249 -17.357   3.087  0.00  0.00    -0.063 NA
ATOM      7  N   LIG    1       25.506 -18.288   4.042  0.00  0.00    -0.221 N 
ATOM      8  C   LIG    1       26.718 -18.071   4.632  0.00  0.00    +0.185 A 
ATOM      9  N   LIG    1       27.345 -18.823   5.537  0.00  0.00    -0.201 NA
ENDROOT
BRANCH   7  10
ATOM     10  C   LIG    1       24.695 -19.472   4.204  0.00  0.00    +0.145 C 
ATOM     11  C   LIG    1       23.592 -19.336   5.256  0.00  0.00    +0.170 C 
ATOM     12  C   LIG    1       22.452 -20.192   4.692  0.00  0.00    +0.174 C 
ATOM     13  C   LIG    1       22.500 -19.876   3.187  0.00  0.00    +0.151 C 
ATOM     14  C   LIG    1       24.004 -19.874   2.888  0.00  0.00    +0.064 C 
BRANCH  11  15
ATOM     15  O   LIG    1       24.024 -19.832   6.525  0.00  0.00    -0.387 OA
ATOM     16  H   LIG    1       24.444 -19.071   6.979  0.00  0.00    +0.210 HD
ENDBRANCH  11  15
BRANCH  12  17
ATOM     17  O   LIG    1       22.768 -21.571   4.941  0.00  0.00    -0.387 OA
ATOM     18  H   LIG    1       22.721 -22.036   4.087  0.00  0.00    +0.210 HD
ENDBRANCH  12  17
BRANCH  13  19
ATOM     19  O   LIG    1       21.890 -18.605   2.941  0.00  0.00    -0.372 OA
BRANCH  19  20
ATOM     20  C   LIG    1       21.054 -18.158   4.013  0.00  0.00    +0.188 C 
BRANCH  20  21
ATOM     21  C   LIG    1       21.621 -16.905   4.669  0.00  0.00    +0.184 C 
BRANCH  21  22
ATOM     22  O   LIG    1       22.746 -16.436   3.930  0.00  0.00    -0.393 OA
ATOM     23  H   LIG    1       22.973 -17.128   3.284  0.00  0.00    +0.209 HD
ENDBRANCH  21  22
ENDBRANCH  20  21
ENDBRANCH  19  20
ENDBRANCH  13  19
ENDBRANCH   7  10
BRANCH   3  24
ATOM     24  N   LIG    1       29.004 -15.292   3.875  0.00  0.00    -0.324 N 
ATOM     25  H   LIG    1       30.018 -15.243   3.939  0.00  0.00    +0.148 HD
BRANCH  24  26
ATOM     26  C   LIG    1       28.203 -14.239   3.278  0.00  0.00    +0.080 C 
ATOM     27  C   LIG    1       27.374 -13.300   4.127  0.00  0.00    +0.041 C 
ATOM     28  C   LIG    1       28.631 -12.812   3.446  0.00  0.00    +0.033 C 
BRANCH  27  29
ATOM     29  C   LIG    1       26.032 -12.793   3.650  0.00  0.00    -0.040 A 
ATOM     30  C   LIG    1       24.999 -12.520   4.565  0.00  0.00    +0.045 A 
ATOM     31  C   LIG    1       23.755 -12.069   4.128  0.00  0.00    +0.159 A 
ATOM     32  F   LIG    1       22.795 -11.817   5.030  0.00  0.00    -0.203 F 
ATOM     33  C   LIG    1       23.510 -11.885   2.776  0.00  0.00    +0.158 A 
ATOM     34  F   LIG    1       22.312 -11.451   2.357  0.00  0.00    -0.203 F 
ATOM     35  C   LIG    1       24.503 -12.156   1.845  0.00  0.00    +0.041 A 
ATOM     36  C   LIG    1       25.753 -12.609   2.282  0.00  0.00    +0.007 A 
ENDBRANCH  27  29
ENDBRANCH  24  26
ENDBRANCH   3  24
BRANCH   1  37
ATOM     37  S   LIG    1       29.473 -19.217   7.061  0.00  0.00    -0.086 S 
BRANCH  37  38
ATOM     38  C   LIG    1       29.189 -20.889   6.386  0.00  0.00    +0.077 C 
BRANCH  38  40
ATOM     39  C   LIG    1       26.738 -21.037   7.061  0.00  0.00    +0.004 C 
ATOM     40  C   LIG    1       27.747 -21.118   5.925  0.00  0.00    +0.008 C 
ENDBRANCH  38  40
ENDBRANCH  37  38
ENDBRANCH   1  37
TORSDOF 13
ENDMDL
