MODEL 1
REMARK VINA RESULT:      -4.5      0.000      0.000
REMARK  Name = *****
REMARK                            x       y       z     vdW  Elec       q    Type
REMARK                         _______ _______ _______ _____ _____    ______ ____
ROOT
ATOM      1  CA  LIG    1       26.365 -14.219   4.305  0.00  0.00    +0.161 C 
ENDROOT
BRANCH   1   2
ATOM      2  N   LIG    1       26.772 -13.258   5.356  0.00  0.00    -0.318 NA
ATOM      3  H1  LIG    1       27.769 -13.059   5.231  0.00  0.00    +0.119 HD
ATOM      4  H2  LIG    1       26.328 -12.359   5.146  0.00  0.00    +0.119 HD
ENDBRANCH   1   2
BRANCH   1   5
ATOM      5  C   LIG    1       27.171 -13.944   3.016  0.00  0.00    +0.322 C 
ATOM      6  O   LIG    1       26.766 -14.215   1.889  0.00  0.00    -0.249 OA
BRANCH   5   7
ATOM      7  OXT LIG    1       28.353 -13.318   3.209  0.00  0.00    -0.479 OA
ATOM      8  HXT LIG    1       28.993 -13.807   3.760  0.00  0.00    +0.295 HD
ENDBRANCH   5   7
ENDBRANCH   1   5
BRANCH   1   9
ATOM      9  C   LIG    1       24.854 -14.115   4.059  0.00  0.00    +0.031 C 
BRANCH   9  10
ATOM     10  C   LIG    1       24.284 -12.721   4.366  0.00  0.00    +0.017 C 
BRANCH  10  11
ATOM     11  C   LIG    1       23.940 -11.936   3.101  0.00  0.00    +0.078 C 
BRANCH  11  12
ATOM     12  N   LIG    1       24.016 -12.777   1.909  0.00  0.00    -0.330 NA
ATOM     13  H   LIG    1       23.080 -13.098   1.661  0.00  0.00    +0.118 HD
ATOM     14  H   LIG    1       24.333 -12.209   1.124  0.00  0.00    +0.118 HD
ENDBRANCH  11  12
ENDBRANCH  10  11
ENDBRANCH   9  10
ENDBRANCH   1   9
TORSDOF 7
ENDMDL
MODEL 2
REMARK VINA RESULT:      -4.2      1.699      1.903
REMARK  Name = *****
REMARK                            x       y       z     vdW  Elec       q    Type
REMARK                         _______ _______ _______ _____ _____    ______ ____
ROOT
ATOM      1  CA  LIG    1       26.552 -13.595   3.177  0.00  0.00    +0.161 C 
ENDROOT
BRANCH   1   2
ATOM      2  N   LIG    1       26.377 -14.219   1.845  0.00  0.00    -0.318 NA
ATOM      3  H1  LIG    1       27.291 -14.231   1.382  0.00  0.00    +0.119 HD
ATOM      4  H2  LIG    1       26.178 -15.213   1.990  0.00  0.00    +0.119 HD
ENDBRANCH   1   2
BRANCH   1   5
ATOM      5  C   LIG    1       27.948 -13.953   3.734  0.00  0.00    +0.322 C 
ATOM      6  O   LIG    1       28.876 -13.152   3.811  0.00  0.00    -0.249 OA
BRANCH   5   7
ATOM      7  OXT LIG    1       28.067 -15.217   4.195  0.00  0.00    -0.479 OA
ATOM      8  HXT LIG    1       27.594 -15.398   5.030  0.00  0.00    +0.295 HD
ENDBRANCH   5   7
ENDBRANCH   1   5
BRANCH   1   9
ATOM      9  C   LIG    1       25.433 -14.057   4.120  0.00  0.00    +0.031 C 
BRANCH   9  10
ATOM     10  C   LIG    1       24.034 -13.615   3.663  0.00  0.00    +0.017 C 
BRANCH  10  11
ATOM     11  C   LIG    1       23.983 -12.139   3.270  0.00  0.00    +0.078 C 
BRANCH  11  12
ATOM     12  N   LIG    1       23.948 -11.969   1.820  0.00  0.00    -0.330 NA
ATOM     13  H   LIG    1       24.425 -12.754   1.375  0.00  0.00    +0.118 HD
ATOM     14  H   LIG    1       22.979 -12.018   1.505  0.00  0.00    +0.118 HD
ENDBRANCH  11  12
ENDBRANCH  10  11
ENDBRANCH   9  10
ENDBRANCH   1   9
TORSDOF 7
ENDMDL
MODEL 3
REMARK VINA RESULT:      -4.1      2.343      3.953
REMARK  Name = *****
REMARK                            x       y       z     vdW  Elec       q    Type
REMARK                         _______ _______ _______ _____ _____    ______ ____
ROOT
ATOM      1  CA  LIG    1       25.515 -13.993   3.296  0.00  0.00    +0.161 C 
ENDROOT
BRANCH   1   2
ATOM      2  N   LIG    1       26.230 -14.094   2.002  0.00  0.00    -0.318 NA
ATOM      3  H1  LIG    1       26.820 -14.931   2.034  0.00  0.00    +0.119 HD
ATOM      4  H2  LIG    1       25.540 -14.326   1.281  0.00  0.00    +0.119 HD
ENDBRANCH   1   2
BRANCH   1   5
ATOM      5  C   LIG    1       24.388 -12.943   3.181  0.00  0.00    +0.322 C 
ATOM      6  O   LIG    1       23.920 -12.339   4.142  0.00  0.00    -0.249 OA
BRANCH   5   7
ATOM      7  OXT LIG    1       23.982 -12.684   1.918  0.00  0.00    -0.479 OA
ATOM      8  HXT LIG    1       23.483 -11.852   1.809  0.00  0.00    +0.295 HD
ENDBRANCH   5   7
ENDBRANCH   1   5
BRANCH   1   9
ATOM      9  C   LIG    1       26.506 -13.638   4.412  0.00  0.00    +0.031 C 
BRANCH   9  10
ATOM     10  C   LIG    1       27.972 -13.891   4.026  0.00  0.00    +0.017 C 
BRANCH  10  11
ATOM     11  C   LIG    1       28.825 -12.625   4.099  0.00  0.00    +0.078 C 
BRANCH  11  12
ATOM     12  N   LIG    1       28.852 -12.072   5.451  0.00  0.00    -0.330 NA
ATOM     13  H   LIG    1       28.077 -12.457   5.990  0.00  0.00    +0.118 HD
ATOM     14  H   LIG    1       29.702 -12.387   5.919  0.00  0.00    +0.118 HD
ENDBRANCH  11  12
ENDBRANCH  10  11
ENDBRANCH   9  10
ENDBRANCH   1   9
TORSDOF 7
ENDMDL
MODEL 4
REMARK VINA RESULT:      -4.1      6.919      7.883
REMARK  Name = *****
REMARK                            x       y       z     vdW  Elec       q    Type
REMARK                         _______ _______ _______ _____ _____    ______ ____
ROOT
ATOM      1  CA  LIG    1       22.875 -20.524   4.996  0.00  0.00    +0.161 C 
ENDROOT
BRANCH   1   2
ATOM      2  N   LIG    1       23.487 -21.510   4.076  0.00  0.00    -0.318 NA
ATOM      3  H1  LIG    1       23.666 -21.038   3.184  0.00  0.00    +0.119 HD
ATOM      4  H2  LIG    1       24.429 -21.718   4.421  0.00  0.00    +0.119 HD
ENDBRANCH   1   2
BRANCH   1   5
ATOM      5  C   LIG    1       22.933 -19.119   4.357  0.00  0.00    +0.322 C 
ATOM      6  O   LIG    1       22.074 -18.258   4.527  0.00  0.00    -0.249 OA
BRANCH   5   7
ATOM      7  OXT LIG    1       24.045 -18.872   3.629  0.00  0.00    -0.479 OA
ATOM      8  HXT LIG    1       23.959 -18.151   2.977  0.00  0.00    +0.295 HD
ENDBRANCH   5   7
ENDBRANCH   1   5
BRANCH   1   9
ATOM      9  C   LIG    1       23.597 -20.558   6.351  0.00  0.00    +0.031 C 
BRANCH   9  10
ATOM     10  C   LIG    1       24.903 -21.366   6.322  0.00  0.00    +0.017 C 
BRANCH  10  11
ATOM     11  C   LIG    1       26.137 -20.482   6.149  0.00  0.00    +0.078 C 
BRANCH  11  12
ATOM     12  N   LIG    1       26.464 -20.285   4.740  0.00  0.00    -0.330 NA
ATOM     13  H   LIG    1       26.370 -21.170   4.242  0.00  0.00    +0.118 HD
ATOM     14  H   LIG    1       25.775 -19.658   4.325  0.00  0.00    +0.118 HD
ENDBRANCH  11  12
ENDBRANCH  10  11
ENDBRANCH   9  10
ENDBRANCH   1   9
TORSDOF 7
ENDMDL
MODEL 5
REMARK VINA RESULT:      -4.0      1.724      1.941
REMARK  Name = *****
REMARK                            x       y       z     vdW  Elec       q    Type
REMARK                         _______ _______ _______ _____ _____    ______ ____
ROOT
ATOM      1  CA  LIG    1       27.025 -14.270   2.713  0.00  0.00    +0.161 C 
ENDROOT
BRANCH   1   2
ATOM      2  N   LIG    1       26.562 -15.575   3.238  0.00  0.00    -0.318 NA
ATOM      3  H1  LIG    1       25.713 -15.409   3.786  0.00  0.00    +0.119 HD
ATOM      4  H2  LIG    1       26.221 -16.127   2.445  0.00  0.00    +0.119 HD
ENDBRANCH   1   2
BRANCH   1   5
ATOM      5  C   LIG    1       27.910 -13.574   3.771  0.00  0.00    +0.322 C 
ATOM      6  O   LIG    1       27.569 -13.405   4.938  0.00  0.00    -0.249 OA
BRANCH   5   7
ATOM      7  OXT LIG    1       29.135 -13.207   3.333  0.00  0.00    -0.479 OA
ATOM      8  HXT LIG    1       29.138 -12.676   2.515  0.00  0.00    +0.295 HD
ENDBRANCH   5   7
ENDBRANCH   1   5
BRANCH   1   9
ATOM      9  C   LIG    1       25.818 -13.404   2.329  0.00  0.00    +0.031 C 
BRANCH   9  10
ATOM     10  C   LIG    1       24.633 -13.552   3.296  0.00  0.00    +0.017 C 
BRANCH  10  11
ATOM     11  C   LIG    1       23.856 -12.248   3.476  0.00  0.00    +0.078 C 
BRANCH  11  12
ATOM     12  N   LIG    1       23.857 -11.449   2.254  0.00  0.00    -0.330 NA
ATOM     13  H   LIG    1       24.725 -11.610   1.743  0.00  0.00    +0.118 HD
ATOM     14  H   LIG    1       23.109 -11.778   1.643  0.00  0.00    +0.118 HD
ENDBRANCH  11  12
ENDBRANCH  10  11
ENDBRANCH   9  10
ENDBRANCH   1   9
TORSDOF 7
ENDMDL
MODEL 6
REMARK VINA RESULT:      -3.9      7.509      8.295
REMARK  Name = *****
REMARK                            x       y       z     vdW  Elec       q    Type
REMARK                         _______ _______ _______ _____ _____    ______ ____
ROOT
ATOM      1  CA  LIG    1       24.017 -20.717   4.243  0.00  0.00    +0.161 C 
ENDROOT
BRANCH   1   2
ATOM      2  N   LIG    1       24.673 -19.464   3.802  0.00  0.00    -0.318 NA
ATOM      3  H1  LIG    1       23.942 -18.763   3.651  0.00  0.00    +0.119 HD
ATOM      4  H2  LIG    1       25.194 -19.087   4.599  0.00  0.00    +0.119 HD
ENDBRANCH   1   2
BRANCH   1   5
ATOM      5  C   LIG    1       22.668 -20.381   4.916  0.00  0.00    +0.322 C 
ATOM      6  O   LIG    1       22.377 -19.265   5.339  0.00  0.00    -0.249 OA
BRANCH   5   7
ATOM      7  OXT LIG    1       21.785 -21.404   4.959  0.00  0.00    -0.479 OA
ATOM      8  HXT LIG    1       21.259 -21.528   4.147  0.00  0.00    +0.295 HD
ENDBRANCH   5   7
ENDBRANCH   1   5
BRANCH   1   9
ATOM      9  C   LIG    1       24.945 -21.486   5.192  0.00  0.00    +0.031 C 
BRANCH   9  10
ATOM     10  C   LIG    1       25.436 -20.641   6.378  0.00  0.00    +0.017 C 
BRANCH  10  11
ATOM     11  C   LIG    1       26.958 -20.504   6.412  0.00  0.00    +0.078 C 
BRANCH  11  12
ATOM     12  N   LIG    1       27.486 -20.056   5.126  0.00  0.00    -0.330 NA
ATOM     13  H   LIG    1       28.369 -20.531   4.938  0.00  0.00    +0.118 HD
ATOM     14  H   LIG    1       26.848 -20.350   4.387  0.00  0.00    +0.118 HD
ENDBRANCH  11  12
ENDBRANCH  10  11
ENDBRANCH   9  10
ENDBRANCH   1   9
TORSDOF 7
ENDMDL
MODEL 7
REMARK VINA RESULT:      -3.8      1.963      2.151
REMARK  Name = *****
REMARK                            x       y       z     vdW  Elec       q    Type
REMARK                         _______ _______ _______ _____ _____    ______ ____
ROOT
ATOM      1  CA  LIG    1       26.770 -13.727   3.399  0.00  0.00    +0.161 C 
ENDROOT
BRANCH   1   2
ATOM      2  N   LIG    1       28.083 -13.080   3.175  0.00  0.00    -0.318 NA
ATOM      3  H1  LIG    1       28.009 -12.503   2.331  0.00  0.00    +0.119 HD
ATOM      4  H2  LIG    1       28.221 -12.387   3.917  0.00  0.00    +0.119 HD
ENDBRANCH   1   2
BRANCH   1   5
ATOM      5  C   LIG    1       26.964 -15.254   3.531  0.00  0.00    +0.322 C 
ATOM      6  O   LIG    1       26.177 -16.082   3.081  0.00  0.00    -0.249 OA
BRANCH   5   7
ATOM      7  OXT LIG    1       28.113 -15.629   4.137  0.00  0.00    -0.479 OA
ATOM      8  HXT LIG    1       28.917 -15.528   3.594  0.00  0.00    +0.295 HD
ENDBRANCH   5   7
ENDBRANCH   1   5
BRANCH   1   9
ATOM      9  C   LIG    1       25.813 -13.377   2.251  0.00  0.00    +0.031 C 
BRANCH   9  10
ATOM     10  C   LIG    1       24.406 -12.988   2.731  0.00  0.00    +0.017 C 
BRANCH  10  11
ATOM     11  C   LIG    1       24.159 -13.363   4.191  0.00  0.00    +0.078 C 
BRANCH  11  12
ATOM     12  N   LIG    1       23.541 -14.681   4.311  0.00  0.00    -0.330 NA
ATOM     13  H   LIG    1       24.113 -15.271   4.915  0.00  0.00    +0.118 HD
ATOM     14  H   LIG    1       22.643 -14.583   4.785  0.00  0.00    +0.118 HD
ENDBRANCH  11  12
ENDBRANCH  10  11
ENDBRANCH   9  10
ENDBRANCH   1   9
TORSDOF 7
ENDMDL
MODEL 8
REMARK VINA RESULT:      -3.8      6.880      7.858
REMARK  Name = *****
REMARK                            x       y       z     vdW  Elec       q    Type
REMARK                         _______ _______ _______ _____ _____    ______ ____
ROOT
ATOM      1  CA  LIG    1       24.050 -20.501   5.289  0.00  0.00    +0.161 C 
ENDROOT
BRANCH   1   2
ATOM      2  N   LIG    1       22.954 -21.459   5.012  0.00  0.00    -0.318 NA
ATOM      3  H1  LIG    1       23.241 -22.044   4.221  0.00  0.00    +0.119 HD
ATOM      4  H2  LIG    1       22.917 -22.124   5.791  0.00  0.00    +0.119 HD
ENDBRANCH   1   2
BRANCH   1   5
ATOM      5  C   LIG    1       24.334 -19.664   4.022  0.00  0.00    +0.322 C 
ATOM      6  O   LIG    1       23.560 -18.820   3.577  0.00  0.00    -0.249 OA
BRANCH   5   7
ATOM      7  OXT LIG    1       25.540 -19.884   3.454  0.00  0.00    -0.479 OA
ATOM      8  HXT LIG    1       26.029 -20.650   3.811  0.00  0.00    +0.295 HD
ENDBRANCH   5   7
ENDBRANCH   1   5
BRANCH   1   9
ATOM      9  C   LIG    1       25.300 -21.260   5.755  0.00  0.00    +0.031 C 
BRANCH   9  10
ATOM     10  C   LIG    1       26.059 -20.545   6.883  0.00  0.00    +0.017 C 
BRANCH  10  11
ATOM     11  C   LIG    1       27.560 -20.447   6.612  0.00  0.00    +0.078 C 
BRANCH  11  12
ATOM     12  N   LIG    1       27.832 -20.015   5.244  0.00  0.00    -0.330 NA
ATOM     13  H   LIG    1       28.807 -19.727   5.166  0.00  0.00    +0.118 HD
ATOM     14  H   LIG    1       27.726 -20.813   4.618  0.00  0.00    +0.118 HD
ENDBRANCH  11  12
ENDBRANCH  10  11
ENDBRANCH   9  10
ENDBRANCH   1   9
TORSDOF 7
ENDMDL
MODEL 9
REMARK VINA RESULT:      -3.8      2.441      3.984
REMARK  Name = *****
REMARK                            x       y       z     vdW  Elec       q    Type
REMARK                         _______ _______ _______ _____ _____    ______ ____
ROOT
ATOM      1  CA  LIG    1       24.585 -13.089   2.443  0.00  0.00    +0.161 C 
ENDROOT
BRANCH   1   2
ATOM      2  N   LIG    1       23.971 -11.859   1.892  0.00  0.00    -0.318 NA
ATOM      3  H1  LIG    1       22.959 -12.012   1.833  0.00  0.00    +0.119 HD
ATOM      4  H2  LIG    1       24.053 -11.124   2.601  0.00  0.00    +0.119 HD
ENDBRANCH   1   2
BRANCH   1   5
ATOM      5  C   LIG    1       24.056 -13.332   3.874  0.00  0.00    +0.322 C 
ATOM      6  O   LIG    1       23.687 -14.428   4.286  0.00  0.00    -0.249 OA
BRANCH   5   7
ATOM      7  OXT LIG    1       24.080 -12.247   4.679  0.00  0.00    -0.479 OA
ATOM      8  HXT LIG    1       23.921 -11.396   4.229  0.00  0.00    +0.295 HD
ENDBRANCH   5   7
ENDBRANCH   1   5
BRANCH   1   9
ATOM      9  C   LIG    1       26.115 -12.962   2.421  0.00  0.00    +0.031 C 
BRANCH   9  10
ATOM     10  C   LIG    1       26.837 -14.264   2.802  0.00  0.00    +0.017 C 
BRANCH  10  11
ATOM     11  C   LIG    1       27.887 -14.055   3.892  0.00  0.00    +0.078 C 
BRANCH  11  12
ATOM     12  N   LIG    1       29.049 -13.328   3.387  0.00  0.00    -0.330 NA
ATOM     13  H   LIG    1       28.743 -12.629   2.710  0.00  0.00    +0.118 HD
ATOM     14  H   LIG    1       29.471 -12.807   4.155  0.00  0.00    +0.118 HD
ENDBRANCH  11  12
ENDBRANCH  10  11
ENDBRANCH   9  10
ENDBRANCH   1   9
TORSDOF 7
ENDMDL
