MODEL 1
REMARK VINA RESULT:      -7.4      0.000      0.000
REMARK  Name = *****
REMARK                            x       y       z     vdW  Elec       q    Type
REMARK                         _______ _______ _______ _____ _____    ______ ____
ROOT
ATOM      1  C   LIG    1       27.622 -20.329   7.663  0.00  0.00    +0.002 C 
ENDROOT
BRANCH   1   2
ATOM      2  C   LIG    1       26.428 -20.854   6.843  0.00  0.00    +0.000 C 
BRANCH   2   3
ATOM      3  C   LIG    1       26.352 -20.358   5.395  0.00  0.00    -0.000 C 
BRANCH   3   4
ATOM      4  C   LIG    1       25.005 -20.735   4.758  0.00  0.00    -0.000 C 
BRANCH   4   5
ATOM      5  C   LIG    1       23.843 -20.128   5.537  0.00  0.00    -0.000 C 
BRANCH   5   6
ATOM      6  C   LIG    1       22.742 -21.156   5.815  0.00  0.00    -0.000 C 
BRANCH   6   7
ATOM      7  C   LIG    1       23.147 -22.138   6.921  0.00  0.00    -0.000 C 
BRANCH   7   8
ATOM      8  C   LIG    1       22.499 -23.518   6.782  0.00  0.00    -0.000 C 
BRANCH   8   9
ATOM      9  C   LIG    1       23.546 -24.597   6.538  0.00  0.00    -0.000 C 
BRANCH   9  10
ATOM     10  C   LIG    1       24.965 -24.045   6.599  0.00  0.00    -0.000 C 
BRANCH  10  11
ATOM     11  C   LIG    1       25.995 -25.098   6.180  0.00  0.00    -0.000 C 
BRANCH  11  12
ATOM     12  C   LIG    1       25.457 -26.021   5.085  0.00  0.00    -0.000 C 
BRANCH  12  14
ATOM     13  C   LIG    1       24.350 -28.166   5.756  0.00  0.00    +0.004 C 
ATOM     14  C   LIG    1       25.670 -27.490   5.422  0.00  0.00    -0.003 C 
ENDBRANCH  12  14
ENDBRANCH  11  12
ENDBRANCH  10  11
ENDBRANCH   9  10
ENDBRANCH   8   9
ENDBRANCH   7   8
ENDBRANCH   6   7
ENDBRANCH   5   6
ENDBRANCH   4   5
ENDBRANCH   3   4
ENDBRANCH   2   3
ENDBRANCH   1   2
BRANCH   1  15
ATOM     15  C   LIG    1       28.733 -19.642   6.854  0.00  0.00    +0.029 C 
BRANCH  15  16
ATOM     16  C   LIG    1       30.158 -20.056   7.266  0.00  0.00    +0.172 C 
BRANCH  16  17
ATOM     17  O   LIG    1       30.087 -21.261   8.032  0.00  0.00    -0.287 OA
BRANCH  17  18
ATOM     18  P   LIG    1       31.176 -21.551   9.168  0.00  0.00    +0.475 P 
ATOM     19  O   LIG    1       30.680 -22.071  10.486  0.00  0.00    -0.227 OA
BRANCH  18  20
ATOM     20  O   LIG    1       32.187 -22.569   8.455  0.00  0.00    -0.302 OA
ATOM     21  H   LIG    1       33.122 -22.308   8.628  0.00  0.00    +0.222 HD
ENDBRANCH  18  20
BRANCH  18  22
ATOM     22  O   LIG    1       32.062 -20.209   9.252  0.00  0.00    -0.281 OA
BRANCH  22  23
ATOM     23  C   LIG    1       31.393 -18.970   9.450  0.00  0.00    +0.223 C 
BRANCH  23  24
ATOM     24  C   LIG    1       32.335 -17.757   9.272  0.00  0.00    +0.161 C 
BRANCH  24  25
ATOM     25  N   LIG    1       32.217 -16.622  10.331  0.00  0.00    +0.238 N 
ATOM     26  C   LIG    1       30.746 -16.506  10.754  0.00  0.00    +0.192 C 
ATOM     27  C   LIG    1       32.627 -15.283   9.725  0.00  0.00    +0.192 C 
ATOM     28  C   LIG    1       33.025 -16.908  11.591  0.00  0.00    +0.192 C 
ENDBRANCH  24  25
ENDBRANCH  23  24
ENDBRANCH  22  23
ENDBRANCH  18  22
ENDBRANCH  17  18
ENDBRANCH  16  17
ENDBRANCH  15  16
ENDBRANCH   1  15
TORSDOF 21
ENDMDL
MODEL 2
REMARK VINA RESULT:      -7.2      6.050     10.354
REMARK  Name = *****
REMARK                            x       y       z     vdW  Elec       q    Type
REMARK                         _______ _______ _______ _____ _____    ______ ____
ROOT
ATOM      1  C   LIG    1       25.839 -25.306   6.304  0.00  0.00    +0.002 C 
ENDROOT
BRANCH   1   2
ATOM      2  C   LIG    1       24.930 -24.193   6.861  0.00  0.00    +0.000 C 
BRANCH   2   3
ATOM      3  C   LIG    1       23.433 -24.363   6.584  0.00  0.00    -0.000 C 
BRANCH   3   4
ATOM      4  C   LIG    1       22.715 -23.005   6.612  0.00  0.00    -0.000 C 
BRANCH   4   5
ATOM      5  C   LIG    1       23.380 -22.054   7.602  0.00  0.00    -0.000 C 
BRANCH   5   6
ATOM      6  C   LIG    1       23.544 -20.647   7.023  0.00  0.00    -0.000 C 
BRANCH   6   7
ATOM      7  C   LIG    1       24.023 -20.683   5.566  0.00  0.00    -0.000 C 
BRANCH   7   8
ATOM      8  C   LIG    1       25.540 -20.831   5.424  0.00  0.00    -0.000 C 
BRANCH   8   9
ATOM      9  C   LIG    1       26.253 -20.481   6.724  0.00  0.00    -0.000 C 
BRANCH   9  10
ATOM     10  C   LIG    1       27.184 -21.594   7.188  0.00  0.00    -0.000 C 
BRANCH  10  11
ATOM     11  C   LIG    1       28.649 -21.155   7.146  0.00  0.00    -0.000 C 
BRANCH  11  12
ATOM     12  C   LIG    1       28.836 -19.734   7.683  0.00  0.00    -0.000 C 
BRANCH  12  14
ATOM     13  C   LIG    1       31.246 -19.246   7.199  0.00  0.00    +0.004 C 
ATOM     14  C   LIG    1       29.806 -18.926   6.831  0.00  0.00    -0.003 C 
ENDBRANCH  12  14
ENDBRANCH  11  12
ENDBRANCH  10  11
ENDBRANCH   9  10
ENDBRANCH   8   9
ENDBRANCH   7   8
ENDBRANCH   6   7
ENDBRANCH   5   6
ENDBRANCH   4   5
ENDBRANCH   3   4
ENDBRANCH   2   3
ENDBRANCH   1   2
BRANCH   1  15
ATOM     15  C   LIG    1       25.314 -26.030   5.056  0.00  0.00    +0.029 C 
BRANCH  15  16
ATOM     16  C   LIG    1       25.654 -27.532   5.010  0.00  0.00    +0.172 C 
BRANCH  16  17
ATOM     17  O   LIG    1       25.292 -28.126   6.258  0.00  0.00    -0.287 OA
BRANCH  17  18
ATOM     18  P   LIG    1       24.420 -29.467   6.281  0.00  0.00    +0.475 P 
ATOM     19  O   LIG    1       23.865 -29.909   7.604  0.00  0.00    -0.227 OA
BRANCH  18  20
ATOM     20  O   LIG    1       23.269 -29.176   5.206  0.00  0.00    -0.302 OA
ATOM     21  H   LIG    1       23.657 -28.860   4.358  0.00  0.00    +0.222 HD
ENDBRANCH  18  20
BRANCH  18  22
ATOM     22  O   LIG    1       25.317 -30.564   5.516  0.00  0.00    -0.281 OA
BRANCH  22  23
ATOM     23  C   LIG    1       25.305 -31.902   5.999  0.00  0.00    +0.223 C 
BRANCH  23  24
ATOM     24  C   LIG    1       26.619 -32.277   6.723  0.00  0.00    +0.161 C 
BRANCH  24  25
ATOM     25  N   LIG    1       26.506 -32.620   8.238  0.00  0.00    +0.238 N 
ATOM     26  C   LIG    1       26.815 -31.351   9.045  0.00  0.00    +0.192 C 
ATOM     27  C   LIG    1       27.541 -33.673   8.624  0.00  0.00    +0.192 C 
ATOM     28  C   LIG    1       25.107 -33.074   8.635  0.00  0.00    +0.192 C 
ENDBRANCH  24  25
ENDBRANCH  23  24
ENDBRANCH  22  23
ENDBRANCH  18  22
ENDBRANCH  17  18
ENDBRANCH  16  17
ENDBRANCH  15  16
ENDBRANCH   1  15
TORSDOF 21
ENDMDL
MODEL 3
REMARK VINA RESULT:      -7.2      1.176      2.076
REMARK  Name = *****
REMARK                            x       y       z     vdW  Elec       q    Type
REMARK                         _______ _______ _______ _____ _____    ______ ____
ROOT
ATOM      1  C   LIG    1       26.689 -20.663   6.667  0.00  0.00    +0.002 C 
ENDROOT
BRANCH   1   2
ATOM      2  C   LIG    1       26.049 -20.552   8.064  0.00  0.00    +0.000 C 
BRANCH   2   3
ATOM      3  C   LIG    1       24.603 -21.047   8.169  0.00  0.00    -0.000 C 
BRANCH   3   4
ATOM      4  C   LIG    1       23.807 -20.680   6.907  0.00  0.00    -0.000 C 
BRANCH   4   5
ATOM      5  C   LIG    1       23.159 -21.916   6.291  0.00  0.00    -0.000 C 
BRANCH   5   6
ATOM      6  C   LIG    1       23.779 -23.212   6.821  0.00  0.00    -0.000 C 
BRANCH   6   7
ATOM      7  C   LIG    1       24.825 -23.778   5.852  0.00  0.00    -0.000 C 
BRANCH   7   8
ATOM      8  C   LIG    1       25.943 -24.561   6.547  0.00  0.00    -0.000 C 
BRANCH   8   9
ATOM      9  C   LIG    1       25.542 -26.014   6.769  0.00  0.00    -0.000 C 
BRANCH   9  10
ATOM     10  C   LIG    1       25.677 -26.849   5.501  0.00  0.00    -0.000 C 
BRANCH  10  11
ATOM     11  C   LIG    1       24.557 -27.884   5.390  0.00  0.00    -0.000 C 
BRANCH  11  12
ATOM     12  C   LIG    1       25.074 -29.312   5.585  0.00  0.00    -0.000 C 
BRANCH  12  14
ATOM     13  C   LIG    1       25.450 -30.775   7.584  0.00  0.00    +0.004 C 
ATOM     14  C   LIG    1       24.422 -29.995   6.780  0.00  0.00    -0.003 C 
ENDBRANCH  12  14
ENDBRANCH  11  12
ENDBRANCH  10  11
ENDBRANCH   9  10
ENDBRANCH   8   9
ENDBRANCH   7   8
ENDBRANCH   6   7
ENDBRANCH   5   6
ENDBRANCH   4   5
ENDBRANCH   3   4
ENDBRANCH   2   3
ENDBRANCH   1   2
BRANCH   1  15
ATOM     15  C   LIG    1       28.222 -20.746   6.643  0.00  0.00    +0.029 C 
BRANCH  15  16
ATOM     16  C   LIG    1       28.842 -21.307   7.937  0.00  0.00    +0.172 C 
BRANCH  16  17
ATOM     17  O   LIG    1       30.265 -21.319   7.801  0.00  0.00    -0.287 OA
BRANCH  17  18
ATOM     18  P   LIG    1       31.186 -21.643   9.068  0.00  0.00    +0.475 P 
ATOM     19  O   LIG    1       30.537 -22.321  10.240  0.00  0.00    -0.227 OA
BRANCH  18  20
ATOM     20  O   LIG    1       32.376 -22.516   8.444  0.00  0.00    -0.302 OA
ATOM     21  H   LIG    1       33.230 -22.028   8.497  0.00  0.00    +0.222 HD
ENDBRANCH  18  20
BRANCH  18  22
ATOM     22  O   LIG    1       31.935 -20.259   9.408  0.00  0.00    -0.281 OA
BRANCH  22  23
ATOM     23  C   LIG    1       31.367 -19.048   8.924  0.00  0.00    +0.223 C 
BRANCH  23  24
ATOM     24  C   LIG    1       32.351 -17.859   9.014  0.00  0.00    +0.161 C 
BRANCH  24  25
ATOM     25  N   LIG    1       32.006 -16.746  10.046  0.00  0.00    +0.238 N 
ATOM     26  C   LIG    1       30.478 -16.657  10.168  0.00  0.00    +0.192 C 
ATOM     27  C   LIG    1       32.506 -15.390   9.555  0.00  0.00    +0.192 C 
ATOM     28  C   LIG    1       32.551 -17.045  11.437  0.00  0.00    +0.192 C 
ENDBRANCH  24  25
ENDBRANCH  23  24
ENDBRANCH  22  23
ENDBRANCH  18  22
ENDBRANCH  17  18
ENDBRANCH  16  17
ENDBRANCH  15  16
ENDBRANCH   1  15
TORSDOF 21
ENDMDL
MODEL 4
REMARK VINA RESULT:      -7.1      2.311      3.745
REMARK  Name = *****
REMARK                            x       y       z     vdW  Elec       q    Type
REMARK                         _______ _______ _______ _____ _____    ______ ____
ROOT
ATOM      1  C   LIG    1       24.002 -19.561   3.544  0.00  0.00    +0.002 C 
ENDROOT
BRANCH   1   2
ATOM      2  C   LIG    1       22.966 -19.373   4.669  0.00  0.00    +0.000 C 
BRANCH   2   3
ATOM      3  C   LIG    1       22.582 -20.645   5.432  0.00  0.00    -0.000 C 
BRANCH   3   4
ATOM      4  C   LIG    1       23.175 -20.632   6.850  0.00  0.00    -0.000 C 
BRANCH   4   5
ATOM      5  C   LIG    1       23.574 -22.037   7.288  0.00  0.00    -0.000 C 
BRANCH   5   6
ATOM      6  C   LIG    1       22.827 -23.116   6.501  0.00  0.00    -0.000 C 
BRANCH   6   7
ATOM      7  C   LIG    1       23.490 -24.491   6.650  0.00  0.00    -0.000 C 
BRANCH   7   8
ATOM      8  C   LIG    1       24.932 -24.535   6.135  0.00  0.00    -0.000 C 
BRANCH   8   9
ATOM      9  C   LIG    1       25.050 -25.420   4.902  0.00  0.00    -0.000 C 
BRANCH   9  10
ATOM     10  C   LIG    1       25.681 -26.770   5.220  0.00  0.00    -0.000 C 
BRANCH  10  11
ATOM     11  C   LIG    1       24.620 -27.828   5.526  0.00  0.00    -0.000 C 
BRANCH  11  12
ATOM     12  C   LIG    1       24.796 -28.431   6.922  0.00  0.00    -0.000 C 
BRANCH  12  14
ATOM     13  C   LIG    1       26.339 -28.600   8.889  0.00  0.00    +0.004 C 
ATOM     14  C   LIG    1       25.921 -27.756   7.696  0.00  0.00    -0.003 C 
ENDBRANCH  12  14
ENDBRANCH  11  12
ENDBRANCH  10  11
ENDBRANCH   9  10
ENDBRANCH   8   9
ENDBRANCH   7   8
ENDBRANCH   6   7
ENDBRANCH   5   6
ENDBRANCH   4   5
ENDBRANCH   3   4
ENDBRANCH   2   3
ENDBRANCH   1   2
BRANCH   1  15
ATOM     15  C   LIG    1       25.460 -19.271   3.928  0.00  0.00    +0.029 C 
BRANCH  15  16
ATOM     16  C   LIG    1       26.136 -20.400   4.729  0.00  0.00    +0.172 C 
BRANCH  16  17
ATOM     17  O   LIG    1       26.291 -19.976   6.085  0.00  0.00    -0.287 OA
BRANCH  17  18
ATOM     18  P   LIG    1       27.347 -20.711   7.036  0.00  0.00    +0.475 P 
ATOM     19  O   LIG    1       27.296 -20.393   8.502  0.00  0.00    -0.227 OA
BRANCH  18  20
ATOM     20  O   LIG    1       27.087 -22.264   6.742  0.00  0.00    -0.302 OA
ATOM     21  H   LIG    1       26.681 -22.387   5.852  0.00  0.00    +0.222 HD
ENDBRANCH  18  20
BRANCH  18  22
ATOM     22  O   LIG    1       28.778 -20.476   6.335  0.00  0.00    -0.281 OA
BRANCH  22  23
ATOM     23  C   LIG    1       29.299 -19.154   6.294  0.00  0.00    +0.223 C 
BRANCH  23  24
ATOM     24  C   LIG    1       30.768 -19.086   6.774  0.00  0.00    +0.161 C 
BRANCH  24  25
ATOM     25  N   LIG    1       30.993 -18.821   8.291  0.00  0.00    +0.238 N 
ATOM     26  C   LIG    1       31.203 -20.171   8.991  0.00  0.00    +0.192 C 
ATOM     27  C   LIG    1       29.757 -18.172   8.908  0.00  0.00    +0.192 C 
ATOM     28  C   LIG    1       32.231 -17.977   8.563  0.00  0.00    +0.192 C 
ENDBRANCH  24  25
ENDBRANCH  23  24
ENDBRANCH  22  23
ENDBRANCH  18  22
ENDBRANCH  17  18
ENDBRANCH  16  17
ENDBRANCH  15  16
ENDBRANCH   1  15
TORSDOF 21
ENDMDL
MODEL 5
REMARK VINA RESULT:      -7.1      5.899      9.289
REMARK  Name = *****
REMARK                            x       y       z     vdW  Elec       q    Type
REMARK                         _______ _______ _______ _____ _____    ______ ____
ROOT
ATOM      1  C   LIG    1       25.967 -25.828   6.554  0.00  0.00    +0.002 C 
ENDROOT
BRANCH   1   2
ATOM      2  C   LIG    1       25.647 -24.328   6.700  0.00  0.00    +0.000 C 
BRANCH   2   3
ATOM      3  C   LIG    1       24.423 -23.834   5.923  0.00  0.00    -0.000 C 
BRANCH   3   4
ATOM      4  C   LIG    1       23.292 -23.432   6.882  0.00  0.00    -0.000 C 
BRANCH   4   5
ATOM      5  C   LIG    1       23.072 -21.923   6.865  0.00  0.00    -0.000 C 
BRANCH   5   6
ATOM      6  C   LIG    1       22.659 -21.420   5.479  0.00  0.00    -0.000 C 
BRANCH   6   7
ATOM      7  C   LIG    1       22.681 -19.889   5.400  0.00  0.00    -0.000 C 
BRANCH   7   8
ATOM      8  C   LIG    1       23.433 -19.349   4.180  0.00  0.00    -0.000 C 
BRANCH   8   9
ATOM      9  C   LIG    1       24.637 -20.220   3.845  0.00  0.00    -0.000 C 
BRANCH   9  10
ATOM     10  C   LIG    1       25.898 -19.760   4.566  0.00  0.00    -0.000 C 
BRANCH  10  11
ATOM     11  C   LIG    1       26.327 -20.761   5.641  0.00  0.00    -0.000 C 
BRANCH  11  12
ATOM     12  C   LIG    1       27.516 -20.251   6.459  0.00  0.00    -0.000 C 
BRANCH  12  14
ATOM     13  C   LIG    1       26.045 -20.543   8.466  0.00  0.00    +0.004 C 
ATOM     14  C   LIG    1       27.450 -20.710   7.909  0.00  0.00    -0.003 C 
ENDBRANCH  12  14
ENDBRANCH  11  12
ENDBRANCH  10  11
ENDBRANCH   9  10
ENDBRANCH   8   9
ENDBRANCH   7   8
ENDBRANCH   6   7
ENDBRANCH   5   6
ENDBRANCH   4   5
ENDBRANCH   3   4
ENDBRANCH   2   3
ENDBRANCH   1   2
BRANCH   1  15
ATOM     15  C   LIG    1       25.712 -26.429   5.164  0.00  0.00    +0.029 C 
BRANCH  15  16
ATOM     16  C   LIG    1       24.783 -27.658   5.170  0.00  0.00    +0.172 C 
BRANCH  16  17
ATOM     17  O   LIG    1       24.643 -28.125   6.514  0.00  0.00    -0.287 OA
BRANCH  17  18
ATOM     18  P   LIG    1       24.329 -29.668   6.795  0.00  0.00    +0.475 P 
ATOM     19  O   LIG    1       23.502 -30.402   5.780  0.00  0.00    -0.227 OA
BRANCH  18  20
ATOM     20  O   LIG    1       25.784 -30.313   6.974  0.00  0.00    -0.302 OA
ATOM     21  H   LIG    1       26.105 -30.196   7.898  0.00  0.00    +0.222 HD
ENDBRANCH  18  20
BRANCH  18  22
ATOM     22  O   LIG    1       23.760 -29.713   8.301  0.00  0.00    -0.281 OA
BRANCH  22  23
ATOM     23  C   LIG    1       24.317 -30.660   9.204  0.00  0.00    +0.223 C 
BRANCH  23  24
ATOM     24  C   LIG    1       24.792 -30.007  10.523  0.00  0.00    +0.161 C 
BRANCH  24  25
ATOM     25  N   LIG    1       26.314 -29.699  10.638  0.00  0.00    +0.238 N 
ATOM     26  C   LIG    1       26.675 -29.601  12.127  0.00  0.00    +0.192 C 
ATOM     27  C   LIG    1       26.634 -28.351   9.998  0.00  0.00    +0.192 C 
ATOM     28  C   LIG    1       27.183 -30.797  10.037  0.00  0.00    +0.192 C 
ENDBRANCH  24  25
ENDBRANCH  23  24
ENDBRANCH  22  23
ENDBRANCH  18  22
ENDBRANCH  17  18
ENDBRANCH  16  17
ENDBRANCH  15  16
ENDBRANCH   1  15
TORSDOF 21
ENDMDL
MODEL 6
REMARK VINA RESULT:      -7.1      4.730      9.712
REMARK  Name = *****
REMARK                            x       y       z     vdW  Elec       q    Type
REMARK                         _______ _______ _______ _____ _____    ______ ____
ROOT
ATOM      1  C   LIG    1       24.165 -22.630   7.333  0.00  0.00    +0.002 C 
ENDROOT
BRANCH   1   2
ATOM      2  C   LIG    1       23.227 -21.420   7.162  0.00  0.00    +0.000 C 
BRANCH   2   3
ATOM      3  C   LIG    1       22.614 -21.252   5.768  0.00  0.00    -0.000 C 
BRANCH   3   4
ATOM      4  C   LIG    1       23.247 -20.061   5.032  0.00  0.00    -0.000 C 
BRANCH   4   5
ATOM      5  C   LIG    1       24.446 -20.507   4.200  0.00  0.00    -0.000 C 
BRANCH   5   6
ATOM      6  C   LIG    1       25.738 -19.815   4.641  0.00  0.00    -0.000 C 
BRANCH   6   7
ATOM      7  C   LIG    1       26.587 -20.720   5.543  0.00  0.00    -0.000 C 
BRANCH   7   8
ATOM      8  C   LIG    1       26.748 -20.186   6.969  0.00  0.00    -0.000 C 
BRANCH   8   9
ATOM      9  C   LIG    1       27.748 -21.019   7.760  0.00  0.00    -0.000 C 
BRANCH   9  10
ATOM     10  C   LIG    1       29.160 -20.912   7.197  0.00  0.00    -0.000 C 
BRANCH  10  11
ATOM     11  C   LIG    1       29.589 -19.452   7.033  0.00  0.00    -0.000 C 
BRANCH  11  12
ATOM     12  C   LIG    1       31.108 -19.289   7.116  0.00  0.00    -0.000 C 
BRANCH  12  14
ATOM     13  C   LIG    1       30.344 -17.825   9.002  0.00  0.00    +0.004 C 
ATOM     14  C   LIG    1       31.532 -18.530   8.366  0.00  0.00    -0.003 C 
ENDBRANCH  12  14
ENDBRANCH  11  12
ENDBRANCH  10  11
ENDBRANCH   9  10
ENDBRANCH   8   9
ENDBRANCH   7   8
ENDBRANCH   6   7
ENDBRANCH   5   6
ENDBRANCH   4   5
ENDBRANCH   3   4
ENDBRANCH   2   3
ENDBRANCH   1   2
BRANCH   1  15
ATOM     15  C   LIG    1       23.726 -23.918   6.620  0.00  0.00    +0.029 C 
BRANCH  15  16
ATOM     16  C   LIG    1       24.732 -24.429   5.570  0.00  0.00    +0.172 C 
BRANCH  16  17
ATOM     17  O   LIG    1       25.807 -25.088   6.243  0.00  0.00    -0.287 OA
BRANCH  17  18
ATOM     18  P   LIG    1       26.120 -26.626   5.933  0.00  0.00    +0.475 P 
ATOM     19  O   LIG    1       27.272 -26.928   5.020  0.00  0.00    -0.227 OA
BRANCH  18  20
ATOM     20  O   LIG    1       26.317 -27.263   7.390  0.00  0.00    -0.302 OA
ATOM     21  H   LIG    1       25.477 -27.669   7.708  0.00  0.00    +0.222 HD
ENDBRANCH  18  20
BRANCH  18  22
ATOM     22  O   LIG    1       24.708 -27.259   5.484  0.00  0.00    -0.281 OA
BRANCH  22  23
ATOM     23  C   LIG    1       24.304 -28.490   6.071  0.00  0.00    +0.223 C 
BRANCH  23  24
ATOM     24  C   LIG    1       25.033 -29.705   5.452  0.00  0.00    +0.161 C 
BRANCH  24  25
ATOM     25  N   LIG    1       25.094 -30.996   6.320  0.00  0.00    +0.238 N 
ATOM     26  C   LIG    1       26.260 -31.860   5.819  0.00  0.00    +0.192 C 
ATOM     27  C   LIG    1       23.814 -31.811   6.152  0.00  0.00    +0.192 C 
ATOM     28  C   LIG    1       25.352 -30.704   7.793  0.00  0.00    +0.192 C 
ENDBRANCH  24  25
ENDBRANCH  23  24
ENDBRANCH  22  23
ENDBRANCH  18  22
ENDBRANCH  17  18
ENDBRANCH  16  17
ENDBRANCH  15  16
ENDBRANCH   1  15
TORSDOF 21
ENDMDL
MODEL 7
REMARK VINA RESULT:      -7.0      5.178      9.787
REMARK  Name = *****
REMARK                            x       y       z     vdW  Elec       q    Type
REMARK                         _______ _______ _______ _____ _____    ______ ____
ROOT
ATOM      1  C   LIG    1       24.772 -23.033   7.412  0.00  0.00    +0.002 C 
ENDROOT
BRANCH   1   2
ATOM      2  C   LIG    1       23.474 -22.690   6.657  0.00  0.00    +0.000 C 
BRANCH   2   3
ATOM      3  C   LIG    1       23.070 -21.212   6.677  0.00  0.00    -0.000 C 
BRANCH   3   4
ATOM      4  C   LIG    1       22.433 -20.802   5.340  0.00  0.00    -0.000 C 
BRANCH   4   5
ATOM      5  C   LIG    1       22.466 -19.288   5.160  0.00  0.00    -0.000 C 
BRANCH   5   6
ATOM      6  C   LIG    1       23.212 -18.879   3.888  0.00  0.00    -0.000 C 
BRANCH   6   7
ATOM      7  C   LIG    1       24.317 -19.881   3.530  0.00  0.00    -0.000 C 
BRANCH   7   8
ATOM      8  C   LIG    1       25.697 -19.488   4.064  0.00  0.00    -0.000 C 
BRANCH   8   9
ATOM      9  C   LIG    1       26.092 -20.348   5.257  0.00  0.00    -0.000 C 
BRANCH   9  10
ATOM     10  C   LIG    1       27.441 -19.942   5.838  0.00  0.00    -0.000 C 
BRANCH  10  11
ATOM     11  C   LIG    1       27.603 -20.435   7.278  0.00  0.00    -0.000 C 
BRANCH  11  12
ATOM     12  C   LIG    1       29.074 -20.620   7.658  0.00  0.00    -0.000 C 
BRANCH  12  14
ATOM     13  C   LIG    1       31.133 -19.499   8.544  0.00  0.00    +0.004 C 
ATOM     14  C   LIG    1       29.770 -19.288   7.903  0.00  0.00    -0.003 C 
ENDBRANCH  12  14
ENDBRANCH  11  12
ENDBRANCH  10  11
ENDBRANCH   9  10
ENDBRANCH   8   9
ENDBRANCH   7   8
ENDBRANCH   6   7
ENDBRANCH   5   6
ENDBRANCH   4   5
ENDBRANCH   3   4
ENDBRANCH   2   3
ENDBRANCH   1   2
BRANCH   1  15
ATOM     15  C   LIG    1       25.782 -23.895   6.640  0.00  0.00    +0.029 C 
BRANCH  15  16
ATOM     16  C   LIG    1       25.172 -24.673   5.459  0.00  0.00    +0.172 C 
BRANCH  16  17
ATOM     17  O   LIG    1       24.722 -25.946   5.928  0.00  0.00    -0.287 OA
BRANCH  17  18
ATOM     18  P   LIG    1       25.661 -27.232   5.772  0.00  0.00    +0.475 P 
ATOM     19  O   LIG    1       26.783 -27.153   4.777  0.00  0.00    -0.227 OA
BRANCH  18  20
ATOM     20  O   LIG    1       26.189 -27.484   7.263  0.00  0.00    -0.302 OA
ATOM     21  H   LIG    1       26.659 -26.688   7.605  0.00  0.00    +0.222 HD
ENDBRANCH  18  20
BRANCH  18  22
ATOM     22  O   LIG    1       24.650 -28.468   5.565  0.00  0.00    -0.281 OA
BRANCH  22  23
ATOM     23  C   LIG    1       25.181 -29.787   5.602  0.00  0.00    +0.223 C 
BRANCH  23  24
ATOM     24  C   LIG    1       24.176 -30.810   6.179  0.00  0.00    +0.161 C 
BRANCH  24  25
ATOM     25  N   LIG    1       24.687 -31.705   7.347  0.00  0.00    +0.238 N 
ATOM     26  C   LIG    1       25.853 -30.982   8.036  0.00  0.00    +0.192 C 
ATOM     27  C   LIG    1       25.221 -33.029   6.809  0.00  0.00    +0.192 C 
ATOM     28  C   LIG    1       23.621 -31.950   8.409  0.00  0.00    +0.192 C 
ENDBRANCH  24  25
ENDBRANCH  23  24
ENDBRANCH  22  23
ENDBRANCH  18  22
ENDBRANCH  17  18
ENDBRANCH  16  17
ENDBRANCH  15  16
ENDBRANCH   1  15
TORSDOF 21
ENDMDL
MODEL 8
REMARK VINA RESULT:      -7.0      5.891      9.971
REMARK  Name = *****
REMARK                            x       y       z     vdW  Elec       q    Type
REMARK                         _______ _______ _______ _____ _____    ______ ____
ROOT
ATOM      1  C   LIG    1       25.989 -24.901   6.304  0.00  0.00    +0.002 C 
ENDROOT
BRANCH   1   2
ATOM      2  C   LIG    1       24.997 -23.874   6.883  0.00  0.00    +0.000 C 
BRANCH   2   3
ATOM      3  C   LIG    1       23.514 -24.206   6.691  0.00  0.00    -0.000 C 
BRANCH   3   4
ATOM      4  C   LIG    1       22.655 -22.934   6.759  0.00  0.00    -0.000 C 
BRANCH   4   5
ATOM      5  C   LIG    1       23.300 -21.887   7.661  0.00  0.00    -0.000 C 
BRANCH   5   6
ATOM      6  C   LIG    1       23.311 -20.500   7.012  0.00  0.00    -0.000 C 
BRANCH   6   7
ATOM      7  C   LIG    1       22.824 -20.549   5.559  0.00  0.00    -0.000 C 
BRANCH   7   8
ATOM      8  C   LIG    1       23.847 -20.015   4.552  0.00  0.00    -0.000 C 
BRANCH   8   9
ATOM      9  C   LIG    1       25.096 -20.885   4.521  0.00  0.00    -0.000 C 
BRANCH   9  10
ATOM     10  C   LIG    1       26.333 -20.134   4.998  0.00  0.00    -0.000 C 
BRANCH  10  11
ATOM     11  C   LIG    1       26.753 -20.577   6.401  0.00  0.00    -0.000 C 
BRANCH  11  12
ATOM     12  C   LIG    1       28.272 -20.547   6.581  0.00  0.00    -0.000 C 
BRANCH  12  14
ATOM     13  C   LIG    1       30.353 -19.155   6.475  0.00  0.00    +0.004 C 
ATOM     14  C   LIG    1       28.874 -19.222   6.132  0.00  0.00    -0.003 C 
ENDBRANCH  12  14
ENDBRANCH  11  12
ENDBRANCH  10  11
ENDBRANCH   9  10
ENDBRANCH   8   9
ENDBRANCH   7   8
ENDBRANCH   6   7
ENDBRANCH   5   6
ENDBRANCH   4   5
ENDBRANCH   3   4
ENDBRANCH   2   3
ENDBRANCH   1   2
BRANCH   1  15
ATOM     15  C   LIG    1       25.408 -25.873   5.266  0.00  0.00    +0.029 C 
BRANCH  15  16
ATOM     16  C   LIG    1       26.019 -27.286   5.317  0.00  0.00    +0.172 C 
BRANCH  16  17
ATOM     17  O   LIG    1       25.011 -28.238   4.971  0.00  0.00    -0.287 OA
BRANCH  17  18
ATOM     18  P   LIG    1       24.639 -29.413   5.990  0.00  0.00    +0.475 P 
ATOM     19  O   LIG    1       23.322 -30.107   5.797  0.00  0.00    -0.227 OA
BRANCH  18  20
ATOM     20  O   LIG    1       25.879 -30.419   5.861  0.00  0.00    -0.302 OA
ATOM     21  H   LIG    1       26.719 -29.920   5.731  0.00  0.00    +0.222 HD
ENDBRANCH  18  20
BRANCH  18  22
ATOM     22  O   LIG    1       24.873 -28.787   7.456  0.00  0.00    -0.281 OA
BRANCH  22  23
ATOM     23  C   LIG    1       25.630 -29.538   8.397  0.00  0.00    +0.223 C 
BRANCH  23  24
ATOM     24  C   LIG    1       24.785 -29.979   9.614  0.00  0.00    +0.161 C 
BRANCH  24  25
ATOM     25  N   LIG    1       24.506 -31.505   9.752  0.00  0.00    +0.238 N 
ATOM     26  C   LIG    1       25.783 -32.266   9.372  0.00  0.00    +0.192 C 
ATOM     27  C   LIG    1       23.409 -31.935   8.782  0.00  0.00    +0.192 C 
ATOM     28  C   LIG    1       24.148 -31.910  11.176  0.00  0.00    +0.192 C 
ENDBRANCH  24  25
ENDBRANCH  23  24
ENDBRANCH  22  23
ENDBRANCH  18  22
ENDBRANCH  17  18
ENDBRANCH  16  17
ENDBRANCH  15  16
ENDBRANCH   1  15
TORSDOF 21
ENDMDL
MODEL 9
REMARK VINA RESULT:      -6.8      6.049      9.361
REMARK  Name = *****
REMARK                            x       y       z     vdW  Elec       q    Type
REMARK                         _______ _______ _______ _____ _____    ______ ____
ROOT
ATOM      1  C   LIG    1       25.333 -25.226   5.488  0.00  0.00    +0.002 C 
ENDROOT
BRANCH   1   2
ATOM      2  C   LIG    1       25.315 -23.872   6.225  0.00  0.00    +0.000 C 
BRANCH   2   3
ATOM      3  C   LIG    1       23.951 -23.436   6.770  0.00  0.00    -0.000 C 
BRANCH   3   4
ATOM      4  C   LIG    1       24.066 -22.102   7.526  0.00  0.00    -0.000 C 
BRANCH   4   5
ATOM      5  C   LIG    1       25.392 -22.011   8.275  0.00  0.00    -0.000 C 
BRANCH   5   6
ATOM      6  C   LIG    1       25.833 -20.560   8.484  0.00  0.00    -0.000 C 
BRANCH   6   7
ATOM      7  C   LIG    1       27.279 -20.334   8.028  0.00  0.00    -0.000 C 
BRANCH   7   8
ATOM      8  C   LIG    1       27.572 -20.878   6.627  0.00  0.00    -0.000 C 
BRANCH   8   9
ATOM      9  C   LIG    1       27.102 -19.909   5.550  0.00  0.00    -0.000 C 
BRANCH   9  10
ATOM     10  C   LIG    1       25.769 -20.327   4.942  0.00  0.00    -0.000 C 
BRANCH  10  11
ATOM     11  C   LIG    1       25.275 -19.304   3.917  0.00  0.00    -0.000 C 
BRANCH  11  12
ATOM     12  C   LIG    1       23.789 -19.485   3.598  0.00  0.00    -0.000 C 
BRANCH  12  14
ATOM     13  C   LIG    1       22.069 -20.704   4.953  0.00  0.00    +0.004 C 
ATOM     14  C   LIG    1       22.928 -19.453   4.853  0.00  0.00    -0.003 C 
ENDBRANCH  12  14
ENDBRANCH  11  12
ENDBRANCH  10  11
ENDBRANCH   9  10
ENDBRANCH   8   9
ENDBRANCH   7   8
ENDBRANCH   6   7
ENDBRANCH   5   6
ENDBRANCH   4   5
ENDBRANCH   3   4
ENDBRANCH   2   3
ENDBRANCH   1   2
BRANCH   1  15
ATOM     15  C   LIG    1       24.362 -26.288   6.025  0.00  0.00    +0.029 C 
BRANCH  15  16
ATOM     16  C   LIG    1       24.725 -27.731   5.627  0.00  0.00    +0.172 C 
BRANCH  16  17
ATOM     17  O   LIG    1       24.181 -28.629   6.597  0.00  0.00    -0.287 OA
BRANCH  17  18
ATOM     18  P   LIG    1       24.636 -30.162   6.609  0.00  0.00    +0.475 P 
ATOM     19  O   LIG    1       23.604 -31.194   6.260  0.00  0.00    -0.227 OA
BRANCH  18  20
ATOM     20  O   LIG    1       25.882 -30.184   5.602  0.00  0.00    -0.302 OA
ATOM     21  H   LIG    1       26.266 -29.282   5.504  0.00  0.00    +0.222 HD
ENDBRANCH  18  20
BRANCH  18  22
ATOM     22  O   LIG    1       25.359 -30.374   8.033  0.00  0.00    -0.281 OA
BRANCH  22  23
ATOM     23  C   LIG    1       24.845 -29.675   9.160  0.00  0.00    +0.223 C 
BRANCH  23  24
ATOM     24  C   LIG    1       25.341 -30.272  10.498  0.00  0.00    +0.161 C 
BRANCH  24  25
ATOM     25  N   LIG    1       26.001 -29.280  11.501  0.00  0.00    +0.238 N 
ATOM     26  C   LIG    1       24.888 -28.588  12.299  0.00  0.00    +0.192 C 
ATOM     27  C   LIG    1       26.770 -28.197  10.750  0.00  0.00    +0.192 C 
ATOM     28  C   LIG    1       26.907 -29.979  12.507  0.00  0.00    +0.192 C 
ENDBRANCH  24  25
ENDBRANCH  23  24
ENDBRANCH  22  23
ENDBRANCH  18  22
ENDBRANCH  17  18
ENDBRANCH  16  17
ENDBRANCH  15  16
ENDBRANCH   1  15
TORSDOF 21
ENDMDL
