MODEL 1
REMARK VINA RESULT:      -9.5      0.000      0.000
REMARK  Name = *****
REMARK                            x       y       z     vdW  Elec       q    Type
REMARK                         _______ _______ _______ _____ _____    ______ ____
ROOT
ATOM      1  C   LIG    1       29.413 -20.269   6.523  0.00  0.00    +0.114 C 
ENDROOT
BRANCH   1   2
ATOM      2  C   LIG    1       28.563 -20.911   7.615  0.00  0.00    +0.217 C 
ATOM      3  N   LIG    1       27.190 -20.726   7.546  0.00  0.00    -0.292 N 
ATOM      4  C   LIG    1       26.474 -20.304   6.335  0.00  0.00    +0.184 C 
ATOM      5  C   LIG    1       25.628 -21.436   5.863  0.00  0.00    +0.151 A 
ATOM      6  N   LIG    1       25.046 -21.578   4.695  0.00  0.00    -0.132 NA
ATOM      7  N   LIG    1       24.413 -22.795   4.687  0.00  0.00    -0.125 NA
ATOM      8  C   LIG    1       24.620 -23.390   5.851  0.00  0.00    +0.238 A 
ATOM      9  N   LIG    1       25.335 -22.531   6.641  0.00  0.00    -0.305 N 
ATOM     10  C   LIG    1       25.799 -22.692   8.010  0.00  0.00    +0.144 C 
ATOM     11  C   LIG    1       26.336 -21.365   8.551  0.00  0.00    +0.130 C 
ATOM     12  O   LIG    1       29.051 -21.623   8.503  0.00  0.00    -0.276 OA
BRANCH   8  13
ATOM     13  C   LIG    1       24.191 -24.757   6.242  0.00  0.00    +0.452 C 
ATOM     14  F   LIG    1       23.046 -24.745   6.972  0.00  0.00    -0.163 F 
ATOM     15  F   LIG    1       25.131 -25.400   6.980  0.00  0.00    -0.163 F 
ATOM     16  F   LIG    1       23.944 -25.552   5.165  0.00  0.00    -0.163 F 
ENDBRANCH   8  13
ENDBRANCH   1   2
BRANCH   1  17
ATOM     17  C   LIG    1       29.980 -18.876   6.843  0.00  0.00    +0.064 C 
BRANCH  17  18
ATOM     18  N   LIG    1       29.994 -18.081   5.595  0.00  0.00    -0.327 NA
ATOM     19  H   LIG    1       30.557 -18.555   4.886  0.00  0.00    +0.118 HD
ATOM     20  H   LIG    1       30.481 -17.198   5.759  0.00  0.00    +0.118 HD
ENDBRANCH  17  18
BRANCH  17  21
ATOM     21  C   LIG    1       31.354 -18.851   7.552  0.00  0.00    +0.057 C 
BRANCH  21  22
ATOM     22  C   LIG    1       31.466 -17.995   8.793  0.00  0.00    -0.008 A 
ATOM     23  C   LIG    1       30.826 -18.381   9.980  0.00  0.00    +0.130 A 
ATOM     24  F   LIG    1       30.102 -19.507  10.007  0.00  0.00    -0.205 F 
ATOM     25  C   LIG    1       30.924 -17.623  11.144  0.00  0.00    +0.079 A 
ATOM     26  C   LIG    1       31.664 -16.449  11.123  0.00  0.00    +0.161 A 
ATOM     27  F   LIG    1       31.754 -15.710  12.236  0.00  0.00    -0.202 F 
ATOM     28  C   LIG    1       32.311 -16.047   9.961  0.00  0.00    +0.159 A 
ATOM     29  F   LIG    1       33.025 -14.913   9.945  0.00  0.00    -0.203 F 
ATOM     30  C   LIG    1       32.229 -16.818   8.801  0.00  0.00    +0.048 A 
ENDBRANCH  21  22
ENDBRANCH  17  21
ENDBRANCH   1  17
TORSDOF 6
ENDMDL
MODEL 2
REMARK VINA RESULT:      -9.2      3.457      9.958
REMARK  Name = *****
REMARK                            x       y       z     vdW  Elec       q    Type
REMARK                         _______ _______ _______ _____ _____    ______ ____
ROOT
ATOM      1  C   LIG    1       25.487 -24.571   6.308  0.00  0.00    +0.114 C 
ENDROOT
BRANCH   1   2
ATOM      2  C   LIG    1       25.203 -23.113   5.962  0.00  0.00    +0.217 C 
ATOM      3  N   LIG    1       25.475 -22.161   6.933  0.00  0.00    -0.292 N 
ATOM      4  C   LIG    1       26.350 -22.390   8.090  0.00  0.00    +0.184 C 
ATOM      5  C   LIG    1       27.570 -21.550   7.938  0.00  0.00    +0.151 A 
ATOM      6  N   LIG    1       28.705 -21.645   8.592  0.00  0.00    -0.132 NA
ATOM      7  N   LIG    1       29.561 -20.699   8.087  0.00  0.00    -0.125 NA
ATOM      8  C   LIG    1       28.942 -20.036   7.123  0.00  0.00    +0.238 A 
ATOM      9  N   LIG    1       27.660 -20.509   7.044  0.00  0.00    -0.305 N 
ATOM     10  C   LIG    1       26.571 -20.105   6.169  0.00  0.00    +0.144 C 
ATOM     11  C   LIG    1       25.257 -20.746   6.621  0.00  0.00    +0.130 C 
ATOM     12  O   LIG    1       24.801 -22.764   4.844  0.00  0.00    -0.276 OA
BRANCH   8  13
ATOM     13  C   LIG    1       29.523 -18.986   6.250  0.00  0.00    +0.452 C 
ATOM     14  F   LIG    1       29.544 -17.770   6.855  0.00  0.00    -0.163 F 
ATOM     15  F   LIG    1       28.835 -18.844   5.088  0.00  0.00    -0.163 F 
ATOM     16  F   LIG    1       30.810 -19.254   5.898  0.00  0.00    -0.163 F 
ENDBRANCH   8  13
ENDBRANCH   1   2
BRANCH   1  17
ATOM     17  C   LIG    1       25.058 -25.608   5.258  0.00  0.00    +0.064 C 
BRANCH  17  18
ATOM     18  N   LIG    1       23.613 -25.878   5.433  0.00  0.00    -0.327 NA
ATOM     19  H   LIG    1       23.072 -25.329   4.762  0.00  0.00    +0.118 HD
ATOM     20  H   LIG    1       23.310 -25.535   6.346  0.00  0.00    +0.118 HD
ENDBRANCH  17  18
BRANCH  17  21
ATOM     21  C   LIG    1       25.883 -26.916   5.221  0.00  0.00    +0.057 C 
BRANCH  21  22
ATOM     22  C   LIG    1       25.369 -28.071   6.050  0.00  0.00    -0.008 A 
ATOM     23  C   LIG    1       25.618 -28.120   7.429  0.00  0.00    +0.130 A 
ATOM     24  F   LIG    1       26.327 -27.143   8.010  0.00  0.00    -0.205 F 
ATOM     25  C   LIG    1       25.144 -29.161   8.222  0.00  0.00    +0.079 A 
ATOM     26  C   LIG    1       24.419 -30.184   7.627  0.00  0.00    +0.161 A 
ATOM     27  F   LIG    1       23.968 -31.194   8.382  0.00  0.00    -0.202 F 
ATOM     28  C   LIG    1       24.154 -30.157   6.263  0.00  0.00    +0.159 A 
ATOM     29  F   LIG    1       23.452 -31.146   5.693  0.00  0.00    -0.203 F 
ATOM     30  C   LIG    1       24.612 -29.102   5.474  0.00  0.00    +0.048 A 
ENDBRANCH  21  22
ENDBRANCH  17  21
ENDBRANCH   1  17
TORSDOF 6
ENDMDL
MODEL 3
REMARK VINA RESULT:      -9.2      5.795      9.193
REMARK  Name = *****
REMARK                            x       y       z     vdW  Elec       q    Type
REMARK                         _______ _______ _______ _____ _____    ______ ____
ROOT
ATOM      1  C   LIG    1       25.229 -25.085   6.903  0.00  0.00    +0.114 C 
ENDROOT
BRANCH   1   2
ATOM      2  C   LIG    1       24.065 -24.099   6.906  0.00  0.00    +0.217 C 
ATOM      3  N   LIG    1       24.331 -22.797   7.304  0.00  0.00    -0.292 N 
ATOM      4  C   LIG    1       25.675 -22.207   7.350  0.00  0.00    +0.184 C 
ATOM      5  C   LIG    1       25.767 -21.151   6.305  0.00  0.00    +0.151 A 
ATOM      6  N   LIG    1       26.847 -20.572   5.834  0.00  0.00    -0.132 NA
ATOM      7  N   LIG    1       26.459 -19.697   4.850  0.00  0.00    -0.125 NA
ATOM      8  C   LIG    1       25.143 -19.754   4.724  0.00  0.00    +0.238 A 
ATOM      9  N   LIG    1       24.668 -20.620   5.672  0.00  0.00    -0.305 N 
ATOM     10  C   LIG    1       23.301 -21.016   5.970  0.00  0.00    +0.144 C 
ATOM     11  C   LIG    1       23.248 -21.811   7.276  0.00  0.00    +0.130 C 
ATOM     12  O   LIG    1       22.932 -24.411   6.516  0.00  0.00    -0.276 OA
BRANCH   8  13
ATOM     13  C   LIG    1       24.312 -19.040   3.723  0.00  0.00    +0.452 C 
ATOM     14  F   LIG    1       23.894 -19.861   2.726  0.00  0.00    -0.163 F 
ATOM     15  F   LIG    1       24.978 -18.010   3.141  0.00  0.00    -0.163 F 
ATOM     16  F   LIG    1       23.186 -18.505   4.268  0.00  0.00    -0.163 F 
ENDBRANCH   8  13
ENDBRANCH   1   2
BRANCH   1  17
ATOM     17  C   LIG    1       25.620 -25.661   5.533  0.00  0.00    +0.064 C 
BRANCH  17  18
ATOM     18  N   LIG    1       24.873 -24.926   4.488  0.00  0.00    -0.327 NA
ATOM     19  H   LIG    1       23.977 -25.384   4.313  0.00  0.00    +0.118 HD
ATOM     20  H   LIG    1       25.372 -24.996   3.599  0.00  0.00    +0.118 HD
ENDBRANCH  17  18
BRANCH  17  21
ATOM     21  C   LIG    1       25.468 -27.192   5.375  0.00  0.00    +0.057 C 
BRANCH  21  22
ATOM     22  C   LIG    1       25.382 -28.005   6.646  0.00  0.00    -0.008 A 
ATOM     23  C   LIG    1       24.408 -29.004   6.784  0.00  0.00    +0.130 A 
ATOM     24  F   LIG    1       23.542 -29.228   5.787  0.00  0.00    -0.205 F 
ATOM     25  C   LIG    1       24.314 -29.781   7.936  0.00  0.00    +0.079 A 
ATOM     26  C   LIG    1       25.200 -29.548   8.979  0.00  0.00    +0.161 A 
ATOM     27  F   LIG    1       25.109 -30.285  10.094  0.00  0.00    -0.202 F 
ATOM     28  C   LIG    1       26.177 -28.567   8.865  0.00  0.00    +0.159 A 
ATOM     29  F   LIG    1       27.031 -28.348   9.874  0.00  0.00    -0.203 F 
ATOM     30  C   LIG    1       26.283 -27.804   7.703  0.00  0.00    +0.048 A 
ENDBRANCH  21  22
ENDBRANCH  17  21
ENDBRANCH   1  17
TORSDOF 6
ENDMDL
MODEL 4
REMARK VINA RESULT:      -9.1      5.707     10.168
REMARK  Name = *****
REMARK                            x       y       z     vdW  Elec       q    Type
REMARK                         _______ _______ _______ _____ _____    ______ ____
ROOT
ATOM      1  C   LIG    1       25.648 -25.377   6.925  0.00  0.00    +0.114 C 
ENDROOT
BRANCH   1   2
ATOM      2  C   LIG    1       24.431 -24.473   6.755  0.00  0.00    +0.217 C 
ATOM      3  N   LIG    1       24.538 -23.167   7.210  0.00  0.00    -0.292 N 
ATOM      4  C   LIG    1       25.812 -22.489   7.480  0.00  0.00    +0.184 C 
ATOM      5  C   LIG    1       25.994 -21.402   6.478  0.00  0.00    +0.151 A 
ATOM      6  N   LIG    1       27.091 -20.739   6.195  0.00  0.00    -0.132 NA
ATOM      7  N   LIG    1       26.803 -19.867   5.175  0.00  0.00    -0.125 NA
ATOM      8  C   LIG    1       25.531 -20.010   4.839  0.00  0.00    +0.238 A 
ATOM      9  N   LIG    1       24.974 -20.930   5.685  0.00  0.00    -0.305 N 
ATOM     10  C   LIG    1       23.609 -21.426   5.754  0.00  0.00    +0.144 C 
ATOM     11  C   LIG    1       23.405 -22.256   7.023  0.00  0.00    +0.130 C 
ATOM     12  O   LIG    1       23.400 -24.851   6.184  0.00  0.00    -0.276 OA
BRANCH   8  13
ATOM     13  C   LIG    1       24.821 -19.329   3.728  0.00  0.00    +0.452 C 
ATOM     14  F   LIG    1       24.490 -20.187   2.729  0.00  0.00    -0.163 F 
ATOM     15  F   LIG    1       25.563 -18.335   3.175  0.00  0.00    -0.163 F 
ATOM     16  F   LIG    1       23.656 -18.752   4.131  0.00  0.00    -0.163 F 
ENDBRANCH   8  13
ENDBRANCH   1   2
BRANCH   1  17
ATOM     17  C   LIG    1       25.689 -26.626   6.030  0.00  0.00    +0.064 C 
BRANCH  17  18
ATOM     18  N   LIG    1       25.653 -26.189   4.616  0.00  0.00    -0.327 NA
ATOM     19  H   LIG    1       26.086 -25.268   4.526  0.00  0.00    +0.118 HD
ATOM     20  H   LIG    1       24.683 -26.043   4.330  0.00  0.00    +0.118 HD
ENDBRANCH  17  18
BRANCH  17  21
ATOM     21  C   LIG    1       24.618 -27.703   6.323  0.00  0.00    +0.057 C 
BRANCH  21  22
ATOM     22  C   LIG    1       25.097 -29.134   6.418  0.00  0.00    -0.008 A 
ATOM     23  C   LIG    1       25.296 -29.733   7.671  0.00  0.00    +0.130 A 
ATOM     24  F   LIG    1       25.072 -29.027   8.786  0.00  0.00    -0.205 F 
ATOM     25  C   LIG    1       25.719 -31.053   7.791  0.00  0.00    +0.079 A 
ATOM     26  C   LIG    1       25.965 -31.790   6.641  0.00  0.00    +0.161 A 
ATOM     27  F   LIG    1       26.382 -33.058   6.749  0.00  0.00    -0.202 F 
ATOM     28  C   LIG    1       25.772 -31.221   5.388  0.00  0.00    +0.159 A 
ATOM     29  F   LIG    1       26.008 -31.936   4.280  0.00  0.00    -0.203 F 
ATOM     30  C   LIG    1       25.327 -29.905   5.269  0.00  0.00    +0.048 A 
ENDBRANCH  21  22
ENDBRANCH  17  21
ENDBRANCH   1  17
TORSDOF 6
ENDMDL
MODEL 5
REMARK VINA RESULT:      -9.1      3.493      9.449
REMARK  Name = *****
REMARK                            x       y       z     vdW  Elec       q    Type
REMARK                         _______ _______ _______ _____ _____    ______ ____
ROOT
ATOM      1  C   LIG    1       25.432 -24.570   6.468  0.00  0.00    +0.114 C 
ENDROOT
BRANCH   1   2
ATOM      2  C   LIG    1       25.154 -23.112   6.119  0.00  0.00    +0.217 C 
ATOM      3  N   LIG    1       25.469 -22.156   7.073  0.00  0.00    -0.292 N 
ATOM      4  C   LIG    1       26.379 -22.386   8.202  0.00  0.00    +0.184 C 
ATOM      5  C   LIG    1       27.604 -21.561   8.003  0.00  0.00    +0.151 A 
ATOM      6  N   LIG    1       28.758 -21.665   8.620  0.00  0.00    -0.132 NA
ATOM      7  N   LIG    1       29.608 -20.734   8.080  0.00  0.00    -0.125 NA
ATOM      8  C   LIG    1       28.966 -20.072   7.131  0.00  0.00    +0.238 A 
ATOM      9  N   LIG    1       27.677 -20.529   7.097  0.00  0.00    -0.305 N 
ATOM     10  C   LIG    1       26.564 -20.119   6.256  0.00  0.00    +0.144 C 
ATOM     11  C   LIG    1       25.258 -20.740   6.756  0.00  0.00    +0.130 C 
ATOM     12  O   LIG    1       24.719 -22.767   5.012  0.00  0.00    -0.276 OA
BRANCH   8  13
ATOM     13  C   LIG    1       29.530 -19.035   6.229  0.00  0.00    +0.452 C 
ATOM     14  F   LIG    1       28.833 -18.931   5.069  0.00  0.00    -0.163 F 
ATOM     15  F   LIG    1       30.823 -19.288   5.900  0.00  0.00    -0.163 F 
ATOM     16  F   LIG    1       29.518 -17.795   6.791  0.00  0.00    -0.163 F 
ENDBRANCH   8  13
ENDBRANCH   1   2
BRANCH   1  17
ATOM     17  C   LIG    1       25.023 -25.606   5.409  0.00  0.00    +0.064 C 
BRANCH  17  18
ATOM     18  N   LIG    1       23.558 -25.807   5.494  0.00  0.00    -0.327 NA
ATOM     19  H   LIG    1       23.075 -24.930   5.294  0.00  0.00    +0.118 HD
ATOM     20  H   LIG    1       23.300 -26.026   6.459  0.00  0.00    +0.118 HD
ENDBRANCH  17  18
BRANCH  17  21
ATOM     21  C   LIG    1       25.787 -26.950   5.445  0.00  0.00    +0.057 C 
BRANCH  21  22
ATOM     22  C   LIG    1       25.566 -27.828   6.656  0.00  0.00    -0.008 A 
ATOM     23  C   LIG    1       24.589 -28.834   6.633  0.00  0.00    +0.130 A 
ATOM     24  F   LIG    1       23.840 -29.006   5.535  0.00  0.00    -0.205 F 
ATOM     25  C   LIG    1       24.373 -29.670   7.724  0.00  0.00    +0.079 A 
ATOM     26  C   LIG    1       25.136 -29.492   8.870  0.00  0.00    +0.161 A 
ATOM     27  F   LIG    1       24.927 -30.287   9.928  0.00  0.00    -0.202 F 
ATOM     28  C   LIG    1       26.113 -28.506   8.917  0.00  0.00    +0.159 A 
ATOM     29  F   LIG    1       26.849 -28.339  10.025  0.00  0.00    -0.203 F 
ATOM     30  C   LIG    1       26.343 -27.683   7.815  0.00  0.00    +0.048 A 
ENDBRANCH  21  22
ENDBRANCH  17  21
ENDBRANCH   1  17
TORSDOF 6
ENDMDL
MODEL 6
REMARK VINA RESULT:      -9.1      7.348     10.086
REMARK  Name = *****
REMARK                            x       y       z     vdW  Elec       q    Type
REMARK                         _______ _______ _______ _____ _____    ______ ____
ROOT
ATOM      1  C   LIG    1       25.077 -29.607   7.184  0.00  0.00    +0.114 C 
ENDROOT
BRANCH   1   2
ATOM      2  C   LIG    1       24.423 -30.203   8.427  0.00  0.00    +0.217 C 
ATOM      3  N   LIG    1       25.223 -30.382   9.545  0.00  0.00    -0.292 N 
ATOM      4  C   LIG    1       26.511 -29.709   9.755  0.00  0.00    +0.184 C 
ATOM      5  C   LIG    1       26.371 -28.752  10.888  0.00  0.00    +0.151 A 
ATOM      6  N   LIG    1       27.181 -27.777  11.228  0.00  0.00    -0.132 NA
ATOM      7  N   LIG    1       26.627 -27.127  12.303  0.00  0.00    -0.125 NA
ATOM      8  C   LIG    1       25.479 -27.710  12.607  0.00  0.00    +0.238 A 
ATOM      9  N   LIG    1       25.316 -28.780  11.769  0.00  0.00    -0.305 N 
ATOM     10  C   LIG    1       24.239 -29.755  11.702  0.00  0.00    +0.144 C 
ATOM     11  C   LIG    1       24.620 -30.909  10.772  0.00  0.00    +0.130 C 
ATOM     12  O   LIG    1       23.215 -30.468   8.477  0.00  0.00    -0.276 OA
BRANCH   8  13
ATOM     13  C   LIG    1       24.509 -27.280  13.646  0.00  0.00    +0.452 C 
ATOM     14  F   LIG    1       23.302 -26.954  13.116  0.00  0.00    -0.163 F 
ATOM     15  F   LIG    1       24.947 -26.201  14.343  0.00  0.00    -0.163 F 
ATOM     16  F   LIG    1       24.267 -28.254  14.565  0.00  0.00    -0.163 F 
ENDBRANCH   8  13
ENDBRANCH   1   2
BRANCH   1  17
ATOM     17  C   LIG    1       24.183 -28.700   6.322  0.00  0.00    +0.064 C 
BRANCH  17  18
ATOM     18  N   LIG    1       23.325 -29.559   5.476  0.00  0.00    -0.327 NA
ATOM     19  H   LIG    1       23.429 -29.296   4.495  0.00  0.00    +0.118 HD
ATOM     20  H   LIG    1       22.343 -29.374   5.688  0.00  0.00    +0.118 HD
ENDBRANCH  17  18
BRANCH  17  21
ATOM     21  C   LIG    1       24.916 -27.625   5.487  0.00  0.00    +0.057 C 
BRANCH  21  22
ATOM     22  C   LIG    1       24.859 -26.204   6.001  0.00  0.00    -0.008 A 
ATOM     23  C   LIG    1       26.041 -25.506   6.287  0.00  0.00    +0.130 A 
ATOM     24  F   LIG    1       27.225 -26.108   6.116  0.00  0.00    -0.205 F 
ATOM     25  C   LIG    1       26.022 -24.192   6.746  0.00  0.00    +0.079 A 
ATOM     26  C   LIG    1       24.799 -23.563   6.937  0.00  0.00    +0.161 A 
ATOM     27  F   LIG    1       24.773 -22.302   7.387  0.00  0.00    -0.202 F 
ATOM     28  C   LIG    1       23.614 -24.231   6.657  0.00  0.00    +0.159 A 
ATOM     29  F   LIG    1       22.436 -23.620   6.841  0.00  0.00    -0.203 F 
ATOM     30  C   LIG    1       23.635 -25.541   6.177  0.00  0.00    +0.048 A 
ENDBRANCH  21  22
ENDBRANCH  17  21
ENDBRANCH   1  17
TORSDOF 6
ENDMDL
MODEL 7
REMARK VINA RESULT:      -8.9      5.832     10.100
REMARK  Name = *****
REMARK                            x       y       z     vdW  Elec       q    Type
REMARK                         _______ _______ _______ _____ _____    ______ ____
ROOT
ATOM      1  C   LIG    1       25.798 -25.535   6.817  0.00  0.00    +0.114 C 
ENDROOT
BRANCH   1   2
ATOM      2  C   LIG    1       24.538 -24.698   6.624  0.00  0.00    +0.217 C 
ATOM      3  N   LIG    1       24.552 -23.400   7.113  0.00  0.00    -0.292 N 
ATOM      4  C   LIG    1       25.775 -22.658   7.447  0.00  0.00    +0.184 C 
ATOM      5  C   LIG    1       25.930 -21.536   6.479  0.00  0.00    +0.151 A 
ATOM      6  N   LIG    1       26.997 -20.805   6.253  0.00  0.00    -0.132 NA
ATOM      7  N   LIG    1       26.697 -19.925   5.244  0.00  0.00    -0.125 NA
ATOM      8  C   LIG    1       25.448 -20.131   4.858  0.00  0.00    +0.238 A 
ATOM      9  N   LIG    1       24.914 -21.103   5.660  0.00  0.00    -0.305 N 
ATOM     10  C   LIG    1       23.578 -21.677   5.665  0.00  0.00    +0.144 C 
ATOM     11  C   LIG    1       23.377 -22.550   6.906  0.00  0.00    +0.130 C 
ATOM     12  O   LIG    1       23.551 -25.118   6.005  0.00  0.00    -0.276 OA
BRANCH   8  13
ATOM     13  C   LIG    1       24.740 -19.462   3.737  0.00  0.00    +0.452 C 
ATOM     14  F   LIG    1       23.604 -18.842   4.146  0.00  0.00    -0.163 F 
ATOM     15  F   LIG    1       24.391 -20.333   2.756  0.00  0.00    -0.163 F 
ATOM     16  F   LIG    1       25.500 -18.503   3.141  0.00  0.00    -0.163 F 
ENDBRANCH   8  13
ENDBRANCH   1   2
BRANCH   1  17
ATOM     17  C   LIG    1       25.814 -26.900   6.109  0.00  0.00    +0.064 C 
BRANCH  17  18
ATOM     18  N   LIG    1       25.874 -26.667   4.648  0.00  0.00    -0.327 NA
ATOM     19  H   LIG    1       26.795 -26.309   4.390  0.00  0.00    +0.118 HD
ATOM     20  H   LIG    1       25.229 -25.914   4.397  0.00  0.00    +0.118 HD
ENDBRANCH  17  18
BRANCH  17  21
ATOM     21  C   LIG    1       24.672 -27.872   6.487  0.00  0.00    +0.057 C 
BRANCH  21  22
ATOM     22  C   LIG    1       25.077 -29.241   6.984  0.00  0.00    -0.008 A 
ATOM     23  C   LIG    1       25.335 -30.277   6.076  0.00  0.00    +0.130 A 
ATOM     24  F   LIG    1       25.209 -30.054   4.762  0.00  0.00    -0.205 F 
ATOM     25  C   LIG    1       25.726 -31.543   6.503  0.00  0.00    +0.079 A 
ATOM     26  C   LIG    1       25.849 -31.788   7.863  0.00  0.00    +0.161 A 
ATOM     27  F   LIG    1       26.215 -33.006   8.281  0.00  0.00    -0.202 F 
ATOM     28  C   LIG    1       25.603 -30.776   8.784  0.00  0.00    +0.159 A 
ATOM     29  F   LIG    1       25.724 -31.016  10.097  0.00  0.00    -0.203 F 
ATOM     30  C   LIG    1       25.231 -29.503   8.354  0.00  0.00    +0.048 A 
ENDBRANCH  21  22
ENDBRANCH  17  21
ENDBRANCH   1  17
TORSDOF 6
ENDMDL
MODEL 8
REMARK VINA RESULT:      -8.8      2.168      8.956
REMARK  Name = *****
REMARK                            x       y       z     vdW  Elec       q    Type
REMARK                         _______ _______ _______ _____ _____    ______ ____
ROOT
ATOM      1  C   LIG    1       28.746 -19.737   6.329  0.00  0.00    +0.114 C 
ENDROOT
BRANCH   1   2
ATOM      2  C   LIG    1       29.322 -20.375   7.589  0.00  0.00    +0.217 C 
ATOM      3  N   LIG    1       30.657 -20.128   7.877  0.00  0.00    -0.292 N 
ATOM      4  C   LIG    1       31.435 -19.025   7.301  0.00  0.00    +0.184 C 
ATOM      5  C   LIG    1       31.759 -18.054   8.383  0.00  0.00    +0.151 A 
ATOM      6  N   LIG    1       32.198 -16.823   8.260  0.00  0.00    -0.132 NA
ATOM      7  N   LIG    1       32.309 -16.290   9.520  0.00  0.00    -0.125 NA
ATOM      8  C   LIG    1       31.931 -17.200  10.402  0.00  0.00    +0.238 A 
ATOM      9  N   LIG    1       31.634 -18.349   9.720  0.00  0.00    -0.305 N 
ATOM     10  C   LIG    1       31.195 -19.642  10.220  0.00  0.00    +0.144 C 
ATOM     11  C   LIG    1       31.233 -20.687   9.103  0.00  0.00    +0.130 C 
ATOM     12  O   LIG    1       28.630 -21.042   8.370  0.00  0.00    -0.276 OA
BRANCH   8  13
ATOM     13  C   LIG    1       31.813 -17.022  11.871  0.00  0.00    +0.452 C 
ATOM     14  F   LIG    1       33.025 -16.935  12.476  0.00  0.00    -0.163 F 
ATOM     15  F   LIG    1       31.142 -18.044  12.462  0.00  0.00    -0.163 F 
ATOM     16  F   LIG    1       31.142 -15.886  12.205  0.00  0.00    -0.163 F 
ENDBRANCH   8  13
ENDBRANCH   1   2
BRANCH   1  17
ATOM     17  C   LIG    1       27.398 -20.296   5.847  0.00  0.00    +0.064 C 
BRANCH  17  18
ATOM     18  N   LIG    1       26.972 -19.525   4.657  0.00  0.00    -0.327 NA
ATOM     19  H   LIG    1       27.349 -19.955   3.810  0.00  0.00    +0.118 HD
ATOM     20  H   LIG    1       27.398 -18.596   4.682  0.00  0.00    +0.118 HD
ENDBRANCH  17  18
BRANCH  17  21
ATOM     21  C   LIG    1       26.278 -20.373   6.910  0.00  0.00    +0.057 C 
BRANCH  21  22
ATOM     22  C   LIG    1       25.399 -21.602   6.889  0.00  0.00    -0.008 A 
ATOM     23  C   LIG    1       24.003 -21.476   6.850  0.00  0.00    +0.130 A 
ATOM     24  F   LIG    1       23.448 -20.257   6.844  0.00  0.00    -0.205 F 
ATOM     25  C   LIG    1       23.168 -22.589   6.812  0.00  0.00    +0.079 A 
ATOM     26  C   LIG    1       23.734 -23.856   6.829  0.00  0.00    +0.161 A 
ATOM     27  F   LIG    1       22.936 -24.931   6.803  0.00  0.00    -0.202 F 
ATOM     28  C   LIG    1       25.114 -24.009   6.863  0.00  0.00    +0.159 A 
ATOM     29  F   LIG    1       25.656 -25.234   6.878  0.00  0.00    -0.203 F 
ATOM     30  C   LIG    1       25.950 -22.893   6.879  0.00  0.00    +0.048 A 
ENDBRANCH  21  22
ENDBRANCH  17  21
ENDBRANCH   1  17
TORSDOF 6
ENDMDL
MODEL 9
REMARK VINA RESULT:      -8.8      6.023      9.781
REMARK  Name = *****
REMARK                            x       y       z     vdW  Elec       q    Type
REMARK                         _______ _______ _______ _____ _____    ______ ____
ROOT
ATOM      1  C   LIG    1       25.583 -24.802   6.030  0.00  0.00    +0.114 C 
ENDROOT
BRANCH   1   2
ATOM      2  C   LIG    1       24.491 -23.982   6.712  0.00  0.00    +0.217 C 
ATOM      3  N   LIG    1       24.781 -22.661   7.017  0.00  0.00    -0.292 N 
ATOM      4  C   LIG    1       25.877 -21.895   6.411  0.00  0.00    +0.184 C 
ATOM      5  C   LIG    1       25.294 -20.825   5.555  0.00  0.00    +0.151 A 
ATOM      6  N   LIG    1       25.899 -20.100   4.642  0.00  0.00    -0.132 NA
ATOM      7  N   LIG    1       24.961 -19.276   4.073  0.00  0.00    -0.125 NA
ATOM      8  C   LIG    1       23.789 -19.509   4.640  0.00  0.00    +0.238 A 
ATOM      9  N   LIG    1       23.976 -20.441   5.625  0.00  0.00    -0.305 N 
ATOM     10  C   LIG    1       23.018 -21.021   6.552  0.00  0.00    +0.144 C 
ATOM     11  C   LIG    1       23.742 -21.830   7.631  0.00  0.00    +0.130 C 
ATOM     12  O   LIG    1       23.363 -24.440   6.938  0.00  0.00    -0.276 OA
BRANCH   8  13
ATOM     13  C   LIG    1       22.484 -18.903   4.271  0.00  0.00    +0.452 C 
ATOM     14  F   LIG    1       22.198 -17.808   5.021  0.00  0.00    -0.163 F 
ATOM     15  F   LIG    1       21.452 -19.772   4.421  0.00  0.00    -0.163 F 
ATOM     16  F   LIG    1       22.450 -18.492   2.974  0.00  0.00    -0.163 F 
ENDBRANCH   8  13
ENDBRANCH   1   2
BRANCH   1  17
ATOM     17  C   LIG    1       25.101 -25.880   5.047  0.00  0.00    +0.064 C 
BRANCH  17  18
ATOM     18  N   LIG    1       23.654 -26.102   5.271  0.00  0.00    -0.327 NA
ATOM     19  H   LIG    1       23.407 -27.062   5.027  0.00  0.00    +0.118 HD
ATOM     20  H   LIG    1       23.116 -25.527   4.620  0.00  0.00    +0.118 HD
ENDBRANCH  17  18
BRANCH  17  21
ATOM     21  C   LIG    1       25.891 -27.209   5.060  0.00  0.00    +0.057 C 
BRANCH  21  22
ATOM     22  C   LIG    1       25.362 -28.310   5.951  0.00  0.00    -0.008 A 
ATOM     23  C   LIG    1       25.564 -28.257   7.338  0.00  0.00    +0.130 A 
ATOM     24  F   LIG    1       26.242 -27.232   7.871  0.00  0.00    -0.205 F 
ATOM     25  C   LIG    1       25.075 -29.246   8.187  0.00  0.00    +0.079 A 
ATOM     26  C   LIG    1       24.382 -30.318   7.643  0.00  0.00    +0.161 A 
ATOM     27  F   LIG    1       23.917 -31.278   8.453  0.00  0.00    -0.202 F 
ATOM     28  C   LIG    1       24.164 -30.392   6.273  0.00  0.00    +0.159 A 
ATOM     29  F   LIG    1       23.493 -31.428   5.752  0.00  0.00    -0.203 F 
ATOM     30  C   LIG    1       24.637 -29.390   5.426  0.00  0.00    +0.048 A 
ENDBRANCH  21  22
ENDBRANCH  17  21
ENDBRANCH   1  17
TORSDOF 6
ENDMDL
