MODEL 1
REMARK VINA RESULT:      -9.2      0.000      0.000
REMARK  Name = *****
REMARK                            x       y       z     vdW  Elec       q    Type
REMARK                         _______ _______ _______ _____ _____    ______ ____
ROOT
ATOM      1  C   LIG    1       27.296 -29.140  12.422  0.00  0.00    +0.076 C 
ATOM      2  C   LIG    1       28.049 -29.965  11.376  0.00  0.00    +0.026 C 
ATOM      3  C   LIG    1       27.403 -30.000   9.978  0.00  0.00    -0.005 C 
ATOM      4  C   LIG    1       26.322 -31.098   9.899  0.00  0.00    +0.019 C 
ATOM      5  C   LIG    1       25.716 -31.119   8.513  0.00  0.00    +0.105 C 
ATOM      6  C   LIG    1       25.053 -29.784   8.226  0.00  0.00    +0.050 C 
ATOM      7  C   LIG    1       26.132 -28.701   8.117  0.00  0.00    +0.023 C 
ATOM      8  C   LIG    1       24.128 -30.150   7.075  0.00  0.00    +0.178 C 
ATOM      9  C   LIG    1       24.722 -30.193   5.677  0.00  0.00    +0.052 C 
ATOM     10  O   LIG    1       23.681 -31.482   7.425  0.00  0.00    -0.461 OA
ATOM     11  C   LIG    1       24.572 -32.062   8.293  0.00  0.00    +0.311 C 
ATOM     12  O   LIG    1       24.464 -33.185   8.752  0.00  0.00    -0.251 OA
ATOM     13  C   LIG    1       26.928 -28.601   9.473  0.00  0.00    -0.000 C 
ATOM     14  C   LIG    1       26.183 -27.812  10.572  0.00  0.00    +0.006 C 
ATOM     15  C   LIG    1       26.975 -27.752  11.876  0.00  0.00    +0.022 C 
ENDROOT
BRANCH   1  17
ATOM     16  C   LIG    1       25.454 -29.392  14.052  0.00  0.00    +0.401 C 
ATOM     17  N   LIG    1       26.101 -29.798  12.915  0.00  0.00    -0.278 N 
ATOM     18  H   LIG    1       25.628 -30.509  12.365  0.00  0.00    +0.152 HD
ATOM     19  O   LIG    1       25.885 -28.629  14.888  0.00  0.00    -0.227 OA
BRANCH  16  20
ATOM     20  O   LIG    1       24.208 -29.953  14.032  0.00  0.00    -0.451 OA
BRANCH  20  22
ATOM     21  C   LIG    1       22.899 -28.209  12.932  0.00  0.00    +0.048 C 
ATOM     22  C   LIG    1       23.412 -29.640  12.877  0.00  0.00    +0.230 C 
ENDBRANCH  20  22
ENDBRANCH  16  20
ENDBRANCH   1  17
BRANCH   7  23
ATOM     23  C   LIG    1       25.581 -27.370   7.671  0.00  0.00    -0.021 C 
ATOM     24  C   LIG    1       26.205 -26.563   6.796  0.00  0.00    +0.024 C 
BRANCH  24  25
ATOM     25  C   LIG    1       25.706 -25.245   6.382  0.00  0.00    +0.064 A 
ATOM     26  N   LIG    1       25.171 -25.135   5.151  0.00  0.00    -0.255 NA
ATOM     27  C   LIG    1       24.713 -23.911   4.776  0.00  0.00    +0.119 A 
ATOM     28  C   LIG    1       24.748 -22.745   5.549  0.00  0.00    +0.000 A 
ATOM     29  C   LIG    1       25.311 -22.922   6.823  0.00  0.00    +0.012 A 
ATOM     30  C   LIG    1       25.789 -24.166   7.245  0.00  0.00    +0.028 A 
BRANCH  28  31
ATOM     31  C   LIG    1       24.238 -21.430   5.063  0.00  0.00    -0.014 A 
ATOM     32  C   LIG    1       25.039 -20.546   4.312  0.00  0.00    +0.046 A 
ATOM     33  C   LIG    1       24.551 -19.317   3.868  0.00  0.00    +0.124 A 
ATOM     34  F   LIG    1       25.353 -18.514   3.157  0.00  0.00    -0.205 F 
ATOM     35  C   LIG    1       23.257 -18.912   4.147  0.00  0.00    +0.038 A 
ATOM     36  C   LIG    1       22.437 -19.754   4.884  0.00  0.00    +0.003 A 
ATOM     37  C   LIG    1       22.922 -20.990   5.332  0.00  0.00    +0.009 A 
ENDBRANCH  28  31
ENDBRANCH  24  25
ENDBRANCH   7  23
TORSDOF 6
ENDMDL
MODEL 2
REMARK VINA RESULT:      -8.6      1.077      1.434
REMARK  Name = *****
REMARK                            x       y       z     vdW  Elec       q    Type
REMARK                         _______ _______ _______ _____ _____    ______ ____
ROOT
ATOM      1  C   LIG    1       27.288 -29.210  12.460  0.00  0.00    +0.076 C 
ATOM      2  C   LIG    1       27.995 -30.067  11.407  0.00  0.00    +0.026 C 
ATOM      3  C   LIG    1       27.350 -30.050  10.008  0.00  0.00    -0.005 C 
ATOM      4  C   LIG    1       26.208 -31.083   9.916  0.00  0.00    +0.019 C 
ATOM      5  C   LIG    1       25.605 -31.055   8.529  0.00  0.00    +0.105 C 
ATOM      6  C   LIG    1       25.020 -29.681   8.255  0.00  0.00    +0.050 C 
ATOM      7  C   LIG    1       26.160 -28.660   8.158  0.00  0.00    +0.023 C 
ATOM      8  C   LIG    1       24.078 -29.981   7.099  0.00  0.00    +0.178 C 
ATOM      9  C   LIG    1       24.672 -30.043   5.701  0.00  0.00    +0.052 C 
ATOM     10  O   LIG    1       23.555 -31.289   7.434  0.00  0.00    -0.461 OA
ATOM     11  C   LIG    1       24.410 -31.929   8.297  0.00  0.00    +0.311 C 
ATOM     12  O   LIG    1       24.237 -33.048   8.744  0.00  0.00    -0.251 OA
ATOM     13  C   LIG    1       26.957 -28.620   9.517  0.00  0.00    -0.000 C 
ATOM     14  C   LIG    1       26.256 -27.802  10.623  0.00  0.00    +0.006 C 
ATOM     15  C   LIG    1       27.047 -27.801  11.929  0.00  0.00    +0.022 C 
ENDROOT
BRANCH   1  17
ATOM     16  C   LIG    1       26.042 -30.868  13.807  0.00  0.00    +0.401 C 
ATOM     17  N   LIG    1       26.056 -29.804  12.945  0.00  0.00    -0.278 N 
ATOM     18  H   LIG    1       25.155 -29.372  12.760  0.00  0.00    +0.152 HD
ATOM     19  O   LIG    1       26.984 -31.576  14.087  0.00  0.00    -0.227 OA
BRANCH  16  20
ATOM     20  O   LIG    1       24.787 -30.940  14.343  0.00  0.00    -0.451 OA
BRANCH  20  22
ATOM     21  C   LIG    1       23.580 -32.064  12.541  0.00  0.00    +0.048 C 
ATOM     22  C   LIG    1       23.709 -30.815  13.400  0.00  0.00    +0.230 C 
ENDBRANCH  20  22
ENDBRANCH  16  20
ENDBRANCH   1  17
BRANCH   7  23
ATOM     23  C   LIG    1       25.686 -27.295   7.726  0.00  0.00    -0.021 C 
ATOM     24  C   LIG    1       26.131 -26.671   6.621  0.00  0.00    +0.024 C 
BRANCH  24  25
ATOM     25  C   LIG    1       25.714 -25.325   6.206  0.00  0.00    +0.064 A 
ATOM     26  N   LIG    1       25.132 -25.192   4.999  0.00  0.00    -0.255 NA
ATOM     27  C   LIG    1       24.751 -23.942   4.623  0.00  0.00    +0.119 A 
ATOM     28  C   LIG    1       24.911 -22.771   5.372  0.00  0.00    +0.000 A 
ATOM     29  C   LIG    1       25.518 -22.972   6.623  0.00  0.00    +0.012 A 
ATOM     30  C   LIG    1       25.919 -24.243   7.045  0.00  0.00    +0.028 A 
BRANCH  28  31
ATOM     31  C   LIG    1       24.481 -21.428   4.886  0.00  0.00    -0.014 A 
ATOM     32  C   LIG    1       23.148 -20.982   4.997  0.00  0.00    +0.046 A 
ATOM     33  C   LIG    1       22.758 -19.725   4.533  0.00  0.00    +0.124 A 
ATOM     34  F   LIG    1       21.480 -19.349   4.662  0.00  0.00    -0.205 F 
ATOM     35  C   LIG    1       23.666 -18.861   3.943  0.00  0.00    +0.038 A 
ATOM     36  C   LIG    1       24.987 -19.263   3.816  0.00  0.00    +0.003 A 
ATOM     37  C   LIG    1       25.384 -20.525   4.281  0.00  0.00    +0.009 A 
ENDBRANCH  28  31
ENDBRANCH  24  25
ENDBRANCH   7  23
TORSDOF 6
ENDMDL
MODEL 3
REMARK VINA RESULT:      -7.1      2.985      5.819
REMARK  Name = *****
REMARK                            x       y       z     vdW  Elec       q    Type
REMARK                         _______ _______ _______ _____ _____    ______ ____
ROOT
ATOM      1  C   LIG    1       24.975 -33.358   4.476  0.00  0.00    +0.076 C 
ATOM      2  C   LIG    1       23.955 -33.825   5.517  0.00  0.00    +0.026 C 
ATOM      3  C   LIG    1       23.875 -32.961   6.791  0.00  0.00    -0.005 C 
ATOM      4  C   LIG    1       24.946 -33.392   7.815  0.00  0.00    +0.019 C 
ATOM      5  C   LIG    1       24.834 -32.538   9.059  0.00  0.00    +0.105 C 
ATOM      6  C   LIG    1       25.080 -31.083   8.703  0.00  0.00    +0.050 C 
ATOM      7  C   LIG    1       23.926 -30.577   7.830  0.00  0.00    +0.023 C 
ATOM      8  C   LIG    1       25.408 -30.492  10.066  0.00  0.00    +0.178 C 
ATOM      9  C   LIG    1       24.246 -30.109  10.968  0.00  0.00    +0.052 C 
ATOM     10  O   LIG    1       26.159 -31.550  10.709  0.00  0.00    -0.461 OA
ATOM     11  C   LIG    1       25.871 -32.755  10.119  0.00  0.00    +0.311 C 
ATOM     12  O   LIG    1       26.346 -33.825  10.455  0.00  0.00    -0.251 OA
ATOM     13  C   LIG    1       23.846 -31.426   6.505  0.00  0.00    -0.000 C 
ATOM     14  C   LIG    1       24.889 -31.016   5.443  0.00  0.00    +0.006 C 
ATOM     15  C   LIG    1       24.795 -31.872   4.182  0.00  0.00    +0.022 C 
ENDROOT
BRANCH   1  17
ATOM     16  C   LIG    1       27.365 -33.682   3.934  0.00  0.00    +0.401 C 
ATOM     17  N   LIG    1       26.346 -33.656   4.847  0.00  0.00    -0.278 N 
ATOM     18  H   LIG    1       26.621 -33.734   5.822  0.00  0.00    +0.152 HD
ATOM     19  O   LIG    1       27.248 -33.695   2.728  0.00  0.00    -0.227 OA
BRANCH  16  20
ATOM     20  O   LIG    1       28.538 -33.621   4.633  0.00  0.00    -0.451 OA
BRANCH  20  22
ATOM     21  C   LIG    1       29.679 -33.792   6.786  0.00  0.00    +0.048 C 
ATOM     22  C   LIG    1       28.399 -33.426   6.050  0.00  0.00    +0.230 C 
ENDBRANCH  20  22
ENDBRANCH  16  20
ENDBRANCH   1  17
BRANCH   7  23
ATOM     23  C   LIG    1       24.001 -29.095   7.563  0.00  0.00    -0.021 C 
ATOM     24  C   LIG    1       24.971 -28.520   6.832  0.00  0.00    +0.024 C 
BRANCH  24  25
ATOM     25  C   LIG    1       25.086 -27.075   6.596  0.00  0.00    +0.064 A 
ATOM     26  N   LIG    1       23.997 -26.425   6.143  0.00  0.00    -0.255 NA
ATOM     27  C   LIG    1       24.113 -25.087   5.926  0.00  0.00    +0.119 A 
ATOM     28  C   LIG    1       25.264 -24.317   6.125  0.00  0.00    +0.000 A 
ATOM     29  C   LIG    1       26.364 -25.047   6.603  0.00  0.00    +0.012 A 
ATOM     30  C   LIG    1       26.281 -26.422   6.841  0.00  0.00    +0.028 A 
BRANCH  28  31
ATOM     31  C   LIG    1       25.321 -22.852   5.850  0.00  0.00    -0.014 A 
ATOM     32  C   LIG    1       26.162 -21.984   6.576  0.00  0.00    +0.046 A 
ATOM     33  C   LIG    1       26.201 -20.615   6.311  0.00  0.00    +0.124 A 
ATOM     34  F   LIG    1       27.017 -19.834   7.030  0.00  0.00    -0.205 F 
ATOM     35  C   LIG    1       25.413 -20.049   5.323  0.00  0.00    +0.038 A 
ATOM     36  C   LIG    1       24.573 -20.869   4.586  0.00  0.00    +0.003 A 
ATOM     37  C   LIG    1       24.530 -22.246   4.847  0.00  0.00    +0.009 A 
ENDBRANCH  28  31
ENDBRANCH  24  25
ENDBRANCH   7  23
TORSDOF 6
ENDMDL
MODEL 4
REMARK VINA RESULT:      -6.9      1.840      2.445
REMARK  Name = *****
REMARK                            x       y       z     vdW  Elec       q    Type
REMARK                         _______ _______ _______ _____ _____    ______ ____
ROOT
ATOM      1  C   LIG    1       24.389 -30.832  12.830  0.00  0.00    +0.076 C 
ATOM      2  C   LIG    1       25.363 -31.787  12.135  0.00  0.00    +0.026 C 
ATOM      3  C   LIG    1       25.499 -31.592  10.613  0.00  0.00    -0.005 C 
ATOM      4  C   LIG    1       24.391 -32.356   9.859  0.00  0.00    +0.019 C 
ATOM      5  C   LIG    1       24.559 -32.158   8.369  0.00  0.00    +0.105 C 
ATOM      6  C   LIG    1       24.428 -30.684   8.032  0.00  0.00    +0.050 C 
ATOM      7  C   LIG    1       25.625 -29.926   8.619  0.00  0.00    +0.023 C 
ATOM      8  C   LIG    1       24.137 -30.742   6.540  0.00  0.00    +0.178 C 
ATOM      9  C   LIG    1       25.319 -30.888   5.594  0.00  0.00    +0.052 C 
ATOM     10  O   LIG    1       23.302 -31.919   6.415  0.00  0.00    -0.461 OA
ATOM     11  C   LIG    1       23.501 -32.751   7.488  0.00  0.00    +0.311 C 
ATOM     12  O   LIG    1       22.942 -33.821   7.651  0.00  0.00    -0.251 OA
ATOM     13  C   LIG    1       25.649 -30.097  10.185  0.00  0.00    -0.000 C 
ATOM     14  C   LIG    1       24.648 -29.182  10.923  0.00  0.00    +0.006 C 
ATOM     15  C   LIG    1       24.685 -29.388  12.436  0.00  0.00    +0.022 C 
ENDROOT
BRANCH   1  17
ATOM     16  C   LIG    1       21.976 -30.618  13.324  0.00  0.00    +0.401 C 
ATOM     17  N   LIG    1       22.997 -31.164  12.593  0.00  0.00    -0.278 N 
ATOM     18  H   LIG    1       22.719 -31.722  11.791  0.00  0.00    +0.152 HD
ATOM     19  O   LIG    1       22.086 -30.003  14.361  0.00  0.00    -0.227 OA
BRANCH  16  20
ATOM     20  O   LIG    1       20.818 -30.838  12.631  0.00  0.00    -0.451 OA
BRANCH  20  22
ATOM     21  C   LIG    1       19.790 -30.988  10.420  0.00  0.00    +0.048 C 
ATOM     22  C   LIG    1       20.764 -30.245  11.323  0.00  0.00    +0.230 C 
ENDBRANCH  20  22
ENDBRANCH  16  20
ENDBRANCH   1  17
BRANCH   7  23
ATOM     23  C   LIG    1       25.666 -28.480   8.194  0.00  0.00    -0.021 C 
ATOM     24  C   LIG    1       24.888 -27.968   7.225  0.00  0.00    +0.024 C 
BRANCH  24  25
ATOM     25  C   LIG    1       24.943 -26.573   6.769  0.00  0.00    +0.064 A 
ATOM     26  N   LIG    1       23.877 -26.087   6.105  0.00  0.00    -0.255 NA
ATOM     27  C   LIG    1       23.938 -24.795   5.685  0.00  0.00    +0.119 A 
ATOM     28  C   LIG    1       25.011 -23.916   5.874  0.00  0.00    +0.000 A 
ATOM     29  C   LIG    1       26.090 -24.476   6.577  0.00  0.00    +0.012 A 
ATOM     30  C   LIG    1       26.062 -25.799   7.027  0.00  0.00    +0.028 A 
BRANCH  28  31
ATOM     31  C   LIG    1       25.012 -22.512   5.370  0.00  0.00    -0.014 A 
ATOM     32  C   LIG    1       24.346 -22.140   4.185  0.00  0.00    +0.046 A 
ATOM     33  C   LIG    1       24.359 -20.824   3.722  0.00  0.00    +0.124 A 
ATOM     34  F   LIG    1       23.711 -20.523   2.590  0.00  0.00    -0.205 F 
ATOM     35  C   LIG    1       25.028 -19.825   4.410  0.00  0.00    +0.038 A 
ATOM     36  C   LIG    1       25.694 -20.151   5.582  0.00  0.00    +0.003 A 
ATOM     37  C   LIG    1       25.684 -21.472   6.051  0.00  0.00    +0.009 A 
ENDBRANCH  28  31
ENDBRANCH  24  25
ENDBRANCH   7  23
TORSDOF 6
ENDMDL
MODEL 5
REMARK VINA RESULT:      -6.4      5.704     10.407
REMARK  Name = *****
REMARK                            x       y       z     vdW  Elec       q    Type
REMARK                         _______ _______ _______ _____ _____    ______ ____
ROOT
ATOM      1  C   LIG    1       28.495 -20.238   7.717  0.00  0.00    +0.076 C 
ATOM      2  C   LIG    1       27.342 -20.139   8.718  0.00  0.00    +0.026 C 
ATOM      3  C   LIG    1       26.096 -20.976   8.369  0.00  0.00    -0.005 C 
ATOM      4  C   LIG    1       25.172 -20.209   7.402  0.00  0.00    +0.019 C 
ATOM      5  C   LIG    1       23.952 -21.048   7.089  0.00  0.00    +0.105 C 
ATOM      6  C   LIG    1       24.380 -22.336   6.410  0.00  0.00    +0.050 C 
ATOM      7  C   LIG    1       25.148 -23.202   7.414  0.00  0.00    +0.023 C 
ATOM      8  C   LIG    1       23.078 -22.780   5.761  0.00  0.00    +0.178 C 
ATOM      9  C   LIG    1       22.077 -23.529   6.625  0.00  0.00    +0.052 C 
ATOM     10  O   LIG    1       22.478 -21.530   5.343  0.00  0.00    -0.461 OA
ATOM     11  C   LIG    1       22.995 -20.493   6.078  0.00  0.00    +0.311 C 
ATOM     12  O   LIG    1       22.672 -19.325   5.955  0.00  0.00    -0.251 OA
ATOM     13  C   LIG    1       26.430 -22.432   7.913  0.00  0.00    -0.000 C 
ATOM     14  C   LIG    1       27.604 -22.470   6.912  0.00  0.00    +0.006 C 
ATOM     15  C   LIG    1       28.820 -21.699   7.420  0.00  0.00    +0.022 C 
ENDROOT
BRANCH   1  17
ATOM     16  C   LIG    1       29.173 -18.627   5.969  0.00  0.00    +0.401 C 
ATOM     17  N   LIG    1       28.255 -19.496   6.494  0.00  0.00    -0.278 N 
ATOM     18  H   LIG    1       27.443 -19.689   5.913  0.00  0.00    +0.152 HD
ATOM     19  O   LIG    1       30.155 -18.195   6.531  0.00  0.00    -0.227 OA
BRANCH  16  20
ATOM     20  O   LIG    1       28.812 -18.390   4.671  0.00  0.00    -0.451 OA
BRANCH  20  22
ATOM     21  C   LIG    1       26.862 -17.365   3.617  0.00  0.00    +0.048 C 
ATOM     22  C   LIG    1       28.122 -17.151   4.442  0.00  0.00    +0.230 C 
ENDBRANCH  20  22
ENDBRANCH  16  20
ENDBRANCH   1  17
BRANCH   7  23
ATOM     23  C   LIG    1       25.472 -24.574   6.876  0.00  0.00    -0.021 C 
ATOM     24  C   LIG    1       24.624 -25.615   6.938  0.00  0.00    +0.024 C 
BRANCH  24  25
ATOM     25  C   LIG    1       24.935 -26.967   6.459  0.00  0.00    +0.064 A 
ATOM     26  N   LIG    1       24.773 -27.991   7.319  0.00  0.00    -0.255 NA
ATOM     27  C   LIG    1       25.066 -29.240   6.867  0.00  0.00    +0.119 A 
ATOM     28  C   LIG    1       25.527 -29.566   5.586  0.00  0.00    +0.000 A 
ATOM     29  C   LIG    1       25.670 -28.460   4.733  0.00  0.00    +0.012 A 
ATOM     30  C   LIG    1       25.376 -27.162   5.162  0.00  0.00    +0.028 A 
BRANCH  28  31
ATOM     31  C   LIG    1       25.842 -30.962   5.166  0.00  0.00    -0.014 A 
ATOM     32  C   LIG    1       25.661 -31.405   3.840  0.00  0.00    +0.046 A 
ATOM     33  C   LIG    1       25.955 -32.715   3.462  0.00  0.00    +0.124 A 
ATOM     34  F   LIG    1       25.764 -33.086   2.189  0.00  0.00    -0.205 F 
ATOM     35  C   LIG    1       26.439 -33.637   4.374  0.00  0.00    +0.038 A 
ATOM     36  C   LIG    1       26.633 -33.240   5.689  0.00  0.00    +0.003 A 
ATOM     37  C   LIG    1       26.339 -31.924   6.074  0.00  0.00    +0.009 A 
ENDBRANCH  28  31
ENDBRANCH  24  25
ENDBRANCH   7  23
TORSDOF 6
ENDMDL
