MODEL 1
REMARK VINA RESULT:      -7.8      0.000      0.000
REMARK  Name = *****
REMARK                            x       y       z     vdW  Elec       q    Type
REMARK                         _______ _______ _______ _____ _____    ______ ____
ROOT
ATOM      1  O   LIG    1       25.807 -21.382   5.866  0.00  0.00    -0.489 OA
ENDROOT
BRANCH   1   3
ATOM      2  C   LIG    1       23.542 -20.614   5.915  0.00  0.00    -0.002 A 
ATOM      3  C   LIG    1       24.834 -20.542   5.357  0.00  0.00    +0.124 A 
ATOM      4  C   LIG    1       25.054 -19.695   4.261  0.00  0.00    +0.046 A 
ATOM      5  C   LIG    1       24.011 -18.948   3.706  0.00  0.00    +0.004 A 
ATOM      6  C   LIG    1       22.721 -19.077   4.204  0.00  0.00    +0.001 A 
ATOM      7  C   LIG    1       22.486 -19.908   5.298  0.00  0.00    +0.007 A 
BRANCH   2   8
ATOM      8  C   LIG    1       23.256 -21.423   7.161  0.00  0.00    +0.065 C 
BRANCH   8  10
ATOM      9  C   LIG    1       23.538 -23.930   6.703  0.00  0.00    +0.004 C 
ATOM     10  C   LIG    1       22.798 -22.852   6.939  0.00  0.00    -0.030 C 
ENDBRANCH   8  10
ENDBRANCH   2   8
ENDBRANCH   1   3
BRANCH   1  11
ATOM     11  C   LIG    1       26.880 -20.706   6.551  0.00  0.00    +0.261 C 
BRANCH  11  12
ATOM     12  C   LIG    1       27.506 -21.604   7.638  0.00  0.00    +0.166 C 
BRANCH  12  13
ATOM     13  O   LIG    1       26.736 -21.566   8.845  0.00  0.00    -0.387 OA
ATOM     14  H   LIG    1       26.445 -20.639   8.939  0.00  0.00    +0.210 HD
ENDBRANCH  12  13
BRANCH  12  15
ATOM     15  C   LIG    1       28.984 -21.209   7.933  0.00  0.00    +0.115 C 
BRANCH  15  16
ATOM     16  N   LIG    1       29.745 -20.758   6.746  0.00  0.00    -0.311 NA
ATOM     17  H   LIG    1       29.119 -20.837   5.940  0.00  0.00    +0.122 HD
BRANCH  16  18
ATOM     18  C   LIG    1       30.238 -19.369   6.855  0.00  0.00    +0.048 C 
ATOM     19  C   LIG    1       29.966 -18.806   8.257  0.00  0.00    +0.024 C 
ATOM     20  C   LIG    1       29.589 -18.439   5.823  0.00  0.00    +0.024 C 
ENDBRANCH  16  18
ENDBRANCH  15  16
ENDBRANCH  12  15
ENDBRANCH  11  12
ENDBRANCH   1  11
TORSDOF 9
ENDMDL
MODEL 2
REMARK VINA RESULT:      -7.7      1.571      3.541
REMARK  Name = *****
REMARK                            x       y       z     vdW  Elec       q    Type
REMARK                         _______ _______ _______ _____ _____    ______ ____
ROOT
ATOM      1  O   LIG    1       26.090 -21.618   7.604  0.00  0.00    -0.489 OA
ENDROOT
BRANCH   1   3
ATOM      2  C   LIG    1       23.968 -22.563   7.035  0.00  0.00    -0.002 A 
ATOM      3  C   LIG    1       25.367 -22.696   7.128  0.00  0.00    +0.124 A 
ATOM      4  C   LIG    1       25.953 -23.933   6.823  0.00  0.00    +0.046 A 
ATOM      5  C   LIG    1       25.170 -25.031   6.457  0.00  0.00    +0.004 A 
ATOM      6  C   LIG    1       23.786 -24.924   6.440  0.00  0.00    +0.001 A 
ATOM      7  C   LIG    1       23.187 -23.700   6.732  0.00  0.00    +0.007 A 
BRANCH   2   8
ATOM      8  C   LIG    1       23.277 -21.233   7.245  0.00  0.00    +0.065 C 
BRANCH   8  10
ATOM      9  C   LIG    1       22.332 -20.484   4.982  0.00  0.00    +0.004 C 
ATOM     10  C   LIG    1       23.149 -20.347   6.020  0.00  0.00    -0.030 C 
ENDBRANCH   8  10
ENDBRANCH   2   8
ENDBRANCH   1   3
BRANCH   1  11
ATOM     11  C   LIG    1       27.489 -21.638   7.255  0.00  0.00    +0.261 C 
BRANCH  11  12
ATOM     12  C   LIG    1       27.956 -20.266   6.729  0.00  0.00    +0.166 C 
BRANCH  12  13
ATOM     13  O   LIG    1       27.962 -20.237   5.296  0.00  0.00    -0.387 OA
ATOM     14  H   LIG    1       27.169 -20.736   5.023  0.00  0.00    +0.210 HD
ENDBRANCH  12  13
BRANCH  12  15
ATOM     15  C   LIG    1       29.364 -19.884   7.278  0.00  0.00    +0.115 C 
BRANCH  15  16
ATOM     16  N   LIG    1       29.349 -19.273   8.625  0.00  0.00    -0.311 NA
ATOM     17  H   LIG    1       29.640 -19.998   9.287  0.00  0.00    +0.122 HD
BRANCH  16  18
ATOM     18  C   LIG    1       30.241 -18.102   8.751  0.00  0.00    +0.048 C 
ATOM     19  C   LIG    1       31.671 -18.461   8.321  0.00  0.00    +0.024 C 
ATOM     20  C   LIG    1       30.287 -17.557  10.184  0.00  0.00    +0.024 C 
ENDBRANCH  16  18
ENDBRANCH  15  16
ENDBRANCH  12  15
ENDBRANCH  11  12
ENDBRANCH   1  11
TORSDOF 9
ENDMDL
MODEL 3
REMARK VINA RESULT:      -7.5      1.526      3.247
REMARK  Name = *****
REMARK                            x       y       z     vdW  Elec       q    Type
REMARK                         _______ _______ _______ _____ _____    ______ ____
ROOT
ATOM      1  O   LIG    1       25.771 -21.231   5.680  0.00  0.00    -0.489 OA
ENDROOT
BRANCH   1   3
ATOM      2  C   LIG    1       23.571 -21.903   6.333  0.00  0.00    -0.002 A 
ATOM      3  C   LIG    1       24.875 -22.253   5.932  0.00  0.00    +0.124 A 
ATOM      4  C   LIG    1       25.234 -23.608   5.892  0.00  0.00    +0.046 A 
ATOM      5  C   LIG    1       24.327 -24.604   6.267  0.00  0.00    +0.004 A 
ATOM      6  C   LIG    1       23.068 -24.259   6.737  0.00  0.00    +0.001 A 
ATOM      7  C   LIG    1       22.692 -22.917   6.776  0.00  0.00    +0.007 A 
BRANCH   2   8
ATOM      8  C   LIG    1       23.082 -20.472   6.298  0.00  0.00    +0.065 C 
BRANCH   8  10
ATOM      9  C   LIG    1       22.345 -18.805   4.494  0.00  0.00    +0.004 C 
ATOM     10  C   LIG    1       22.412 -20.027   5.012  0.00  0.00    -0.030 C 
ENDBRANCH   8  10
ENDBRANCH   2   8
ENDBRANCH   1   3
BRANCH   1  11
ATOM     11  C   LIG    1       26.557 -20.832   6.821  0.00  0.00    +0.261 C 
BRANCH  11  12
ATOM     12  C   LIG    1       27.829 -20.074   6.389  0.00  0.00    +0.166 C 
BRANCH  12  13
ATOM     13  O   LIG    1       27.949 -20.037   4.962  0.00  0.00    -0.387 OA
ATOM     14  H   LIG    1       27.971 -20.971   4.679  0.00  0.00    +0.210 HD
ENDBRANCH  12  13
BRANCH  12  15
ATOM     15  C   LIG    1       29.113 -20.694   7.018  0.00  0.00    +0.115 C 
BRANCH  15  16
ATOM     16  N   LIG    1       29.380 -20.266   8.410  0.00  0.00    -0.311 NA
ATOM     17  H   LIG    1       29.503 -21.116   8.967  0.00  0.00    +0.122 HD
BRANCH  16  18
ATOM     18  C   LIG    1       30.576 -19.410   8.544  0.00  0.00    +0.048 C 
ATOM     19  C   LIG    1       30.193 -18.021   9.075  0.00  0.00    +0.024 C 
ATOM     20  C   LIG    1       31.318 -19.233   7.214  0.00  0.00    +0.024 C 
ENDBRANCH  16  18
ENDBRANCH  15  16
ENDBRANCH  12  15
ENDBRANCH  11  12
ENDBRANCH   1  11
TORSDOF 9
ENDMDL
MODEL 4
REMARK VINA RESULT:      -7.4      2.262      3.966
REMARK  Name = *****
REMARK                            x       y       z     vdW  Elec       q    Type
REMARK                         _______ _______ _______ _____ _____    ______ ____
ROOT
ATOM      1  O   LIG    1       27.889 -20.025   5.774  0.00  0.00    -0.489 OA
ENDROOT
BRANCH   1   3
ATOM      2  C   LIG    1       25.543 -20.492   5.790  0.00  0.00    -0.002 A 
ATOM      3  C   LIG    1       26.784 -20.499   6.457  0.00  0.00    +0.124 A 
ATOM      4  C   LIG    1       26.830 -20.898   7.800  0.00  0.00    +0.046 A 
ATOM      5  C   LIG    1       25.667 -21.260   8.485  0.00  0.00    +0.004 A 
ATOM      6  C   LIG    1       24.433 -21.178   7.854  0.00  0.00    +0.001 A 
ATOM      7  C   LIG    1       24.369 -20.792   6.516  0.00  0.00    +0.007 A 
BRANCH   2   8
ATOM      8  C   LIG    1       25.433 -20.176   4.314  0.00  0.00    +0.065 C 
BRANCH   8  10
ATOM      9  C   LIG    1       23.314 -18.817   3.826  0.00  0.00    +0.004 C 
ATOM     10  C   LIG    1       24.031 -19.934   3.786  0.00  0.00    -0.030 C 
ENDBRANCH   8  10
ENDBRANCH   2   8
ENDBRANCH   1   3
BRANCH   1  11
ATOM     11  C   LIG    1       29.143 -20.228   6.456  0.00  0.00    +0.261 C 
BRANCH  11  12
ATOM     12  C   LIG    1       29.841 -18.885   6.757  0.00  0.00    +0.166 C 
BRANCH  12  13
ATOM     13  O   LIG    1       30.137 -18.175   5.549  0.00  0.00    -0.387 OA
ATOM     14  H   LIG    1       30.947 -18.590   5.195  0.00  0.00    +0.210 HD
ENDBRANCH  12  13
BRANCH  12  15
ATOM     15  C   LIG    1       31.140 -19.085   7.594  0.00  0.00    +0.115 C 
BRANCH  15  16
ATOM     16  N   LIG    1       31.813 -17.827   7.988  0.00  0.00    -0.311 NA
ATOM     17  H   LIG    1       31.308 -17.061   7.533  0.00  0.00    +0.122 HD
BRANCH  16  18
ATOM     18  C   LIG    1       31.838 -17.604   9.448  0.00  0.00    +0.048 C 
ATOM     19  C   LIG    1       30.424 -17.326   9.978  0.00  0.00    +0.024 C 
ATOM     20  C   LIG    1       32.744 -16.432   9.843  0.00  0.00    +0.024 C 
ENDBRANCH  16  18
ENDBRANCH  15  16
ENDBRANCH  12  15
ENDBRANCH  11  12
ENDBRANCH   1  11
TORSDOF 9
ENDMDL
MODEL 5
REMARK VINA RESULT:      -7.2      2.182      3.291
REMARK  Name = *****
REMARK                            x       y       z     vdW  Elec       q    Type
REMARK                         _______ _______ _______ _____ _____    ______ ____
ROOT
ATOM      1  O   LIG    1       27.253 -22.113   7.323  0.00  0.00    -0.489 OA
ENDROOT
BRANCH   1   3
ATOM      2  C   LIG    1       25.177 -23.245   6.965  0.00  0.00    -0.002 A 
ATOM      3  C   LIG    1       25.871 -22.069   7.312  0.00  0.00    +0.124 A 
ATOM      4  C   LIG    1       25.143 -20.893   7.543  0.00  0.00    +0.046 A 
ATOM      5  C   LIG    1       23.752 -20.869   7.407  0.00  0.00    +0.004 A 
ATOM      6  C   LIG    1       23.073 -22.005   6.989  0.00  0.00    +0.001 A 
ATOM      7  C   LIG    1       23.780 -23.185   6.764  0.00  0.00    +0.007 A 
BRANCH   2   8
ATOM      8  C   LIG    1       25.885 -24.573   6.807  0.00  0.00    +0.065 C 
BRANCH   8  10
ATOM      9  C   LIG    1       25.600 -26.375   5.005  0.00  0.00    +0.004 C 
ATOM     10  C   LIG    1       25.147 -25.631   6.009  0.00  0.00    -0.030 C 
ENDBRANCH   8  10
ENDBRANCH   2   8
ENDBRANCH   1   3
BRANCH   1  11
ATOM     11  C   LIG    1       27.890 -20.934   6.792  0.00  0.00    +0.261 C 
BRANCH  11  12
ATOM     12  C   LIG    1       29.300 -20.742   7.388  0.00  0.00    +0.166 C 
BRANCH  12  13
ATOM     13  O   LIG    1       29.453 -21.486   8.603  0.00  0.00    -0.387 OA
ATOM     14  H   LIG    1       28.881 -21.039   9.255  0.00  0.00    +0.210 HD
ENDBRANCH  12  13
BRANCH  12  15
ATOM     15  C   LIG    1       29.622 -19.237   7.637  0.00  0.00    +0.115 C 
BRANCH  15  16
ATOM     16  N   LIG    1       29.576 -18.830   9.059  0.00  0.00    -0.311 NA
ATOM     17  H   LIG    1       29.926 -19.620   9.609  0.00  0.00    +0.122 HD
BRANCH  16  18
ATOM     18  C   LIG    1       30.381 -17.627   9.354  0.00  0.00    +0.048 C 
ATOM     19  C   LIG    1       31.820 -17.799   8.847  0.00  0.00    +0.024 C 
ATOM     20  C   LIG    1       30.429 -17.312  10.854  0.00  0.00    +0.024 C 
ENDBRANCH  16  18
ENDBRANCH  15  16
ENDBRANCH  12  15
ENDBRANCH  11  12
ENDBRANCH   1  11
TORSDOF 9
ENDMDL
MODEL 6
REMARK VINA RESULT:      -7.0      1.460      1.977
REMARK  Name = *****
REMARK                            x       y       z     vdW  Elec       q    Type
REMARK                         _______ _______ _______ _____ _____    ______ ____
ROOT
ATOM      1  O   LIG    1       26.679 -20.878   6.471  0.00  0.00    -0.489 OA
ENDROOT
BRANCH   1   3
ATOM      2  C   LIG    1       24.348 -20.648   5.985  0.00  0.00    -0.002 A 
ATOM      3  C   LIG    1       25.688 -20.369   5.651  0.00  0.00    +0.124 A 
ATOM      4  C   LIG    1       25.962 -19.671   4.466  0.00  0.00    +0.046 A 
ATOM      5  C   LIG    1       24.932 -19.276   3.608  0.00  0.00    +0.004 A 
ATOM      6  C   LIG    1       23.618 -19.618   3.894  0.00  0.00    +0.001 A 
ATOM      7  C   LIG    1       23.326 -20.304   5.072  0.00  0.00    +0.007 A 
BRANCH   2   8
ATOM      8  C   LIG    1       23.972 -21.302   7.297  0.00  0.00    +0.065 C 
BRANCH   8  10
ATOM      9  C   LIG    1       23.429 -23.737   6.706  0.00  0.00    +0.004 C 
ATOM     10  C   LIG    1       23.109 -22.546   7.199  0.00  0.00    -0.030 C 
ENDBRANCH   8  10
ENDBRANCH   2   8
ENDBRANCH   1   3
BRANCH   1  11
ATOM     11  C   LIG    1       28.019 -20.515   6.082  0.00  0.00    +0.261 C 
BRANCH  11  12
ATOM     12  C   LIG    1       28.998 -20.630   7.269  0.00  0.00    +0.166 C 
BRANCH  12  13
ATOM     13  O   LIG    1       28.349 -21.181   8.421  0.00  0.00    -0.387 OA
ATOM     14  H   LIG    1       28.194 -22.121   8.208  0.00  0.00    +0.210 HD
ENDBRANCH  12  13
BRANCH  12  15
ATOM     15  C   LIG    1       29.642 -19.256   7.622  0.00  0.00    +0.115 C 
BRANCH  15  16
ATOM     16  N   LIG    1       30.007 -19.100   9.048  0.00  0.00    -0.311 NA
ATOM     17  H   LIG    1       30.762 -19.765   9.239  0.00  0.00    +0.122 HD
BRANCH  16  18
ATOM     18  C   LIG    1       30.450 -17.735   9.398  0.00  0.00    +0.048 C 
ATOM     19  C   LIG    1       31.902 -17.506   8.955  0.00  0.00    +0.024 C 
ATOM     20  C   LIG    1       30.352 -17.459  10.903  0.00  0.00    +0.024 C 
ENDBRANCH  16  18
ENDBRANCH  15  16
ENDBRANCH  12  15
ENDBRANCH  11  12
ENDBRANCH   1  11
TORSDOF 9
ENDMDL
MODEL 7
REMARK VINA RESULT:      -6.9      2.505      5.107
REMARK  Name = *****
REMARK                            x       y       z     vdW  Elec       q    Type
REMARK                         _______ _______ _______ _____ _____    ______ ____
ROOT
ATOM      1  O   LIG    1       24.350 -21.054   7.122  0.00  0.00    -0.489 OA
ENDROOT
BRANCH   1   3
ATOM      2  C   LIG    1       25.034 -20.179   5.003  0.00  0.00    -0.002 A 
ATOM      3  C   LIG    1       24.012 -20.414   5.943  0.00  0.00    +0.124 A 
ATOM      4  C   LIG    1       22.727 -19.914   5.689  0.00  0.00    +0.046 A 
ATOM      5  C   LIG    1       22.458 -19.171   4.535  0.00  0.00    +0.004 A 
ATOM      6  C   LIG    1       23.481 -18.872   3.646  0.00  0.00    +0.001 A 
ATOM      7  C   LIG    1       24.762 -19.367   3.880  0.00  0.00    +0.007 A 
BRANCH   2   8
ATOM      8  C   LIG    1       26.415 -20.777   5.160  0.00  0.00    +0.065 C 
BRANCH   8  10
ATOM      9  C   LIG    1       28.673 -20.248   6.255  0.00  0.00    +0.004 C 
ATOM     10  C   LIG    1       27.409 -19.960   5.964  0.00  0.00    -0.030 C 
ENDBRANCH   8  10
ENDBRANCH   2   8
ENDBRANCH   1   3
BRANCH   1  11
ATOM     11  C   LIG    1       23.526 -22.193   7.439  0.00  0.00    +0.261 C 
BRANCH  11  12
ATOM     12  C   LIG    1       23.813 -23.375   6.491  0.00  0.00    +0.166 C 
BRANCH  12  13
ATOM     13  O   LIG    1       22.809 -24.391   6.613  0.00  0.00    -0.387 OA
ATOM     14  H   LIG    1       22.947 -24.985   5.851  0.00  0.00    +0.210 HD
ENDBRANCH  12  13
BRANCH  12  15
ATOM     15  C   LIG    1       25.225 -23.985   6.739  0.00  0.00    +0.115 C 
BRANCH  15  16
ATOM     16  N   LIG    1       25.758 -24.775   5.607  0.00  0.00    -0.311 NA
ATOM     17  H   LIG    1       26.773 -24.635   5.595  0.00  0.00    +0.122 HD
BRANCH  16  18
ATOM     18  C   LIG    1       25.459 -26.218   5.700  0.00  0.00    +0.048 C 
ATOM     19  C   LIG    1       25.968 -26.792   7.030  0.00  0.00    +0.024 C 
ATOM     20  C   LIG    1       26.086 -27.019   4.553  0.00  0.00    +0.024 C 
ENDBRANCH  16  18
ENDBRANCH  15  16
ENDBRANCH  12  15
ENDBRANCH  11  12
ENDBRANCH   1  11
TORSDOF 9
ENDMDL
MODEL 8
REMARK VINA RESULT:      -6.8      4.087      6.993
REMARK  Name = *****
REMARK                            x       y       z     vdW  Elec       q    Type
REMARK                         _______ _______ _______ _____ _____    ______ ____
ROOT
ATOM      1  O   LIG    1       25.978 -24.345   6.731  0.00  0.00    -0.489 OA
ENDROOT
BRANCH   1   3
ATOM      2  C   LIG    1       25.774 -22.021   7.258  0.00  0.00    -0.002 A 
ATOM      3  C   LIG    1       25.169 -23.232   6.866  0.00  0.00    +0.124 A 
ATOM      4  C   LIG    1       23.776 -23.279   6.720  0.00  0.00    +0.046 A 
ATOM      5  C   LIG    1       22.985 -22.156   6.980  0.00  0.00    +0.004 A 
ATOM      6  C   LIG    1       23.570 -20.985   7.441  0.00  0.00    +0.001 A 
ATOM      7  C   LIG    1       24.955 -20.918   7.585  0.00  0.00    +0.007 A 
BRANCH   2   8
ATOM      8  C   LIG    1       27.277 -21.867   7.332  0.00  0.00    +0.065 C 
BRANCH   8  10
ATOM      9  C   LIG    1       28.270 -19.937   5.967  0.00  0.00    +0.004 C 
ATOM     10  C   LIG    1       27.818 -20.470   7.097  0.00  0.00    -0.030 C 
ENDBRANCH   8  10
ENDBRANCH   2   8
ENDBRANCH   1   3
BRANCH   1  11
ATOM     11  C   LIG    1       25.613 -25.218   5.643  0.00  0.00    +0.261 C 
BRANCH  11  12
ATOM     12  C   LIG    1       26.106 -26.659   5.890  0.00  0.00    +0.166 C 
BRANCH  12  13
ATOM     13  O   LIG    1       27.504 -26.783   5.599  0.00  0.00    -0.387 OA
ATOM     14  H   LIG    1       27.733 -27.707   5.816  0.00  0.00    +0.210 HD
ENDBRANCH  12  13
BRANCH  12  15
ATOM     15  C   LIG    1       25.292 -27.698   5.062  0.00  0.00    +0.115 C 
BRANCH  15  16
ATOM     16  N   LIG    1       24.069 -28.191   5.732  0.00  0.00    -0.311 NA
ATOM     17  H   LIG    1       23.299 -28.090   5.064  0.00  0.00    +0.122 HD
BRANCH  16  18
ATOM     18  C   LIG    1       24.163 -29.599   6.169  0.00  0.00    +0.048 C 
ATOM     19  C   LIG    1       24.323 -29.685   7.694  0.00  0.00    +0.024 C 
ATOM     20  C   LIG    1       25.338 -30.335   5.515  0.00  0.00    +0.024 C 
ENDBRANCH  16  18
ENDBRANCH  15  16
ENDBRANCH  12  15
ENDBRANCH  11  12
ENDBRANCH   1  11
TORSDOF 9
ENDMDL
MODEL 9
REMARK VINA RESULT:      -6.8      3.141      6.007
REMARK  Name = *****
REMARK                            x       y       z     vdW  Elec       q    Type
REMARK                         _______ _______ _______ _____ _____    ______ ____
ROOT
ATOM      1  O   LIG    1       24.914 -22.306   7.424  0.00  0.00    -0.489 OA
ENDROOT
BRANCH   1   3
ATOM      2  C   LIG    1       25.648 -20.750   5.762  0.00  0.00    -0.002 A 
ATOM      3  C   LIG    1       25.859 -21.390   6.999  0.00  0.00    +0.124 A 
ATOM      4  C   LIG    1       27.050 -21.144   7.698  0.00  0.00    +0.046 A 
ATOM      5  C   LIG    1       28.031 -20.297   7.173  0.00  0.00    +0.004 A 
ATOM      6  C   LIG    1       27.860 -19.726   5.919  0.00  0.00    +0.001 A 
ATOM      7  C   LIG    1       26.679 -19.955   5.215  0.00  0.00    +0.007 A 
BRANCH   2   8
ATOM      8  C   LIG    1       24.345 -20.886   5.006  0.00  0.00    +0.065 C 
BRANCH   8  10
ATOM      9  C   LIG    1       22.426 -19.188   4.902  0.00  0.00    +0.004 C 
ATOM     10  C   LIG    1       23.176 -20.080   5.540  0.00  0.00    -0.030 C 
ENDBRANCH   8  10
ENDBRANCH   2   8
ENDBRANCH   1   3
BRANCH   1  11
ATOM     11  C   LIG    1       25.228 -23.677   7.108  0.00  0.00    +0.261 C 
BRANCH  11  12
ATOM     12  C   LIG    1       24.255 -24.246   6.054  0.00  0.00    +0.166 C 
BRANCH  12  13
ATOM     13  O   LIG    1       22.943 -24.420   6.604  0.00  0.00    -0.387 OA
ATOM     14  H   LIG    1       23.030 -24.217   7.555  0.00  0.00    +0.210 HD
ENDBRANCH  12  13
BRANCH  12  15
ATOM     15  C   LIG    1       24.769 -25.592   5.461  0.00  0.00    +0.115 C 
BRANCH  15  16
ATOM     16  N   LIG    1       23.912 -26.761   5.763  0.00  0.00    -0.311 NA
ATOM     17  H   LIG    1       23.507 -27.073   4.875  0.00  0.00    +0.122 HD
BRANCH  16  18
ATOM     18  C   LIG    1       24.642 -27.879   6.394  0.00  0.00    +0.048 C 
ATOM     19  C   LIG    1       25.850 -27.361   7.186  0.00  0.00    +0.024 C 
ATOM     20  C   LIG    1       25.138 -28.904   5.367  0.00  0.00    +0.024 C 
ENDBRANCH  16  18
ENDBRANCH  15  16
ENDBRANCH  12  15
ENDBRANCH  11  12
ENDBRANCH   1  11
TORSDOF 9
ENDMDL
