MODEL 1
REMARK VINA RESULT:      -8.2      0.000      0.000
REMARK  Name = *****
REMARK                            x       y       z     vdW  Elec       q    Type
REMARK                         _______ _______ _______ _____ _____    ______ ____
ROOT
ATOM      1  C   LIG    1       24.480 -29.998   9.134  0.00  0.00    +0.073 A 
ATOM      2  C   LIG    1       23.744 -31.124   8.680  0.00  0.00    +0.058 A 
ATOM      3 CL   LIG    1       23.783 -31.632   7.014  0.00  0.00    -0.082 Cl
ATOM      4  C   LIG    1       22.990 -31.918   9.583  0.00  0.00    -0.022 A 
ATOM      5  C   LIG    1       22.083 -33.043   9.095  0.00  0.00    +0.056 C 
ATOM      6  C   LIG    1       21.382 -33.825  10.217  0.00  0.00    +0.113 C 
ATOM      7  N   LIG    1       21.018 -32.949  11.324  0.00  0.00    -0.293 N 
ATOM      8  C   LIG    1       22.184 -32.362  11.964  0.00  0.00    +0.143 C 
ATOM      9  C   LIG    1       19.754 -32.349  11.290  0.00  0.00    +0.247 C 
ATOM     10  O   LIG    1       18.966 -32.544  10.365  0.00  0.00    -0.270 OA
ATOM     11  C   LIG    1       23.004 -31.594  10.954  0.00  0.00    -0.024 A 
ATOM     12  C   LIG    1       23.796 -30.542  11.408  0.00  0.00    +0.026 A 
ATOM     13  C   LIG    1       24.508 -29.743  10.516  0.00  0.00    +0.055 A 
ATOM     14 CL   LIG    1       25.370 -28.447  11.270  0.00  0.00    -0.083 Cl
ENDROOT
BRANCH   9  15
ATOM     15  C   LIG    1       19.297 -31.463  12.400  0.00  0.00    +0.040 A 
ATOM     16  C   LIG    1       18.010 -31.580  12.941  0.00  0.00    +0.059 A 
ATOM     17  C   LIG    1       17.670 -30.678  13.948  0.00  0.00    +0.136 A 
ATOM     18  C   LIG    1       18.494 -29.652  14.396  0.00  0.00    +0.020 A 
ATOM     19  C   LIG    1       17.747 -28.967  15.391  0.00  0.00    +0.049 A 
ATOM     20  C   LIG    1       16.545 -29.630  15.500  0.00  0.00    +0.196 A 
ATOM     21  C   LIG    1       19.763 -29.510  13.811  0.00  0.00    +0.012 A 
ATOM     22  O   LIG    1       16.489 -30.667  14.623  0.00  0.00    -0.463 OA
ATOM     23  C   LIG    1       20.151 -30.427  12.819  0.00  0.00    +0.014 A 
ENDBRANCH   9  15
BRANCH   1  26
ATOM     24  N   LIG    1       24.384 -28.428   7.240  0.00  0.00    -0.298 N 
ATOM     25  H   LIG    1       23.431 -28.742   7.100  0.00  0.00    +0.150 HD
ATOM     26  C   LIG    1       25.177 -29.104   8.151  0.00  0.00    +0.248 C 
ATOM     27  O   LIG    1       26.387 -28.934   8.166  0.00  0.00    -0.270 OA
BRANCH  24  28
ATOM     28  CA  LIG    1       24.959 -27.564   6.187  0.00  0.00    +0.186 C 
BRANCH  28  29
ATOM     29  C   LIG    1       25.878 -28.418   5.296  0.00  0.00    +0.326 C 
ATOM     30  O   LIG    1       25.622 -29.557   4.931  0.00  0.00    -0.249 OA
BRANCH  29  31
ATOM     31  OXT LIG    1       26.992 -27.766   4.873  0.00  0.00    -0.479 OA
ATOM     32  HXT LIG    1       27.497 -28.361   4.283  0.00  0.00    +0.295 HD
ENDBRANCH  29  31
ENDBRANCH  28  29
BRANCH  28  33
ATOM     33  C   LIG    1       25.810 -26.421   6.783  0.00  0.00    +0.069 C 
BRANCH  33  36
ATOM     34  C   LIG    1       25.228 -22.682   7.341  0.00  0.00    +0.088 A 
ATOM     35  C   LIG    1       25.860 -23.928   7.273  0.00  0.00    +0.030 A 
ATOM     36  C   LIG    1       25.132 -25.069   6.874  0.00  0.00    -0.043 A 
ATOM     37  C   LIG    1       23.781 -24.915   6.547  0.00  0.00    +0.004 A 
ATOM     38  C   LIG    1       23.163 -23.665   6.612  0.00  0.00    +0.002 A 
ATOM     39  C   LIG    1       23.878 -22.542   7.019  0.00  0.00    +0.027 A 
BRANCH  34  41
ATOM     40  C   LIG    1       26.682 -20.423   6.522  0.00  0.00    +0.200 C 
ATOM     41  S   LIG    1       26.120 -21.271   7.973  0.00  0.00    -0.006 S 
ATOM     42  O   LIG    1       25.160 -20.418   8.649  0.00  0.00    -0.170 OA
ATOM     43  O   LIG    1       27.283 -21.780   8.674  0.00  0.00    -0.170 OA
ENDBRANCH  34  41
ENDBRANCH  33  36
ENDBRANCH  28  33
ENDBRANCH  24  28
ENDBRANCH   1  26
TORSDOF 8
ENDMDL
MODEL 2
REMARK VINA RESULT:      -8.0      2.396      3.234
REMARK  Name = *****
REMARK                            x       y       z     vdW  Elec       q    Type
REMARK                         _______ _______ _______ _____ _____    ______ ____
ROOT
ATOM      1  C   LIG    1       25.482 -28.899   7.929  0.00  0.00    +0.073 A 
ATOM      2  C   LIG    1       24.861 -29.941   7.191  0.00  0.00    +0.058 A 
ATOM      3 CL   LIG    1       24.531 -29.785   5.488  0.00  0.00    -0.082 Cl
ATOM      4  C   LIG    1       24.535 -31.178   7.805  0.00  0.00    -0.022 A 
ATOM      5  C   LIG    1       23.742 -32.253   7.069  0.00  0.00    +0.056 C 
ATOM      6  C   LIG    1       23.525 -33.544   7.873  0.00  0.00    +0.113 C 
ATOM      7  N   LIG    1       23.329 -33.258   9.288  0.00  0.00    -0.293 N 
ATOM      8  C   LIG    1       24.503 -32.649   9.891  0.00  0.00    +0.143 C 
ATOM      9  C   LIG    1       22.019 -33.052   9.736  0.00  0.00    +0.247 C 
ATOM     10  O   LIG    1       21.055 -33.107   8.972  0.00  0.00    -0.270 OA
ATOM     11  C   LIG    1       24.867 -31.378   9.160  0.00  0.00    -0.024 A 
ATOM     12  C   LIG    1       25.555 -30.387   9.857  0.00  0.00    +0.026 A 
ATOM     13  C   LIG    1       25.843 -29.160   9.263  0.00  0.00    +0.055 A 
ATOM     14 CL   LIG    1       26.635 -28.041  10.315  0.00  0.00    -0.083 Cl
ENDROOT
BRANCH   9  15
ATOM     15  C   LIG    1       21.734 -32.783  11.175  0.00  0.00    +0.040 A 
ATOM     16  C   LIG    1       21.382 -31.502  11.621  0.00  0.00    +0.059 A 
ATOM     17  C   LIG    1       21.174 -31.352  12.990  0.00  0.00    +0.136 A 
ATOM     18  C   LIG    1       21.350 -32.361  13.929  0.00  0.00    +0.020 A 
ATOM     19  C   LIG    1       21.065 -31.769  15.188  0.00  0.00    +0.049 A 
ATOM     20  C   LIG    1       20.713 -30.462  14.932  0.00  0.00    +0.196 A 
ATOM     21  C   LIG    1       21.753 -33.630  13.480  0.00  0.00    +0.012 A 
ATOM     22  O   LIG    1       20.782 -30.200  13.600  0.00  0.00    -0.463 OA
ATOM     23  C   LIG    1       21.935 -33.825  12.099  0.00  0.00    +0.014 A 
ENDBRANCH   9  15
BRANCH   1  26
ATOM     24  N   LIG    1       24.599 -26.859   6.870  0.00  0.00    -0.298 N 
ATOM     25  H   LIG    1       23.724 -27.360   6.765  0.00  0.00    +0.150 HD
ATOM     26  C   LIG    1       25.715 -27.559   7.296  0.00  0.00    +0.248 C 
ATOM     27  O   LIG    1       26.830 -27.070   7.191  0.00  0.00    -0.270 OA
BRANCH  24  28
ATOM     28  CA  LIG    1       24.704 -25.556   6.180  0.00  0.00    +0.186 C 
BRANCH  28  29
ATOM     29  C   LIG    1       25.156 -25.801   4.730  0.00  0.00    +0.326 C 
ATOM     30  O   LIG    1       25.710 -26.820   4.343  0.00  0.00    -0.249 OA
BRANCH  29  31
ATOM     31  OXT LIG    1       24.818 -24.802   3.874  0.00  0.00    -0.479 OA
ATOM     32  HXT LIG    1       24.522 -24.029   4.398  0.00  0.00    +0.295 HD
ENDBRANCH  29  31
ENDBRANCH  28  29
BRANCH  28  33
ATOM     33  C   LIG    1       25.748 -24.635   6.850  0.00  0.00    +0.069 C 
BRANCH  33  36
ATOM     34  C   LIG    1       23.964 -21.282   6.392  0.00  0.00    +0.088 A 
ATOM     35  C   LIG    1       24.351 -22.613   6.204  0.00  0.00    +0.030 A 
ATOM     36  C   LIG    1       25.332 -23.190   7.037  0.00  0.00    -0.043 A 
ATOM     37  C   LIG    1       25.891 -22.402   8.049  0.00  0.00    +0.004 A 
ATOM     38  C   LIG    1       25.493 -21.078   8.233  0.00  0.00    +0.002 A 
ATOM     39  C   LIG    1       24.534 -20.504   7.401  0.00  0.00    +0.027 A 
BRANCH  34  41
ATOM     40  C   LIG    1       23.754 -20.336   3.757  0.00  0.00    +0.200 C 
ATOM     41  S   LIG    1       22.822 -20.522   5.252  0.00  0.00    -0.006 S 
ATOM     42  O   LIG    1       21.757 -21.476   5.002  0.00  0.00    -0.170 OA
ATOM     43  O   LIG    1       22.526 -19.197   5.763  0.00  0.00    -0.170 OA
ENDBRANCH  34  41
ENDBRANCH  33  36
ENDBRANCH  28  33
ENDBRANCH  24  28
ENDBRANCH   1  26
TORSDOF 8
ENDMDL
MODEL 3
REMARK VINA RESULT:      -8.0      2.171      2.540
REMARK  Name = *****
REMARK                            x       y       z     vdW  Elec       q    Type
REMARK                         _______ _______ _______ _____ _____    ______ ____
ROOT
ATOM      1  C   LIG    1       24.860 -29.776   7.615  0.00  0.00    +0.073 A 
ATOM      2  C   LIG    1       24.094 -30.943   7.354  0.00  0.00    +0.058 A 
ATOM      3 CL   LIG    1       23.678 -31.419   5.731  0.00  0.00    -0.082 Cl
ATOM      4  C   LIG    1       23.686 -31.801   8.408  0.00  0.00    -0.022 A 
ATOM      5  C   LIG    1       22.746 -32.978   8.164  0.00  0.00    +0.056 C 
ATOM      6  C   LIG    1       22.452 -33.825   9.412  0.00  0.00    +0.113 C 
ATOM      7  N   LIG    1       22.374 -32.994  10.607  0.00  0.00    -0.293 N 
ATOM      8  C   LIG    1       23.637 -32.340  10.903  0.00  0.00    +0.143 C 
ATOM      9  C   LIG    1       21.121 -32.482  10.963  0.00  0.00    +0.247 C 
ATOM     10  O   LIG    1       20.110 -32.715  10.298  0.00  0.00    -0.270 OA
ATOM     11  C   LIG    1       24.080 -31.501   9.727  0.00  0.00    -0.024 A 
ATOM     12  C   LIG    1       24.904 -30.404   9.969  0.00  0.00    +0.026 A 
ATOM     13  C   LIG    1       25.275 -29.543   8.938  0.00  0.00    +0.055 A 
ATOM     14 CL   LIG    1       26.238 -28.204   9.457  0.00  0.00    -0.083 Cl
ENDROOT
BRANCH   9  15
ATOM     15  C   LIG    1       20.953 -31.648  12.188  0.00  0.00    +0.040 A 
ATOM     16  C   LIG    1       20.780 -30.260  12.106  0.00  0.00    +0.059 A 
ATOM     17  C   LIG    1       20.671 -29.571  13.312  0.00  0.00    +0.136 A 
ATOM     18  C   LIG    1       20.781 -30.158  14.566  0.00  0.00    +0.020 A 
ATOM     19  C   LIG    1       20.642 -29.097  15.500  0.00  0.00    +0.049 A 
ATOM     20  C   LIG    1       20.431 -27.954  14.762  0.00  0.00    +0.196 A 
ATOM     21  C   LIG    1       21.007 -31.542  14.640  0.00  0.00    +0.012 A 
ATOM     22  O   LIG    1       20.452 -28.233  13.432  0.00  0.00    -0.463 OA
ATOM     23  C   LIG    1       21.084 -32.273  13.441  0.00  0.00    +0.014 A 
ENDBRANCH   9  15
BRANCH   1  26
ATOM     24  N   LIG    1       25.002 -27.473   6.760  0.00  0.00    -0.298 N 
ATOM     25  H   LIG    1       24.434 -27.202   7.555  0.00  0.00    +0.150 HD
ATOM     26  C   LIG    1       25.186 -28.821   6.506  0.00  0.00    +0.248 C 
ATOM     27  O   LIG    1       25.634 -29.193   5.432  0.00  0.00    -0.270 OA
BRANCH  24  28
ATOM     28  CA  LIG    1       25.232 -26.439   5.728  0.00  0.00    +0.186 C 
BRANCH  28  29
ATOM     29  C   LIG    1       26.381 -26.902   4.815  0.00  0.00    +0.326 C 
ATOM     30  O   LIG    1       26.281 -27.064   3.607  0.00  0.00    -0.249 OA
BRANCH  29  31
ATOM     31  OXT LIG    1       27.568 -27.049   5.459  0.00  0.00    -0.479 OA
ATOM     32  HXT LIG    1       28.287 -27.041   4.795  0.00  0.00    +0.295 HD
ENDBRANCH  29  31
ENDBRANCH  28  29
BRANCH  28  33
ATOM     33  C   LIG    1       25.642 -25.087   6.352  0.00  0.00    +0.069 C 
BRANCH  33  36
ATOM     34  C   LIG    1       23.989 -21.824   5.229  0.00  0.00    +0.088 A 
ATOM     35  C   LIG    1       24.925 -22.855   5.371  0.00  0.00    +0.030 A 
ATOM     36  C   LIG    1       24.641 -23.959   6.202  0.00  0.00    -0.043 A 
ATOM     37  C   LIG    1       23.409 -23.993   6.864  0.00  0.00    +0.004 A 
ATOM     38  C   LIG    1       22.480 -22.964   6.710  0.00  0.00    +0.002 A 
ATOM     39  C   LIG    1       22.766 -21.867   5.900  0.00  0.00    +0.027 A 
BRANCH  34  41
ATOM     40  C   LIG    1       23.084 -19.241   4.605  0.00  0.00    +0.200 C 
ATOM     41  S   LIG    1       24.409 -20.372   4.283  0.00  0.00    -0.006 S 
ATOM     42  O   LIG    1       25.622 -19.817   4.855  0.00  0.00    -0.170 OA
ATOM     43  O   LIG    1       24.351 -20.743   2.882  0.00  0.00    -0.170 OA
ENDBRANCH  34  41
ENDBRANCH  33  36
ENDBRANCH  28  33
ENDBRANCH  24  28
ENDBRANCH   1  26
TORSDOF 8
ENDMDL
MODEL 4
REMARK VINA RESULT:      -8.0      4.127      5.928
REMARK  Name = *****
REMARK                            x       y       z     vdW  Elec       q    Type
REMARK                         _______ _______ _______ _____ _____    ______ ____
ROOT
ATOM      1  C   LIG    1       23.970 -30.570   9.999  0.00  0.00    +0.073 A 
ATOM      2  C   LIG    1       22.835 -30.340  10.821  0.00  0.00    +0.058 A 
ATOM      3 CL   LIG    1       21.216 -30.627  10.246  0.00  0.00    -0.082 Cl
ATOM      4  C   LIG    1       22.981 -29.919  12.168  0.00  0.00    -0.022 A 
ATOM      5  C   LIG    1       21.777 -29.531  13.021  0.00  0.00    +0.056 C 
ATOM      6  C   LIG    1       22.121 -29.148  14.468  0.00  0.00    +0.113 C 
ATOM      7  N   LIG    1       23.392 -28.438  14.539  0.00  0.00    -0.293 N 
ATOM      8  C   LIG    1       24.506 -29.266  14.108  0.00  0.00    +0.143 C 
ATOM      9  C   LIG    1       23.364 -27.042  14.437  0.00  0.00    +0.247 C 
ATOM     10  O   LIG    1       22.311 -26.421  14.293  0.00  0.00    -0.270 OA
ATOM     11  C   LIG    1       24.276 -29.762  12.700  0.00  0.00    -0.024 A 
ATOM     12  C   LIG    1       25.387 -30.072  11.918  0.00  0.00    +0.026 A 
ATOM     13  C   LIG    1       25.243 -30.452  10.585  0.00  0.00    +0.055 A 
ATOM     14 CL   LIG    1       26.742 -30.723   9.768  0.00  0.00    -0.083 Cl
ENDROOT
BRANCH   9  15
ATOM     15  C   LIG    1       24.619 -26.242  14.529  0.00  0.00    +0.040 A 
ATOM     16  C   LIG    1       25.807 -26.803  15.017  0.00  0.00    +0.059 A 
ATOM     17  C   LIG    1       26.912 -25.959  15.097  0.00  0.00    +0.136 A 
ATOM     18  C   LIG    1       26.892 -24.605  14.785  0.00  0.00    +0.020 A 
ATOM     19  C   LIG    1       28.207 -24.133  15.038  0.00  0.00    +0.049 A 
ATOM     20  C   LIG    1       28.937 -25.222  15.456  0.00  0.00    +0.196 A 
ATOM     21  C   LIG    1       25.684 -24.037  14.346  0.00  0.00    +0.012 A 
ATOM     22  O   LIG    1       28.157 -26.334  15.500  0.00  0.00    -0.463 OA
ATOM     23  C   LIG    1       24.559 -24.871  14.218  0.00  0.00    +0.014 A 
ENDBRANCH   9  15
BRANCH   1  26
ATOM     24  N   LIG    1       24.177 -29.939   7.629  0.00  0.00    -0.298 N 
ATOM     25  H   LIG    1       24.307 -28.987   7.952  0.00  0.00    +0.150 HD
ATOM     26  C   LIG    1       23.798 -30.903   8.547  0.00  0.00    +0.248 C 
ATOM     27  O   LIG    1       23.382 -31.988   8.169  0.00  0.00    -0.270 OA
BRANCH  24  28
ATOM     28  CA  LIG    1       24.002 -30.127   6.173  0.00  0.00    +0.186 C 
BRANCH  28  29
ATOM     29  C   LIG    1       25.254 -30.823   5.611  0.00  0.00    +0.326 C 
ATOM     30  O   LIG    1       26.174 -31.246   6.297  0.00  0.00    -0.249 OA
BRANCH  29  31
ATOM     31  OXT LIG    1       25.224 -31.001   4.265  0.00  0.00    -0.479 OA
ATOM     32  HXT LIG    1       25.562 -30.189   3.835  0.00  0.00    +0.295 HD
ENDBRANCH  29  31
ENDBRANCH  28  29
BRANCH  28  33
ATOM     33  C   LIG    1       23.842 -28.778   5.436  0.00  0.00    +0.069 C 
BRANCH  33  36
ATOM     34  C   LIG    1       24.725 -25.221   6.530  0.00  0.00    +0.088 A 
ATOM     35  C   LIG    1       24.043 -26.300   5.956  0.00  0.00    +0.030 A 
ATOM     36  C   LIG    1       24.579 -27.602   6.043  0.00  0.00    -0.043 A 
ATOM     37  C   LIG    1       25.790 -27.779   6.719  0.00  0.00    +0.004 A 
ATOM     38  C   LIG    1       26.458 -26.697   7.294  0.00  0.00    +0.002 A 
ATOM     39  C   LIG    1       25.937 -25.409   7.196  0.00  0.00    +0.027 A 
BRANCH  34  41
ATOM     40  C   LIG    1       24.880 -22.627   7.594  0.00  0.00    +0.200 C 
ATOM     41  S   LIG    1       24.109 -23.562   6.301  0.00  0.00    -0.006 S 
ATOM     42  O   LIG    1       24.621 -23.080   5.032  0.00  0.00    -0.170 OA
ATOM     43  O   LIG    1       22.683 -23.596   6.562  0.00  0.00    -0.170 OA
ENDBRANCH  34  41
ENDBRANCH  33  36
ENDBRANCH  28  33
ENDBRANCH  24  28
ENDBRANCH   1  26
TORSDOF 8
ENDMDL
MODEL 5
REMARK VINA RESULT:      -7.5      2.384      3.180
REMARK  Name = *****
REMARK                            x       y       z     vdW  Elec       q    Type
REMARK                         _______ _______ _______ _____ _____    ______ ____
ROOT
ATOM      1  C   LIG    1       25.529 -28.688   7.751  0.00  0.00    +0.073 A 
ATOM      2  C   LIG    1       24.860 -29.729   7.053  0.00  0.00    +0.058 A 
ATOM      3 CL   LIG    1       24.471 -29.592   5.361  0.00  0.00    -0.082 Cl
ATOM      4  C   LIG    1       24.533 -30.949   7.699  0.00  0.00    -0.022 A 
ATOM      5  C   LIG    1       23.692 -32.019   7.010  0.00  0.00    +0.056 C 
ATOM      6  C   LIG    1       23.479 -33.293   7.842  0.00  0.00    +0.113 C 
ATOM      7  N   LIG    1       23.342 -32.981   9.259  0.00  0.00    -0.293 N 
ATOM      8  C   LIG    1       24.550 -32.387   9.808  0.00  0.00    +0.143 C 
ATOM      9  C   LIG    1       22.054 -32.742   9.752  0.00  0.00    +0.247 C 
ATOM     10  O   LIG    1       21.061 -32.788   9.025  0.00  0.00    -0.270 OA
ATOM     11  C   LIG    1       24.911 -31.135   9.043  0.00  0.00    -0.024 A 
ATOM     12  C   LIG    1       25.644 -30.148   9.699  0.00  0.00    +0.026 A 
ATOM     13  C   LIG    1       25.934 -28.936   9.074  0.00  0.00    +0.055 A 
ATOM     14 CL   LIG    1       26.787 -27.817  10.079  0.00  0.00    -0.083 Cl
ENDROOT
BRANCH   9  15
ATOM     15  C   LIG    1       21.828 -32.445  11.196  0.00  0.00    +0.040 A 
ATOM     16  C   LIG    1       21.708 -31.128  11.659  0.00  0.00    +0.059 A 
ATOM     17  C   LIG    1       21.537 -30.960  13.031  0.00  0.00    +0.136 A 
ATOM     18  C   LIG    1       21.539 -31.996  13.957  0.00  0.00    +0.020 A 
ATOM     19  C   LIG    1       21.369 -31.379  15.224  0.00  0.00    +0.049 A 
ATOM     20  C   LIG    1       21.250 -30.028  14.986  0.00  0.00    +0.196 A 
ATOM     21  C   LIG    1       21.712 -33.310  13.490  0.00  0.00    +0.012 A 
ATOM     22  O   LIG    1       21.356 -29.765  13.657  0.00  0.00    -0.463 OA
ATOM     23  C   LIG    1       21.849 -33.517  12.107  0.00  0.00    +0.014 A 
ENDBRANCH   9  15
BRANCH   1  26
ATOM     24  N   LIG    1       24.754 -26.422   7.182  0.00  0.00    -0.298 N 
ATOM     25  H   LIG    1       23.828 -26.731   7.455  0.00  0.00    +0.150 HD
ATOM     26  C   LIG    1       25.765 -27.363   7.089  0.00  0.00    +0.248 C 
ATOM     27  O   LIG    1       26.813 -27.092   6.522  0.00  0.00    -0.270 OA
BRANCH  24  28
ATOM     28  CA  LIG    1       24.845 -25.102   6.522  0.00  0.00    +0.186 C 
BRANCH  28  29
ATOM     29  C   LIG    1       24.600 -25.287   5.014  0.00  0.00    +0.326 C 
ATOM     30  O   LIG    1       24.224 -26.330   4.500  0.00  0.00    -0.249 OA
BRANCH  29  31
ATOM     31  OXT LIG    1       24.767 -24.151   4.289  0.00  0.00    -0.479 OA
ATOM     32  HXT LIG    1       24.650 -23.381   4.882  0.00  0.00    +0.295 HD
ENDBRANCH  29  31
ENDBRANCH  28  29
BRANCH  28  33
ATOM     33  C   LIG    1       26.243 -24.467   6.698  0.00  0.00    +0.069 C 
BRANCH  33  36
ATOM     34  C   LIG    1       27.467 -20.981   7.688  0.00  0.00    +0.088 A 
ATOM     35  C   LIG    1       27.462 -22.300   7.222  0.00  0.00    +0.030 A 
ATOM     36  C   LIG    1       26.262 -23.043   7.214  0.00  0.00    -0.043 A 
ATOM     37  C   LIG    1       25.095 -22.424   7.672  0.00  0.00    +0.004 A 
ATOM     38  C   LIG    1       25.110 -21.105   8.128  0.00  0.00    +0.002 A 
ATOM     39  C   LIG    1       26.297 -20.377   8.149  0.00  0.00    +0.027 A 
BRANCH  34  41
ATOM     40  C   LIG    1       29.179 -19.275   6.257  0.00  0.00    +0.200 C 
ATOM     41  S   LIG    1       29.010 -20.095   7.819  0.00  0.00    -0.006 S 
ATOM     42  O   LIG    1       28.843 -19.081   8.843  0.00  0.00    -0.170 OA
ATOM     43  O   LIG    1       30.065 -21.087   7.920  0.00  0.00    -0.170 OA
ENDBRANCH  34  41
ENDBRANCH  33  36
ENDBRANCH  28  33
ENDBRANCH  24  28
ENDBRANCH   1  26
TORSDOF 8
ENDMDL
MODEL 6
REMARK VINA RESULT:      -7.4      4.092      6.403
REMARK  Name = *****
REMARK                            x       y       z     vdW  Elec       q    Type
REMARK                         _______ _______ _______ _____ _____    ______ ____
ROOT
ATOM      1  C   LIG    1       22.924 -31.414  10.668  0.00  0.00    +0.073 A 
ATOM      2  C   LIG    1       21.822 -30.686  11.190  0.00  0.00    +0.058 A 
ATOM      3 CL   LIG    1       20.275 -30.671  10.389  0.00  0.00    -0.082 Cl
ATOM      4  C   LIG    1       21.924 -29.986  12.420  0.00  0.00    -0.022 A 
ATOM      5  C   LIG    1       20.801 -29.085  12.924  0.00  0.00    +0.056 C 
ATOM      6  C   LIG    1       21.067 -28.447  14.296  0.00  0.00    +0.113 C 
ATOM      7  N   LIG    1       22.475 -28.108  14.457  0.00  0.00    -0.293 N 
ATOM      8  C   LIG    1       23.328 -29.285  14.434  0.00  0.00    +0.143 C 
ATOM      9  C   LIG    1       22.886 -26.831  14.060  0.00  0.00    +0.247 C 
ATOM     10  O   LIG    1       22.098 -26.011  13.588  0.00  0.00    -0.270 OA
ATOM     11  C   LIG    1       23.131 -30.048  13.144  0.00  0.00    -0.024 A 
ATOM     12  C   LIG    1       24.181 -30.834  12.673  0.00  0.00    +0.026 A 
ATOM     13  C   LIG    1       24.091 -31.492  11.449  0.00  0.00    +0.055 A 
ATOM     14 CL   LIG    1       25.525 -32.354  11.010  0.00  0.00    -0.083 Cl
ENDROOT
BRANCH   9  15
ATOM     15  C   LIG    1       24.305 -26.398  14.219  0.00  0.00    +0.040 A 
ATOM     16  C   LIG    1       24.631 -25.181  14.832  0.00  0.00    +0.059 A 
ATOM     17  C   LIG    1       25.984 -24.855  14.896  0.00  0.00    +0.136 A 
ATOM     18  C   LIG    1       27.004 -25.621  14.346  0.00  0.00    +0.020 A 
ATOM     19  C   LIG    1       28.204 -24.909  14.612  0.00  0.00    +0.049 A 
ATOM     20  C   LIG    1       27.841 -23.786  15.321  0.00  0.00    +0.196 A 
ATOM     21  C   LIG    1       26.665 -26.814  13.688  0.00  0.00    +0.012 A 
ATOM     22  O   LIG    1       26.493 -23.743  15.493  0.00  0.00    -0.463 OA
ATOM     23  C   LIG    1       25.312 -27.191  13.639  0.00  0.00    +0.014 A 
ENDBRANCH   9  15
BRANCH   1  26
ATOM     24  N   LIG    1       23.668 -31.553   8.326  0.00  0.00    -0.298 N 
ATOM     25  H   LIG    1       24.099 -30.647   8.468  0.00  0.00    +0.150 HD
ATOM     26  C   LIG    1       22.837 -32.052   9.313  0.00  0.00    +0.248 C 
ATOM     27  O   LIG    1       22.101 -33.000   9.083  0.00  0.00    -0.270 OA
BRANCH  24  28
ATOM     28  CA  LIG    1       23.632 -32.060   6.937  0.00  0.00    +0.186 C 
BRANCH  28  29
ATOM     29  C   LIG    1       24.639 -33.217   6.809  0.00  0.00    +0.326 C 
ATOM     30  O   LIG    1       25.192 -33.538   5.766  0.00  0.00    -0.249 OA
BRANCH  29  31
ATOM     31  OXT LIG    1       24.930 -33.823   7.988  0.00  0.00    -0.479 OA
ATOM     32  HXT LIG    1       25.313 -34.704   7.800  0.00  0.00    +0.295 HD
ENDBRANCH  29  31
ENDBRANCH  28  29
BRANCH  28  33
ATOM     33  C   LIG    1       24.034 -30.970   5.919  0.00  0.00    +0.069 C 
BRANCH  33  36
ATOM     34  C   LIG    1       25.003 -27.318   6.515  0.00  0.00    +0.088 A 
ATOM     35  C   LIG    1       24.404 -28.457   5.965  0.00  0.00    +0.030 A 
ATOM     36  C   LIG    1       24.688 -29.732   6.498  0.00  0.00    -0.043 A 
ATOM     37  C   LIG    1       25.566 -29.819   7.583  0.00  0.00    +0.004 A 
ATOM     38  C   LIG    1       26.152 -28.676   8.128  0.00  0.00    +0.002 A 
ATOM     39  C   LIG    1       25.883 -27.418   7.593  0.00  0.00    +0.027 A 
BRANCH  34  41
ATOM     40  C   LIG    1       25.889 -24.654   6.575  0.00  0.00    +0.200 C 
ATOM     41  S   LIG    1       24.744 -25.726   5.752  0.00  0.00    -0.006 S 
ATOM     42  O   LIG    1       25.151 -25.838   4.364  0.00  0.00    -0.170 OA
ATOM     43  O   LIG    1       23.401 -25.299   6.099  0.00  0.00    -0.170 OA
ENDBRANCH  34  41
ENDBRANCH  33  36
ENDBRANCH  28  33
ENDBRANCH  24  28
ENDBRANCH   1  26
TORSDOF 8
ENDMDL
MODEL 7
REMARK VINA RESULT:      -7.1      4.636     10.951
REMARK  Name = *****
REMARK                            x       y       z     vdW  Elec       q    Type
REMARK                         _______ _______ _______ _____ _____    ______ ____
ROOT
ATOM      1  C   LIG    1       25.635 -26.082   6.072  0.00  0.00    +0.073 A 
ATOM      2  C   LIG    1       25.110 -25.057   5.242  0.00  0.00    +0.058 A 
ATOM      3 CL   LIG    1       24.398 -25.409   3.692  0.00  0.00    -0.082 Cl
ATOM      4  C   LIG    1       25.094 -23.704   5.673  0.00  0.00    -0.022 A 
ATOM      5  C   LIG    1       24.666 -22.574   4.742  0.00  0.00    +0.056 C 
ATOM      6  C   LIG    1       24.665 -21.182   5.394  0.00  0.00    +0.113 C 
ATOM      7  N   LIG    1       25.761 -21.043   6.344  0.00  0.00    -0.293 N 
ATOM      8  C   LIG    1       25.639 -21.965   7.460  0.00  0.00    +0.143 C 
ATOM      9  C   LIG    1       26.978 -20.545   5.865  0.00  0.00    +0.247 C 
ATOM     10  O   LIG    1       27.133 -20.232   4.684  0.00  0.00    -0.270 OA
ATOM     11  C   LIG    1       25.578 -23.389   6.958  0.00  0.00    -0.024 A 
ATOM     12  C   LIG    1       26.011 -24.409   7.803  0.00  0.00    +0.026 A 
ATOM     13  C   LIG    1       26.059 -25.731   7.366  0.00  0.00    +0.055 A 
ATOM     14 CL   LIG    1       26.694 -26.833   8.538  0.00  0.00    -0.083 Cl
ENDROOT
BRANCH   9  15
ATOM     15  C   LIG    1       28.139 -20.346   6.780  0.00  0.00    +0.040 A 
ATOM     16  C   LIG    1       28.873 -19.152   6.777  0.00  0.00    +0.059 A 
ATOM     17  C   LIG    1       29.961 -19.084   7.645  0.00  0.00    +0.136 A 
ATOM     18  C   LIG    1       30.389 -20.130   8.453  0.00  0.00    +0.020 A 
ATOM     19  C   LIG    1       31.535 -19.643   9.136  0.00  0.00    +0.049 A 
ATOM     20  C   LIG    1       31.708 -18.340   8.725  0.00  0.00    +0.196 A 
ATOM     21  C   LIG    1       29.680 -21.342   8.411  0.00  0.00    +0.012 A 
ATOM     22  O   LIG    1       30.759 -17.995   7.815  0.00  0.00    -0.463 OA
ATOM     23  C   LIG    1       28.554 -21.431   7.574  0.00  0.00    +0.014 A 
ENDBRANCH   9  15
BRANCH   1  26
ATOM     24  N   LIG    1       25.187 -28.489   6.329  0.00  0.00    -0.298 N 
ATOM     25  H   LIG    1       24.957 -28.286   7.295  0.00  0.00    +0.150 HD
ATOM     26  C   LIG    1       25.750 -27.487   5.558  0.00  0.00    +0.248 C 
ATOM     27  O   LIG    1       26.278 -27.750   4.488  0.00  0.00    -0.270 OA
BRANCH  24  28
ATOM     28  CA  LIG    1       25.286 -29.917   5.957  0.00  0.00    +0.186 C 
BRANCH  28  29
ATOM     29  C   LIG    1       23.868 -30.464   5.719  0.00  0.00    +0.326 C 
ATOM     30  O   LIG    1       23.542 -31.631   5.880  0.00  0.00    -0.249 OA
BRANCH  29  31
ATOM     31  OXT LIG    1       22.963 -29.510   5.378  0.00  0.00    -0.479 OA
ATOM     32  HXT LIG    1       23.028 -28.774   6.021  0.00  0.00    +0.295 HD
ENDBRANCH  29  31
ENDBRANCH  28  29
BRANCH  28  33
ATOM     33  C   LIG    1       25.933 -30.758   7.079  0.00  0.00    +0.069 C 
BRANCH  33  36
ATOM     34  C   LIG    1       26.188 -29.554  10.701  0.00  0.00    +0.088 A 
ATOM     35  C   LIG    1       26.545 -29.922   9.399  0.00  0.00    +0.030 A 
ATOM     36  C   LIG    1       25.559 -30.371   8.496  0.00  0.00    -0.043 A 
ATOM     37  C   LIG    1       24.232 -30.428   8.934  0.00  0.00    +0.004 A 
ATOM     38  C   LIG    1       23.886 -30.052  10.232  0.00  0.00    +0.002 A 
ATOM     39  C   LIG    1       24.861 -29.622  11.129  0.00  0.00    +0.027 A 
BRANCH  34  41
ATOM     40  C   LIG    1       26.984 -29.952  13.365  0.00  0.00    +0.200 C 
ATOM     41  S   LIG    1       27.456 -29.115  11.876  0.00  0.00    -0.006 S 
ATOM     42  O   LIG    1       28.701 -29.696  11.409  0.00  0.00    -0.170 OA
ATOM     43  O   LIG    1       27.346 -27.687  12.110  0.00  0.00    -0.170 OA
ENDBRANCH  34  41
ENDBRANCH  33  36
ENDBRANCH  28  33
ENDBRANCH  24  28
ENDBRANCH   1  26
TORSDOF 8
ENDMDL
MODEL 8
REMARK VINA RESULT:      -7.0      2.483      3.609
REMARK  Name = *****
REMARK                            x       y       z     vdW  Elec       q    Type
REMARK                         _______ _______ _______ _____ _____    ______ ____
ROOT
ATOM      1  C   LIG    1       25.304 -28.903   7.412  0.00  0.00    +0.073 A 
ATOM      2  C   LIG    1       24.612 -29.979   6.793  0.00  0.00    +0.058 A 
ATOM      3 CL   LIG    1       24.081 -29.893   5.137  0.00  0.00    -0.082 Cl
ATOM      4  C   LIG    1       24.378 -31.193   7.489  0.00  0.00    -0.022 A 
ATOM      5  C   LIG    1       23.517 -32.303   6.894  0.00  0.00    +0.056 C 
ATOM      6  C   LIG    1       23.413 -33.563   7.767  0.00  0.00    +0.113 C 
ATOM      7  N   LIG    1       23.384 -33.223   9.184  0.00  0.00    -0.293 N 
ATOM      8  C   LIG    1       24.613 -32.581   9.619  0.00  0.00    +0.143 C 
ATOM      9  C   LIG    1       22.134 -33.010   9.777  0.00  0.00    +0.247 C 
ATOM     10  O   LIG    1       21.086 -33.103   9.137  0.00  0.00    -0.270 OA
ATOM     11  C   LIG    1       24.871 -31.337   8.801  0.00  0.00    -0.024 A 
ATOM     12  C   LIG    1       25.625 -30.313   9.372  0.00  0.00    +0.026 A 
ATOM     13  C   LIG    1       25.824 -29.109   8.701  0.00  0.00    +0.055 A 
ATOM     14 CL   LIG    1       26.722 -27.942   9.609  0.00  0.00    -0.083 Cl
ENDROOT
BRANCH   9  15
ATOM     15  C   LIG    1       22.019 -32.687  11.228  0.00  0.00    +0.040 A 
ATOM     16  C   LIG    1       21.720 -31.389  11.664  0.00  0.00    +0.059 A 
ATOM     17  C   LIG    1       21.673 -31.187  13.042  0.00  0.00    +0.136 A 
ATOM     18  C   LIG    1       21.959 -32.161  13.990  0.00  0.00    +0.020 A 
ATOM     19  C   LIG    1       21.823 -31.521  15.251  0.00  0.00    +0.049 A 
ATOM     20  C   LIG    1       21.442 -30.224  14.990  0.00  0.00    +0.196 A 
ATOM     21  C   LIG    1       22.308 -33.447  13.545  0.00  0.00    +0.012 A 
ATOM     22  O   LIG    1       21.355 -30.012  13.650  0.00  0.00    -0.463 OA
ATOM     23  C   LIG    1       22.328 -33.694  12.161  0.00  0.00    +0.014 A 
ENDBRANCH   9  15
BRANCH   1  26
ATOM     24  N   LIG    1       24.459 -26.641   6.933  0.00  0.00    -0.298 N 
ATOM     25  H   LIG    1       23.582 -26.943   7.343  0.00  0.00    +0.150 HD
ATOM     26  C   LIG    1       25.443 -27.587   6.705  0.00  0.00    +0.248 C 
ATOM     27  O   LIG    1       26.398 -27.327   5.988  0.00  0.00    -0.270 OA
BRANCH  24  28
ATOM     28  CA  LIG    1       24.454 -25.330   6.250  0.00  0.00    +0.186 C 
BRANCH  28  29
ATOM     29  C   LIG    1       25.686 -24.530   6.711  0.00  0.00    +0.326 C 
ATOM     30  O   LIG    1       25.871 -24.150   7.858  0.00  0.00    -0.249 OA
BRANCH  29  31
ATOM     31  OXT LIG    1       26.610 -24.337   5.736  0.00  0.00    -0.479 OA
ATOM     32  HXT LIG    1       26.204 -24.557   4.872  0.00  0.00    +0.295 HD
ENDBRANCH  29  31
ENDBRANCH  28  29
BRANCH  28  33
ATOM     33  C   LIG    1       23.197 -24.504   6.602  0.00  0.00    +0.069 C 
BRANCH  33  36
ATOM     34  C   LIG    1       23.891 -20.969   5.316  0.00  0.00    +0.088 A 
ATOM     35  C   LIG    1       23.757 -22.361   5.357  0.00  0.00    +0.030 A 
ATOM     36  C   LIG    1       23.359 -22.998   6.551  0.00  0.00    -0.043 A 
ATOM     37  C   LIG    1       23.100 -22.206   7.674  0.00  0.00    +0.004 A 
ATOM     38  C   LIG    1       23.230 -20.817   7.620  0.00  0.00    +0.002 A 
ATOM     39  C   LIG    1       23.636 -20.189   6.445  0.00  0.00    +0.027 A 
BRANCH  34  41
ATOM     40  C   LIG    1       23.561 -18.702   3.692  0.00  0.00    +0.200 C 
ATOM     41  S   LIG    1       24.521 -20.183   3.844  0.00  0.00    -0.006 S 
ATOM     42  O   LIG    1       25.897 -19.802   4.109  0.00  0.00    -0.170 OA
ATOM     43  O   LIG    1       24.193 -21.047   2.725  0.00  0.00    -0.170 OA
ENDBRANCH  34  41
ENDBRANCH  33  36
ENDBRANCH  28  33
ENDBRANCH  24  28
ENDBRANCH   1  26
TORSDOF 8
ENDMDL
MODEL 9
REMARK VINA RESULT:      -6.8      3.755     11.149
REMARK  Name = *****
REMARK                            x       y       z     vdW  Elec       q    Type
REMARK                         _______ _______ _______ _____ _____    ______ ____
ROOT
ATOM      1  C   LIG    1       25.585 -25.993   6.112  0.00  0.00    +0.073 A 
ATOM      2  C   LIG    1       25.067 -24.961   5.285  0.00  0.00    +0.058 A 
ATOM      3 CL   LIG    1       24.338 -25.306   3.741  0.00  0.00    -0.082 Cl
ATOM      4  C   LIG    1       25.074 -23.608   5.714  0.00  0.00    -0.022 A 
ATOM      5  C   LIG    1       24.654 -22.473   4.785  0.00  0.00    +0.056 C 
ATOM      6  C   LIG    1       24.677 -21.080   5.435  0.00  0.00    +0.113 C 
ATOM      7  N   LIG    1       25.783 -20.955   6.375  0.00  0.00    -0.293 N 
ATOM      8  C   LIG    1       25.658 -21.875   7.494  0.00  0.00    +0.143 C 
ATOM      9  C   LIG    1       27.003 -20.475   5.885  0.00  0.00    +0.247 C 
ATOM     10  O   LIG    1       27.153 -20.166   4.703  0.00  0.00    -0.270 OA
ATOM     11  C   LIG    1       25.572 -23.298   6.994  0.00  0.00    -0.024 A 
ATOM     12  C   LIG    1       25.999 -24.322   7.837  0.00  0.00    +0.026 A 
ATOM     13  C   LIG    1       26.024 -25.646   7.402  0.00  0.00    +0.055 A 
ATOM     14 CL   LIG    1       26.654 -26.755   8.570  0.00  0.00    -0.083 Cl
ENDROOT
BRANCH   9  15
ATOM     15  C   LIG    1       28.174 -20.291   6.791  0.00  0.00    +0.040 A 
ATOM     16  C   LIG    1       28.876 -19.079   6.837  0.00  0.00    +0.059 A 
ATOM     17  C   LIG    1       29.977 -19.025   7.689  0.00  0.00    +0.136 A 
ATOM     18  C   LIG    1       30.447 -20.099   8.435  0.00  0.00    +0.020 A 
ATOM     19  C   LIG    1       31.591 -19.615   9.125  0.00  0.00    +0.049 A 
ATOM     20  C   LIG    1       31.722 -18.289   8.778  0.00  0.00    +0.196 A 
ATOM     21  C   LIG    1       29.769 -21.326   8.343  0.00  0.00    +0.012 A 
ATOM     22  O   LIG    1       30.749 -17.925   7.902  0.00  0.00    -0.463 OA
ATOM     23  C   LIG    1       28.632 -21.403   7.522  0.00  0.00    +0.014 A 
ENDBRANCH   9  15
BRANCH   1  26
ATOM     24  N   LIG    1       25.231 -28.407   6.437  0.00  0.00    -0.298 N 
ATOM     25  H   LIG    1       25.107 -28.200   7.421  0.00  0.00    +0.150 HD
ATOM     26  C   LIG    1       25.677 -27.400   5.599  0.00  0.00    +0.248 C 
ATOM     27  O   LIG    1       26.084 -27.662   4.477  0.00  0.00    -0.270 OA
BRANCH  24  28
ATOM     28  CA  LIG    1       25.323 -29.836   6.067  0.00  0.00    +0.186 C 
BRANCH  28  29
ATOM     29  C   LIG    1       23.902 -30.373   5.818  0.00  0.00    +0.326 C 
ATOM     30  O   LIG    1       23.540 -31.511   6.079  0.00  0.00    -0.249 OA
BRANCH  29  31
ATOM     31  OXT LIG    1       23.039 -29.439   5.342  0.00  0.00    -0.479 OA
ATOM     32  HXT LIG    1       22.296 -29.898   4.898  0.00  0.00    +0.295 HD
ENDBRANCH  29  31
ENDBRANCH  28  29
BRANCH  28  33
ATOM     33  C   LIG    1       25.955 -30.681   7.196  0.00  0.00    +0.069 C 
BRANCH  33  36
ATOM     34  C   LIG    1       23.999 -30.162  10.442  0.00  0.00    +0.088 A 
ATOM     35  C   LIG    1       24.315 -30.535   9.131  0.00  0.00    +0.030 A 
ATOM     36  C   LIG    1       25.598 -30.268   8.610  0.00  0.00    -0.043 A 
ATOM     37  C   LIG    1       26.533 -29.635   9.435  0.00  0.00    +0.004 A 
ATOM     38  C   LIG    1       26.210 -29.273  10.743  0.00  0.00    +0.002 A 
ATOM     39  C   LIG    1       24.939 -29.524  11.254  0.00  0.00    +0.027 A 
BRANCH  34  41
ATOM     40  C   LIG    1       22.443 -31.793  12.116  0.00  0.00    +0.200 C 
ATOM     41  S   LIG    1       22.337 -30.383  11.049  0.00  0.00    -0.006 S 
ATOM     42  O   LIG    1       22.014 -29.226  11.865  0.00  0.00    -0.170 OA
ATOM     43  O   LIG    1       21.511 -30.743   9.912  0.00  0.00    -0.170 OA
ENDBRANCH  34  41
ENDBRANCH  33  36
ENDBRANCH  28  33
ENDBRANCH  24  28
ENDBRANCH   1  26
TORSDOF 8
ENDMDL
