MODEL 1
REMARK VINA RESULT:      -1.7      0.000      0.000
REMARK  Name = *****
REMARK                            x       y       z     vdW  Elec       q    Type
REMARK                         _______ _______ _______ _____ _____    ______ ____
ROOT
ATOM      1  C   LIG    1       25.948 -15.045   3.166  0.00  0.00    +0.028 C 
ATOM      2  C   LIG    1       24.854 -15.708   4.061  0.00  0.00    +0.048 C 
ATOM      3  C   LIG    1       23.806 -14.661   4.477  0.00  0.00    +0.088 C 
ATOM      4  N   LIG    1       23.161 -14.047   3.315  0.00  0.00    -0.316 NA
ATOM      5  H   LIG    1       22.484 -13.352   3.633  0.00  0.00    +0.122 HD
ATOM      6  C   LIG    1       24.135 -13.398   2.436  0.00  0.00    +0.081 C 
ATOM      7  C   LIG    1       25.221 -14.372   1.974  0.00  0.00    +0.023 C 
ENDROOT
BRANCH   1  12
ATOM      8  F   LIG    1       29.475 -11.515   5.949  0.00  0.00    -0.205 F 
ATOM      9  C   LIG    1       28.653 -12.347   5.297  0.00  0.00    +0.123 A 
ATOM     10  C   LIG    1       28.766 -12.492   3.924  0.00  0.00    +0.038 A 
ATOM     11  C   LIG    1       27.901 -13.357   3.244  0.00  0.00    +0.007 A 
ATOM     12  C   LIG    1       26.924 -14.114   3.923  0.00  0.00    -0.044 A 
ATOM     13  C   LIG    1       26.821 -13.912   5.314  0.00  0.00    +0.007 A 
ATOM     14  C   LIG    1       27.685 -13.043   5.997  0.00  0.00    +0.038 A 
ENDBRANCH   1  12
BRANCH   2  15
ATOM     15  C   LIG    1       24.150 -16.910   3.393  0.00  0.00    +0.234 C 
BRANCH  15  16
ATOM     16  O   LIG    1       25.119 -17.885   2.985  0.00  0.00    -0.491 OA
BRANCH  16  17
ATOM     17  C   LIG    1       25.507 -18.743   3.982  0.00  0.00    +0.124 A 
ATOM     18  C   LIG    1       26.789 -18.775   4.539  0.00  0.00    +0.095 A 
ATOM     19  C   LIG    1       27.063 -19.763   5.462  0.00  0.00    +0.170 A 
ATOM     20  O   LIG    1       28.269 -19.981   6.052  0.00  0.00    -0.453 OA
ATOM     21  C   LIG    1       27.991 -21.191   6.787  0.00  0.00    +0.466 C 
ATOM     22  O   LIG    1       26.600 -21.572   6.755  0.00  0.00    -0.453 OA
ATOM     23  C   LIG    1       26.109 -20.665   5.866  0.00  0.00    +0.167 A 
ATOM     24  C   LIG    1       24.820 -20.617   5.388  0.00  0.00    +0.053 A 
ATOM     25  C   LIG    1       24.516 -19.636   4.435  0.00  0.00    +0.049 A 
ENDBRANCH  16  17
ENDBRANCH  15  16
ENDBRANCH   2  15
TORSDOF 4
ENDMDL
MODEL 2
REMARK VINA RESULT:      -1.7      3.343      6.541
REMARK  Name = *****
REMARK                            x       y       z     vdW  Elec       q    Type
REMARK                         _______ _______ _______ _____ _____    ______ ____
ROOT
ATOM      1  C   LIG    1       24.094 -19.557   5.838  0.00  0.00    +0.028 C 
ATOM      2  C   LIG    1       23.807 -18.799   4.504  0.00  0.00    +0.048 C 
ATOM      3  C   LIG    1       23.752 -19.795   3.332  0.00  0.00    +0.088 C 
ATOM      4  N   LIG    1       22.719 -20.812   3.532  0.00  0.00    -0.316 NA
ATOM      5  H   LIG    1       22.723 -21.457   2.740  0.00  0.00    +0.122 HD
ATOM      6  C   LIG    1       22.934 -21.567   4.767  0.00  0.00    +0.081 C 
ATOM      7  C   LIG    1       23.005 -20.650   5.989  0.00  0.00    +0.023 C 
ENDROOT
BRANCH   1  12
ATOM      8  F   LIG    1       29.462 -21.407   6.474  0.00  0.00    -0.205 F 
ATOM      9  C   LIG    1       28.203 -20.977   6.319  0.00  0.00    +0.123 A 
ATOM     10  C   LIG    1       27.930 -19.951   5.431  0.00  0.00    +0.038 A 
ATOM     11  C   LIG    1       26.614 -19.499   5.276  0.00  0.00    +0.007 A 
ATOM     12  C   LIG    1       25.542 -20.079   5.986  0.00  0.00    -0.044 A 
ATOM     13  C   LIG    1       25.869 -21.098   6.904  0.00  0.00    +0.007 A 
ATOM     14  C   LIG    1       27.188 -21.550   7.062  0.00  0.00    +0.038 A 
ENDBRANCH   1  12
BRANCH   2  15
ATOM     15  C   LIG    1       22.511 -17.960   4.532  0.00  0.00    +0.234 C 
BRANCH  15  16
ATOM     16  O   LIG    1       22.583 -16.908   3.559  0.00  0.00    -0.491 OA
BRANCH  16  17
ATOM     17  C   LIG    1       23.603 -16.016   3.771  0.00  0.00    +0.124 A 
ATOM     18  C   LIG    1       24.927 -16.225   3.373  0.00  0.00    +0.095 A 
ATOM     19  C   LIG    1       25.865 -15.284   3.747  0.00  0.00    +0.170 A 
ATOM     20  O   LIG    1       27.201 -15.360   3.503  0.00  0.00    -0.453 OA
ATOM     21  C   LIG    1       27.669 -14.203   4.226  0.00  0.00    +0.466 C 
ATOM     22  O   LIG    1       26.602 -13.379   4.739  0.00  0.00    -0.453 OA
ATOM     23  C   LIG    1       25.521 -14.152   4.445  0.00  0.00    +0.167 A 
ATOM     24  C   LIG    1       24.216 -13.885   4.791  0.00  0.00    +0.053 A 
ATOM     25  C   LIG    1       23.244 -14.831   4.442  0.00  0.00    +0.049 A 
ENDBRANCH  16  17
ENDBRANCH  15  16
ENDBRANCH   2  15
TORSDOF 4
ENDMDL
MODEL 3
REMARK VINA RESULT:      -1.1      2.627      4.049
REMARK  Name = *****
REMARK                            x       y       z     vdW  Elec       q    Type
REMARK                         _______ _______ _______ _____ _____    ______ ____
ROOT
ATOM      1  C   LIG    1       23.780 -18.411   3.370  0.00  0.00    +0.028 C 
ATOM      2  C   LIG    1       23.698 -19.374   4.596  0.00  0.00    +0.048 C 
ATOM      3  C   LIG    1       22.377 -19.153   5.354  0.00  0.00    +0.088 C 
ATOM      4  N   LIG    1       21.214 -19.379   4.495  0.00  0.00    -0.316 NA
ATOM      5  H   LIG    1       20.361 -19.211   5.031  0.00  0.00    +0.122 HD
ATOM      6  C   LIG    1       21.226 -18.499   3.325  0.00  0.00    +0.081 C 
ATOM      7  C   LIG    1       22.512 -18.652   2.512  0.00  0.00    +0.023 C 
ENDROOT
BRANCH   1  12
ATOM      8  F   LIG    1       24.665 -12.900   4.588  0.00  0.00    -0.205 F 
ATOM      9  C   LIG    1       24.460 -14.193   4.309  0.00  0.00    +0.123 A 
ATOM     10  C   LIG    1       25.460 -14.932   3.698  0.00  0.00    +0.038 A 
ATOM     11  C   LIG    1       25.241 -16.282   3.400  0.00  0.00    +0.007 A 
ATOM     12  C   LIG    1       24.032 -16.929   3.729  0.00  0.00    -0.044 A 
ATOM     13  C   LIG    1       23.030 -16.132   4.320  0.00  0.00    +0.007 A 
ATOM     14  C   LIG    1       23.246 -14.778   4.616  0.00  0.00    +0.038 A 
ENDBRANCH   1  12
BRANCH   2  15
ATOM     15  C   LIG    1       23.839 -20.866   4.226  0.00  0.00    +0.234 C 
BRANCH  15  16
ATOM     16  O   LIG    1       24.569 -21.561   5.247  0.00  0.00    -0.491 OA
BRANCH  16  17
ATOM     17  C   LIG    1       25.753 -20.964   5.597  0.00  0.00    +0.124 A 
ATOM     18  C   LIG    1       26.279 -19.831   4.968  0.00  0.00    +0.095 A 
ATOM     19  C   LIG    1       27.531 -19.403   5.360  0.00  0.00    +0.170 A 
ATOM     20  O   LIG    1       28.218 -18.364   4.814  0.00  0.00    -0.453 OA
ATOM     21  C   LIG    1       29.475 -18.480   5.512  0.00  0.00    +0.466 C 
ATOM     22  O   LIG    1       29.454 -19.466   6.565  0.00  0.00    -0.453 OA
ATOM     23  C   LIG    1       28.231 -20.028   6.363  0.00  0.00    +0.167 A 
ATOM     24  C   LIG    1       27.711 -21.102   7.047  0.00  0.00    +0.053 A 
ATOM     25  C   LIG    1       26.450 -21.572   6.659  0.00  0.00    +0.049 A 
ENDBRANCH  16  17
ENDBRANCH  15  16
ENDBRANCH   2  15
TORSDOF 4
ENDMDL
MODEL 4
REMARK VINA RESULT:      -0.8      2.006      2.429
REMARK  Name = *****
REMARK                            x       y       z     vdW  Elec       q    Type
REMARK                         _______ _______ _______ _____ _____    ______ ____
ROOT
ATOM      1  C   LIG    1       25.243 -14.349   3.313  0.00  0.00    +0.028 C 
ATOM      2  C   LIG    1       23.850 -14.265   4.012  0.00  0.00    +0.048 C 
ATOM      3  C   LIG    1       23.313 -12.824   3.947  0.00  0.00    +0.088 C 
ATOM      4  N   LIG    1       23.180 -12.356   2.567  0.00  0.00    -0.316 NA
ATOM      5  H   LIG    1       22.834 -11.395   2.568  0.00  0.00    +0.122 HD
ATOM      6  C   LIG    1       24.458 -12.402   1.855  0.00  0.00    +0.081 C 
ATOM      7  C   LIG    1       25.069 -13.805   1.873  0.00  0.00    +0.023 C 
ENDROOT
BRANCH   1  12
ATOM      8  F   LIG    1       29.474 -11.827   6.209  0.00  0.00    -0.205 F 
ATOM      9  C   LIG    1       28.486 -12.424   5.531  0.00  0.00    +0.123 A 
ATOM     10  C   LIG    1       28.616 -12.638   4.169  0.00  0.00    +0.038 A 
ATOM     11  C   LIG    1       27.579 -13.255   3.461  0.00  0.00    +0.007 A 
ATOM     12  C   LIG    1       26.402 -13.696   4.102  0.00  0.00    -0.044 A 
ATOM     13  C   LIG    1       26.297 -13.429   5.483  0.00  0.00    +0.007 A 
ATOM     14  C   LIG    1       27.334 -12.807   6.193  0.00  0.00    +0.038 A 
ENDBRANCH   1  12
BRANCH   2  15
ATOM     15  C   LIG    1       22.802 -15.236   3.427  0.00  0.00    +0.234 C 
BRANCH  15  16
ATOM     16  O   LIG    1       22.285 -16.085   4.462  0.00  0.00    -0.491 OA
BRANCH  16  17
ATOM     17  C   LIG    1       22.738 -17.379   4.405  0.00  0.00    +0.124 A 
ATOM     18  C   LIG    1       23.998 -17.751   3.927  0.00  0.00    +0.095 A 
ATOM     19  C   LIG    1       24.275 -19.100   3.833  0.00  0.00    +0.170 A 
ATOM     20  O   LIG    1       25.419 -19.639   3.332  0.00  0.00    -0.453 OA
ATOM     21  C   LIG    1       25.086 -21.042   3.360  0.00  0.00    +0.466 C 
ATOM     22  O   LIG    1       23.836 -21.320   4.023  0.00  0.00    -0.453 OA
ATOM     23  C   LIG    1       23.374 -20.057   4.234  0.00  0.00    +0.167 A 
ATOM     24  C   LIG    1       22.154 -19.720   4.773  0.00  0.00    +0.053 A 
ATOM     25  C   LIG    1       21.836 -18.359   4.863  0.00  0.00    +0.049 A 
ENDBRANCH  16  17
ENDBRANCH  15  16
ENDBRANCH   2  15
TORSDOF 4
ENDMDL
MODEL 5
REMARK VINA RESULT:      -0.5      1.832      2.459
REMARK  Name = *****
REMARK                            x       y       z     vdW  Elec       q    Type
REMARK                         _______ _______ _______ _____ _____    ______ ____
ROOT
ATOM      1  C   LIG    1       25.173 -14.354   3.308  0.00  0.00    +0.028 C 
ATOM      2  C   LIG    1       23.818 -14.414   4.081  0.00  0.00    +0.048 C 
ATOM      3  C   LIG    1       23.235 -12.999   4.233  0.00  0.00    +0.088 C 
ATOM      4  N   LIG    1       23.013 -12.360   2.935  0.00  0.00    -0.316 NA
ATOM      5  H   LIG    1       22.637 -11.422   3.081  0.00  0.00    +0.122 HD
ATOM      6  C   LIG    1       24.251 -12.265   2.160  0.00  0.00    +0.081 C 
ATOM      7  C   LIG    1       24.904 -13.635   1.962  0.00  0.00    +0.023 C 
ENDROOT
BRANCH   1  12
ATOM      8  F   LIG    1       29.475 -12.074   6.300  0.00  0.00    -0.205 F 
ATOM      9  C   LIG    1       28.470 -12.614   5.598  0.00  0.00    +0.123 A 
ATOM     10  C   LIG    1       28.520 -12.618   4.214  0.00  0.00    +0.038 A 
ATOM     11  C   LIG    1       27.466 -13.177   3.483  0.00  0.00    +0.007 A 
ATOM     12  C   LIG    1       26.353 -13.766   4.118  0.00  0.00    -0.044 A 
ATOM     13  C   LIG    1       26.326 -13.712   5.526  0.00  0.00    +0.007 A 
ATOM     14  C   LIG    1       27.381 -13.149   6.260  0.00  0.00    +0.038 A 
ENDBRANCH   1  12
BRANCH   2  15
ATOM     15  C   LIG    1       22.770 -15.340   3.426  0.00  0.00    +0.234 C 
BRANCH  15  16
ATOM     16  O   LIG    1       22.232 -16.243   4.401  0.00  0.00    -0.491 OA
BRANCH  16  17
ATOM     17  C   LIG    1       22.852 -17.466   4.438  0.00  0.00    +0.124 A 
ATOM     18  C   LIG    1       22.402 -18.554   5.192  0.00  0.00    +0.095 A 
ATOM     19  C   LIG    1       23.187 -19.689   5.212  0.00  0.00    +0.170 A 
ATOM     20  O   LIG    1       22.936 -20.811   5.939  0.00  0.00    -0.453 OA
ATOM     21  C   LIG    1       24.133 -21.572   5.675  0.00  0.00    +0.466 C 
ATOM     22  O   LIG    1       24.984 -20.970   4.677  0.00  0.00    -0.453 OA
ATOM     23  C   LIG    1       24.351 -19.780   4.487  0.00  0.00    +0.167 A 
ATOM     24  C   LIG    1       24.784 -18.752   3.682  0.00  0.00    +0.053 A 
ATOM     25  C   LIG    1       24.018 -17.580   3.656  0.00  0.00    +0.049 A 
ENDBRANCH  16  17
ENDBRANCH  15  16
ENDBRANCH   2  15
TORSDOF 4
ENDMDL
MODEL 6
REMARK VINA RESULT:       0.3      2.549      3.982
REMARK  Name = *****
REMARK                            x       y       z     vdW  Elec       q    Type
REMARK                         _______ _______ _______ _____ _____    ______ ____
ROOT
ATOM      1  C   LIG    1       26.691 -14.252   4.881  0.00  0.00    +0.028 C 
ATOM      2  C   LIG    1       27.612 -15.203   4.053  0.00  0.00    +0.048 C 
ATOM      3  C   LIG    1       28.625 -14.379   3.240  0.00  0.00    +0.088 C 
ATOM      4  N   LIG    1       29.461 -13.542   4.102  0.00  0.00    -0.316 NA
ATOM      5  H   LIG    1       30.110 -13.005   3.525  0.00  0.00    +0.122 HD
ATOM      6  C   LIG    1       28.657 -12.619   4.904  0.00  0.00    +0.081 C 
ATOM      7  C   LIG    1       27.614 -13.357   5.746  0.00  0.00    +0.023 C 
ENDROOT
BRANCH   1  12
ATOM      8  F   LIG    1       22.765 -11.457   1.813  0.00  0.00    -0.205 F 
ATOM      9  C   LIG    1       23.690 -12.108   2.530  0.00  0.00    +0.123 A 
ATOM     10  C   LIG    1       24.567 -12.973   1.900  0.00  0.00    +0.038 A 
ATOM     11  C   LIG    1       25.529 -13.658   2.653  0.00  0.00    +0.007 A 
ATOM     12  C   LIG    1       25.650 -13.472   4.046  0.00  0.00    -0.044 A 
ATOM     13  C   LIG    1       24.716 -12.607   4.652  0.00  0.00    +0.007 A 
ATOM     14  C   LIG    1       23.750 -11.923   3.899  0.00  0.00    +0.038 A 
ENDBRANCH   1  12
BRANCH   2  15
ATOM     15  C   LIG    1       28.360 -16.246   4.910  0.00  0.00    +0.234 C 
BRANCH  15  16
ATOM     16  O   LIG    1       28.519 -17.467   4.174  0.00  0.00    -0.491 OA
BRANCH  16  17
ATOM     17  C   LIG    1       27.686 -18.479   4.578  0.00  0.00    +0.124 A 
ATOM     18  C   LIG    1       26.444 -18.755   3.999  0.00  0.00    +0.095 A 
ATOM     19  C   LIG    1       25.670 -19.739   4.579  0.00  0.00    +0.170 A 
ATOM     20  O   LIG    1       24.415 -20.091   4.188  0.00  0.00    -0.453 OA
ATOM     21  C   LIG    1       24.074 -21.042   5.218  0.00  0.00    +0.466 C 
ATOM     22  O   LIG    1       25.176 -21.359   6.092  0.00  0.00    -0.453 OA
ATOM     23  C   LIG    1       26.108 -20.465   5.660  0.00  0.00    +0.167 A 
ATOM     24  C   LIG    1       27.353 -20.265   6.209  0.00  0.00    +0.053 A 
ATOM     25  C   LIG    1       28.154 -19.259   5.654  0.00  0.00    +0.049 A 
ENDBRANCH  16  17
ENDBRANCH  15  16
ENDBRANCH   2  15
TORSDOF 4
ENDMDL
