MODEL 1
REMARK VINA RESULT:      -6.9      0.000      0.000
REMARK  Name = *****
REMARK                            x       y       z     vdW  Elec       q    Type
REMARK                         _______ _______ _______ _____ _____    ______ ____
ROOT
ATOM      1  C   LIG    1       25.826 -29.985   8.511  0.00  0.00    +0.064 C 
ATOM      2  C   LIG    1       26.395 -31.182   7.735  0.00  0.00    +0.118 C 
ATOM      3  C   LIG    1       25.555 -31.709   6.579  0.00  0.00    +0.074 C 
ATOM      4  C   LIG    1       24.926 -32.956   7.157  0.00  0.00    +0.239 C 
ATOM      5  O   LIG    1       25.875 -33.445   8.113  0.00  0.00    -0.464 OA
ATOM      6  C   LIG    1       24.617 -30.707   5.897  0.00  0.00    +0.152 C 
ATOM      7  C   LIG    1       24.937 -29.261   6.222  0.00  0.00    -0.011 A 
ATOM      8  C   LIG    1       24.619 -28.260   5.289  0.00  0.00    +0.056 A 
ATOM      9  C   LIG    1       24.984 -26.964   5.575  0.00  0.00    +0.167 A 
ATOM     10  O   LIG    1       24.785 -25.890   4.765  0.00  0.00    -0.453 OA
ATOM     11  C   LIG    1       25.434 -24.852   5.527  0.00  0.00    +0.466 C 
ATOM     12  O   LIG    1       25.931 -25.305   6.805  0.00  0.00    -0.453 OA
ATOM     13  C   LIG    1       25.626 -26.629   6.744  0.00  0.00    +0.167 A 
ATOM     14  C   LIG    1       25.908 -27.568   7.712  0.00  0.00    +0.054 A 
ATOM     15  C   LIG    1       26.640 -32.410   8.554  0.00  0.00    +0.312 C 
ATOM     16  O   LIG    1       27.451 -32.491   9.471  0.00  0.00    -0.251 OA
ATOM     17  C   LIG    1       25.550 -28.904   7.462  0.00  0.00    -0.030 A 
ENDROOT
BRANCH   1  22
ATOM     18  C   LIG    1       22.475 -31.267   9.989  0.00  0.00    +0.165 A 
ATOM     19  C   LIG    1       22.511 -30.753  11.292  0.00  0.00    +0.203 A 
ATOM     20  C   LIG    1       23.634 -29.994  11.691  0.00  0.00    +0.165 A 
ATOM     21  C   LIG    1       24.689 -29.758  10.786  0.00  0.00    +0.053 A 
ATOM     22  C   LIG    1       24.659 -30.249   9.471  0.00  0.00    -0.032 A 
ATOM     23  C   LIG    1       23.523 -30.976   9.101  0.00  0.00    +0.053 A 
BRANCH  18  25
ATOM     24  C   LIG    1       21.777 -33.444   9.236  0.00  0.00    +0.277 C 
ATOM     25  O   LIG    1       21.521 -32.058   9.397  0.00  0.00    -0.491 OA
ENDBRANCH  18  25
BRANCH  19  26
ATOM     26  O   LIG    1       21.465 -31.076  12.116  0.00  0.00    -0.488 OA
ATOM     27  C   LIG    1       20.350 -30.201  12.183  0.00  0.00    +0.277 C 
ENDBRANCH  19  26
BRANCH  20  28
ATOM     28  O   LIG    1       23.691 -29.592  13.003  0.00  0.00    -0.491 OA
ATOM     29  C   LIG    1       23.414 -28.224  13.272  0.00  0.00    +0.277 C 
ENDBRANCH  20  28
ENDBRANCH   1  22
BRANCH   6  30
ATOM     30  O   LIG    1       23.255 -31.001   6.167  0.00  0.00    -0.387 OA
ATOM     31  H   LIG    1       22.863 -30.250   6.648  0.00  0.00    +0.210 HD
ENDBRANCH   6  30
TORSDOF 5
ENDMDL
MODEL 2
REMARK VINA RESULT:      -6.6      0.433      2.353
REMARK  Name = *****
REMARK                            x       y       z     vdW  Elec       q    Type
REMARK                         _______ _______ _______ _____ _____    ______ ____
ROOT
ATOM      1  C   LIG    1       25.795 -29.986   8.533  0.00  0.00    +0.064 C 
ATOM      2  C   LIG    1       26.373 -31.186   7.768  0.00  0.00    +0.118 C 
ATOM      3  C   LIG    1       25.546 -31.721   6.607  0.00  0.00    +0.074 C 
ATOM      4  C   LIG    1       24.914 -32.966   7.186  0.00  0.00    +0.239 C 
ATOM      5  O   LIG    1       25.855 -33.448   8.153  0.00  0.00    -0.464 OA
ATOM      6  C   LIG    1       24.611 -30.725   5.912  0.00  0.00    +0.152 C 
ATOM      7  C   LIG    1       24.925 -29.276   6.232  0.00  0.00    -0.011 A 
ATOM      8  C   LIG    1       24.613 -28.281   5.291  0.00  0.00    +0.056 A 
ATOM      9  C   LIG    1       24.973 -26.982   5.574  0.00  0.00    +0.167 A 
ATOM     10  O   LIG    1       24.778 -25.913   4.756  0.00  0.00    -0.453 OA
ATOM     11  C   LIG    1       25.418 -24.870   5.519  0.00  0.00    +0.466 C 
ATOM     12  O   LIG    1       25.906 -25.315   6.803  0.00  0.00    -0.453 OA
ATOM     13  C   LIG    1       25.604 -26.640   6.747  0.00  0.00    +0.167 A 
ATOM     14  C   LIG    1       25.879 -27.573   7.722  0.00  0.00    +0.054 A 
ATOM     15  C   LIG    1       26.614 -32.409   8.595  0.00  0.00    +0.312 C 
ATOM     16  O   LIG    1       27.417 -32.483   9.520  0.00  0.00    -0.251 OA
ATOM     17  C   LIG    1       25.526 -28.912   7.475  0.00  0.00    -0.030 A 
ENDROOT
BRANCH   1  22
ATOM     18  C   LIG    1       23.478 -29.933  11.644  0.00  0.00    +0.165 A 
ATOM     19  C   LIG    1       22.401 -30.727  11.224  0.00  0.00    +0.203 A 
ATOM     20  C   LIG    1       22.429 -31.273   9.922  0.00  0.00    +0.165 A 
ATOM     21  C   LIG    1       23.526 -31.024   9.070  0.00  0.00    +0.053 A 
ATOM     22  C   LIG    1       24.621 -30.248   9.483  0.00  0.00    -0.032 A 
ATOM     23  C   LIG    1       24.572 -29.742  10.786  0.00  0.00    +0.053 A 
BRANCH  18  25
ATOM     24  C   LIG    1       23.027 -28.010  13.019  0.00  0.00    +0.277 C 
ATOM     25  O   LIG    1       23.651 -29.270  12.834  0.00  0.00    -0.491 OA
ENDBRANCH  18  25
BRANCH  19  26
ATOM     26  O   LIG    1       21.358 -30.871  12.100  0.00  0.00    -0.488 OA
ATOM     27  C   LIG    1       21.383 -31.949  13.023  0.00  0.00    +0.277 C 
ENDBRANCH  19  26
BRANCH  20  28
ATOM     28  O   LIG    1       21.316 -31.958   9.500  0.00  0.00    -0.491 OA
ATOM     29  C   LIG    1       21.407 -33.376   9.461  0.00  0.00    +0.277 C 
ENDBRANCH  20  28
ENDBRANCH   1  22
BRANCH   6  30
ATOM     30  O   LIG    1       23.247 -31.020   6.172  0.00  0.00    -0.387 OA
ATOM     31  H   LIG    1       23.014 -31.845   5.711  0.00  0.00    +0.210 HD
ENDBRANCH   6  30
TORSDOF 5
ENDMDL
MODEL 3
REMARK VINA RESULT:      -6.3      5.569     10.566
REMARK  Name = *****
REMARK                            x       y       z     vdW  Elec       q    Type
REMARK                         _______ _______ _______ _____ _____    ______ ____
ROOT
ATOM      1  C   LIG    1       25.942 -22.352   7.049  0.00  0.00    +0.064 C 
ATOM      2  C   LIG    1       25.011 -22.052   8.233  0.00  0.00    +0.118 C 
ATOM      3  C   LIG    1       23.514 -22.111   7.958  0.00  0.00    +0.074 C 
ATOM      4  C   LIG    1       23.129 -20.652   7.865  0.00  0.00    +0.239 C 
ATOM      5  O   LIG    1       24.041 -19.969   8.733  0.00  0.00    -0.464 OA
ATOM      6  C   LIG    1       23.060 -23.026   6.815  0.00  0.00    +0.152 C 
ATOM      7  C   LIG    1       24.119 -24.019   6.378  0.00  0.00    -0.011 A 
ATOM      8  C   LIG    1       23.723 -25.248   5.824  0.00  0.00    +0.056 A 
ATOM      9  C   LIG    1       24.701 -26.162   5.502  0.00  0.00    +0.167 A 
ATOM     10  O   LIG    1       24.483 -27.405   4.994  0.00  0.00    -0.453 OA
ATOM     11  C   LIG    1       25.830 -27.917   4.947  0.00  0.00    +0.466 C 
ATOM     12  O   LIG    1       26.826 -26.950   5.345  0.00  0.00    -0.453 OA
ATOM     13  C   LIG    1       26.037 -25.897   5.690  0.00  0.00    +0.167 A 
ATOM     14  C   LIG    1       26.475 -24.685   6.178  0.00  0.00    +0.054 A 
ATOM     15  C   LIG    1       25.182 -20.700   8.848  0.00  0.00    +0.312 C 
ATOM     16  O   LIG    1       26.197 -20.312   9.419  0.00  0.00    -0.251 OA
ATOM     17  C   LIG    1       25.509 -23.721   6.518  0.00  0.00    -0.030 A 
ENDROOT
BRANCH   1  22
ATOM     18  C   LIG    1       25.224 -20.012   4.039  0.00  0.00    +0.165 A 
ATOM     19  C   LIG    1       26.385 -19.228   3.991  0.00  0.00    +0.203 A 
ATOM     20  C   LIG    1       27.399 -19.458   4.946  0.00  0.00    +0.165 A 
ATOM     21  C   LIG    1       27.240 -20.464   5.922  0.00  0.00    +0.053 A 
ATOM     22  C   LIG    1       26.092 -21.272   5.971  0.00  0.00    -0.032 A 
ATOM     23  C   LIG    1       25.118 -21.033   4.996  0.00  0.00    +0.053 A 
BRANCH  18  25
ATOM     24  C   LIG    1       22.965 -19.242   3.730  0.00  0.00    +0.277 C 
ATOM     25  O   LIG    1       24.101 -19.944   3.252  0.00  0.00    -0.491 OA
ENDBRANCH  18  25
BRANCH  19  26
ATOM     26  O   LIG    1       26.428 -18.242   3.040  0.00  0.00    -0.488 OA
ATOM     27  C   LIG    1       25.908 -16.960   3.358  0.00  0.00    +0.277 C 
ENDBRANCH  19  26
BRANCH  20  28
ATOM     28  O   LIG    1       28.477 -18.607   4.941  0.00  0.00    -0.491 OA
ATOM     29  C   LIG    1       29.429 -18.765   5.985  0.00  0.00    +0.277 C 
ENDBRANCH  20  28
ENDBRANCH   1  22
BRANCH   6  30
ATOM     30  O   LIG    1       22.576 -22.279   5.710  0.00  0.00    -0.387 OA
ATOM     31  H   LIG    1       23.290 -21.702   5.386  0.00  0.00    +0.210 HD
ENDBRANCH   6  30
TORSDOF 5
ENDMDL
MODEL 4
REMARK VINA RESULT:      -6.1      1.805      2.274
REMARK  Name = *****
REMARK                            x       y       z     vdW  Elec       q    Type
REMARK                         _______ _______ _______ _____ _____    ______ ____
ROOT
ATOM      1  C   LIG    1       24.962 -30.292  10.090  0.00  0.00    +0.064 C 
ATOM      2  C   LIG    1       25.538 -31.715  10.110  0.00  0.00    +0.118 C 
ATOM      3  C   LIG    1       24.862 -32.740   9.210  0.00  0.00    +0.074 C 
ATOM      4  C   LIG    1       24.029 -33.547  10.180  0.00  0.00    +0.239 C 
ATOM      5  O   LIG    1       24.752 -33.505  11.416  0.00  0.00    -0.464 OA
ATOM      6  C   LIG    1       24.151 -32.200   7.964  0.00  0.00    +0.152 C 
ATOM      7  C   LIG    1       24.546 -30.779   7.611  0.00  0.00    -0.011 A 
ATOM      8  C   LIG    1       24.487 -30.362   6.271  0.00  0.00    +0.056 A 
ATOM      9  C   LIG    1       24.918 -29.090   5.966  0.00  0.00    +0.167 A 
ATOM     10  O   LIG    1       24.960 -28.549   4.719  0.00  0.00    -0.453 OA
ATOM     11  C   LIG    1       25.565 -27.271   5.000  0.00  0.00    +0.466 C 
ATOM     12  O   LIG    1       25.794 -27.042   6.406  0.00  0.00    -0.453 OA
ATOM     13  C   LIG    1       25.381 -28.227   6.930  0.00  0.00    +0.167 A 
ATOM     14  C   LIG    1       25.405 -28.573   8.264  0.00  0.00    +0.054 A 
ATOM     15  C   LIG    1       25.525 -32.386  11.446  0.00  0.00    +0.312 C 
ATOM     16  O   LIG    1       26.157 -32.009  12.427  0.00  0.00    -0.251 OA
ATOM     17  C   LIG    1       24.971 -29.862   8.620  0.00  0.00    -0.030 A 
ENDROOT
BRANCH   1  22
ATOM     18  C   LIG    1       21.180 -30.284  10.957  0.00  0.00    +0.165 A 
ATOM     19  C   LIG    1       21.162 -29.627  12.196  0.00  0.00    +0.203 A 
ATOM     20  C   LIG    1       22.386 -29.194  12.750  0.00  0.00    +0.165 A 
ATOM     21  C   LIG    1       23.597 -29.416  12.062  0.00  0.00    +0.053 A 
ATOM     22  C   LIG    1       23.629 -30.055  10.812  0.00  0.00    -0.032 A 
ATOM     23  C   LIG    1       22.398 -30.450  10.279  0.00  0.00    +0.053 A 
BRANCH  18  25
ATOM     24  C   LIG    1       19.947 -32.231  10.263  0.00  0.00    +0.277 C 
ATOM     25  O   LIG    1       20.134 -30.825  10.250  0.00  0.00    -0.491 OA
ENDBRANCH  18  25
BRANCH  19  26
ATOM     26  O   LIG    1       19.946 -29.501  12.813  0.00  0.00    -0.488 OA
ATOM     27  C   LIG    1       19.484 -30.558  13.640  0.00  0.00    +0.277 C 
ENDBRANCH  19  26
BRANCH  20  28
ATOM     28  O   LIG    1       22.351 -28.648  14.011  0.00  0.00    -0.491 OA
ATOM     29  C   LIG    1       22.613 -27.255  14.118  0.00  0.00    +0.277 C 
ENDBRANCH  20  28
ENDBRANCH   1  22
BRANCH   6  30
ATOM     30  O   LIG    1       22.742 -32.325   8.072  0.00  0.00    -0.387 OA
ATOM     31  H   LIG    1       22.511 -33.271   8.065  0.00  0.00    +0.210 HD
ENDBRANCH   6  30
TORSDOF 5
ENDMDL
MODEL 5
REMARK VINA RESULT:      -6.0      2.358      6.446
REMARK  Name = *****
REMARK                            x       y       z     vdW  Elec       q    Type
REMARK                         _______ _______ _______ _____ _____    ______ ____
ROOT
ATOM      1  C   LIG    1       23.951 -29.893  11.054  0.00  0.00    +0.064 C 
ATOM      2  C   LIG    1       22.921 -30.835  11.693  0.00  0.00    +0.118 C 
ATOM      3  C   LIG    1       23.457 -32.121  12.307  0.00  0.00    +0.074 C 
ATOM      4  C   LIG    1       23.102 -33.164  11.272  0.00  0.00    +0.239 C 
ATOM      5  O   LIG    1       21.904 -32.682  10.651  0.00  0.00    -0.464 OA
ATOM      6  C   LIG    1       24.908 -32.096  12.800  0.00  0.00    +0.152 C 
ATOM      7  C   LIG    1       25.471 -30.696  12.951  0.00  0.00    -0.011 A 
ATOM      8  C   LIG    1       26.478 -30.458  13.901  0.00  0.00    +0.056 A 
ATOM      9  C   LIG    1       26.922 -29.166  14.070  0.00  0.00    +0.167 A 
ATOM     10  O   LIG    1       27.861 -28.765  14.968  0.00  0.00    -0.453 OA
ATOM     11  C   LIG    1       27.846 -27.339  14.755  0.00  0.00    +0.466 C 
ATOM     12  O   LIG    1       26.968 -26.928  13.686  0.00  0.00    -0.453 OA
ATOM     13  C   LIG    1       26.422 -28.122  13.329  0.00  0.00    +0.167 A 
ATOM     14  C   LIG    1       25.474 -28.315  12.349  0.00  0.00    +0.054 A 
ATOM     15  C   LIG    1       21.853 -31.328  10.769  0.00  0.00    +0.312 C 
ATOM     16  O   LIG    1       21.014 -30.618  10.224  0.00  0.00    -0.251 OA
ATOM     17  C   LIG    1       24.994 -29.620  12.141  0.00  0.00    -0.030 A 
ENDROOT
BRANCH   1  22
ATOM     18  C   LIG    1       26.210 -31.503   8.340  0.00  0.00    +0.165 A 
ATOM     19  C   LIG    1       25.600 -31.071   7.154  0.00  0.00    +0.203 A 
ATOM     20  C   LIG    1       24.448 -30.260   7.241  0.00  0.00    +0.165 A 
ATOM     21  C   LIG    1       23.931 -29.892   8.501  0.00  0.00    +0.053 A 
ATOM     22  C   LIG    1       24.541 -30.300   9.698  0.00  0.00    -0.032 A 
ATOM     23  C   LIG    1       25.694 -31.083   9.577  0.00  0.00    +0.053 A 
BRANCH  18  25
ATOM     24  C   LIG    1       27.095 -33.698   8.781  0.00  0.00    +0.277 C 
ATOM     25  O   LIG    1       27.300 -32.322   8.505  0.00  0.00    -0.491 OA
ENDBRANCH  18  25
BRANCH  19  26
ATOM     26  O   LIG    1       26.143 -31.520   5.979  0.00  0.00    -0.488 OA
ATOM     27  C   LIG    1       25.671 -32.739   5.427  0.00  0.00    +0.277 C 
ENDBRANCH  19  26
BRANCH  20  28
ATOM     28  O   LIG    1       23.812 -29.938   6.067  0.00  0.00    -0.491 OA
ATOM     29  C   LIG    1       24.193 -28.722   5.438  0.00  0.00    +0.277 C 
ENDBRANCH  20  28
ENDBRANCH   1  22
BRANCH   6  30
ATOM     30  O   LIG    1       25.750 -32.898  11.987  0.00  0.00    -0.387 OA
ATOM     31  H   LIG    1       25.318 -33.759  11.844  0.00  0.00    +0.210 HD
ENDBRANCH   6  30
TORSDOF 5
ENDMDL
MODEL 6
REMARK VINA RESULT:      -6.0      1.833      3.263
REMARK  Name = *****
REMARK                            x       y       z     vdW  Elec       q    Type
REMARK                         _______ _______ _______ _____ _____    ______ ____
ROOT
ATOM      1  C   LIG    1       24.959 -30.301  10.078  0.00  0.00    +0.064 C 
ATOM      2  C   LIG    1       25.521 -31.729  10.095  0.00  0.00    +0.118 C 
ATOM      3  C   LIG    1       24.832 -32.747   9.195  0.00  0.00    +0.074 C 
ATOM      4  C   LIG    1       23.994 -33.546  10.167  0.00  0.00    +0.239 C 
ATOM      5  O   LIG    1       24.720 -33.513  11.402  0.00  0.00    -0.464 OA
ATOM      6  C   LIG    1       24.124 -32.198   7.952  0.00  0.00    +0.152 C 
ATOM      7  C   LIG    1       24.532 -30.781   7.600  0.00  0.00    -0.011 A 
ATOM      8  C   LIG    1       24.474 -30.361   6.260  0.00  0.00    +0.056 A 
ATOM      9  C   LIG    1       24.917 -29.094   5.956  0.00  0.00    +0.167 A 
ATOM     10  O   LIG    1       24.962 -28.551   4.709  0.00  0.00    -0.453 OA
ATOM     11  C   LIG    1       25.581 -27.280   4.990  0.00  0.00    +0.466 C 
ATOM     12  O   LIG    1       25.815 -27.055   6.397  0.00  0.00    -0.453 OA
ATOM     13  C   LIG    1       25.391 -28.236   6.920  0.00  0.00    +0.167 A 
ATOM     14  C   LIG    1       25.415 -28.584   8.253  0.00  0.00    +0.054 A 
ATOM     15  C   LIG    1       25.504 -32.402  11.431  0.00  0.00    +0.312 C 
ATOM     16  O   LIG    1       26.143 -32.032  12.411  0.00  0.00    -0.251 OA
ATOM     17  C   LIG    1       24.969 -29.869   8.609  0.00  0.00    -0.030 A 
ENDROOT
BRANCH   1  22
ATOM     18  C   LIG    1       22.329 -29.070  12.652  0.00  0.00    +0.165 A 
ATOM     19  C   LIG    1       21.135 -29.573  12.118  0.00  0.00    +0.203 A 
ATOM     20  C   LIG    1       21.188 -30.308  10.913  0.00  0.00    +0.165 A 
ATOM     21  C   LIG    1       22.424 -30.531  10.271  0.00  0.00    +0.053 A 
ATOM     22  C   LIG    1       23.631 -30.051  10.803  0.00  0.00    -0.032 A 
ATOM     23  C   LIG    1       23.546 -29.348  12.010  0.00  0.00    +0.053 A 
BRANCH  18  25
ATOM     24  C   LIG    1       22.631 -26.894  13.636  0.00  0.00    +0.277 C 
ATOM     25  O   LIG    1       22.519 -28.302  13.775  0.00  0.00    -0.491 OA
ENDBRANCH  18  25
BRANCH  19  26
ATOM     26  O   LIG    1       19.979 -29.263  12.784  0.00  0.00    -0.488 OA
ATOM     27  C   LIG    1       19.507 -30.149  13.788  0.00  0.00    +0.277 C 
ENDBRANCH  19  26
BRANCH  20  28
ATOM     28  O   LIG    1       19.994 -30.699  10.358  0.00  0.00    -0.491 OA
ATOM     29  C   LIG    1       19.745 -32.096  10.279  0.00  0.00    +0.277 C 
ENDBRANCH  20  28
ENDBRANCH   1  22
BRANCH   6  30
ATOM     30  O   LIG    1       22.714 -32.309   8.064  0.00  0.00    -0.387 OA
ATOM     31  H   LIG    1       22.498 -33.180   8.441  0.00  0.00    +0.210 HD
ENDBRANCH   6  30
TORSDOF 5
ENDMDL
MODEL 7
REMARK VINA RESULT:      -6.0      2.331      6.396
REMARK  Name = *****
REMARK                            x       y       z     vdW  Elec       q    Type
REMARK                         _______ _______ _______ _____ _____    ______ ____
ROOT
ATOM      1  C   LIG    1       23.899 -29.965  10.971  0.00  0.00    +0.064 C 
ATOM      2  C   LIG    1       22.866 -30.892  11.628  0.00  0.00    +0.118 C 
ATOM      3  C   LIG    1       23.399 -32.169  12.263  0.00  0.00    +0.074 C 
ATOM      4  C   LIG    1       23.038 -33.229  11.247  0.00  0.00    +0.239 C 
ATOM      5  O   LIG    1       21.841 -32.753  10.620  0.00  0.00    -0.464 OA
ATOM      6  C   LIG    1       24.851 -32.141  12.754  0.00  0.00    +0.152 C 
ATOM      7  C   LIG    1       25.419 -30.741  12.880  0.00  0.00    -0.011 A 
ATOM      8  C   LIG    1       26.429 -30.491  13.824  0.00  0.00    +0.056 A 
ATOM      9  C   LIG    1       26.878 -29.198  13.969  0.00  0.00    +0.167 A 
ATOM     10  O   LIG    1       27.820 -28.785  14.860  0.00  0.00    -0.453 OA
ATOM     11  C   LIG    1       27.811 -27.363  14.622  0.00  0.00    +0.466 C 
ATOM     12  O   LIG    1       26.932 -26.967  13.547  0.00  0.00    -0.453 OA
ATOM     13  C   LIG    1       26.381 -28.164  13.212  0.00  0.00    +0.167 A 
ATOM     14  C   LIG    1       25.430 -28.371  12.236  0.00  0.00    +0.054 A 
ATOM     15  C   LIG    1       21.795 -31.397  10.715  0.00  0.00    +0.312 C 
ATOM     16  O   LIG    1       20.958 -30.693  10.159  0.00  0.00    -0.251 OA
ATOM     17  C   LIG    1       24.945 -29.678  12.052  0.00  0.00    -0.030 A 
ENDROOT
BRANCH   1  22
ATOM     18  C   LIG    1       24.467 -30.396   7.157  0.00  0.00    +0.165 A 
ATOM     19  C   LIG    1       25.619 -31.194   7.118  0.00  0.00    +0.203 A 
ATOM     20  C   LIG    1       26.214 -31.585   8.337  0.00  0.00    +0.165 A 
ATOM     21  C   LIG    1       25.650 -31.181   9.565  0.00  0.00    +0.053 A 
ATOM     22  C   LIG    1       24.485 -30.398   9.621  0.00  0.00    -0.032 A 
ATOM     23  C   LIG    1       23.908 -30.048   8.397  0.00  0.00    +0.053 A 
BRANCH  18  25
ATOM     24  C   LIG    1       24.161 -28.634   5.546  0.00  0.00    +0.277 C 
ATOM     25  O   LIG    1       23.747 -29.865   6.115  0.00  0.00    -0.491 OA
ENDBRANCH  18  25
BRANCH  19  26
ATOM     26  O   LIG    1       26.124 -31.495   5.880  0.00  0.00    -0.488 OA
ATOM     27  C   LIG    1       25.654 -32.656   5.213  0.00  0.00    +0.277 C 
ENDBRANCH  19  26
BRANCH  20  28
ATOM     28  O   LIG    1       27.399 -32.277   8.269  0.00  0.00    -0.491 OA
ATOM     29  C   LIG    1       27.356 -33.663   8.584  0.00  0.00    +0.277 C 
ENDBRANCH  20  28
ENDBRANCH   1  22
BRANCH   6  30
ATOM     30  O   LIG    1       25.688 -32.960  11.953  0.00  0.00    -0.387 OA
ATOM     31  H   LIG    1       26.047 -33.675  12.508  0.00  0.00    +0.210 HD
ENDBRANCH   6  30
TORSDOF 5
ENDMDL
MODEL 8
REMARK VINA RESULT:      -5.7      3.091      5.643
REMARK  Name = *****
REMARK                            x       y       z     vdW  Elec       q    Type
REMARK                         _______ _______ _______ _____ _____    ______ ____
ROOT
ATOM      1  C   LIG    1       26.286 -29.654  12.032  0.00  0.00    +0.064 C 
ATOM      2  C   LIG    1       26.087 -31.023  12.697  0.00  0.00    +0.118 C 
ATOM      3  C   LIG    1       24.650 -31.493  12.881  0.00  0.00    +0.074 C 
ATOM      4  C   LIG    1       24.397 -31.243  14.351  0.00  0.00    +0.239 C 
ATOM      5  O   LIG    1       25.673 -31.401  14.981  0.00  0.00    -0.464 OA
ATOM      6  C   LIG    1       23.615 -30.944  11.893  0.00  0.00    +0.152 C 
ATOM      7  C   LIG    1       24.231 -30.319  10.656  0.00  0.00    -0.011 A 
ATOM      8  C   LIG    1       23.509 -30.322   9.451  0.00  0.00    +0.056 A 
ATOM      9  C   LIG    1       24.118 -29.814   8.326  0.00  0.00    +0.167 A 
ATOM     10  O   LIG    1       23.572 -29.777   7.081  0.00  0.00    -0.453 OA
ATOM     11  C   LIG    1       24.671 -29.238   6.320  0.00  0.00    +0.466 C 
ATOM     12  O   LIG    1       25.813 -28.888   7.131  0.00  0.00    -0.453 OA
ATOM     13  C   LIG    1       25.390 -29.295   8.358  0.00  0.00    +0.167 A 
ATOM     14  C   LIG    1       26.115 -29.221   9.528  0.00  0.00    +0.054 A 
ATOM     15  C   LIG    1       26.655 -31.147  14.075  0.00  0.00    +0.312 C 
ATOM     16  O   LIG    1       27.848 -31.074  14.351  0.00  0.00    -0.251 OA
ATOM     17  C   LIG    1       25.530 -29.727  10.701  0.00  0.00    -0.030 A 
ENDROOT
BRANCH   1  22
ATOM     18  C   LIG    1       24.456 -26.605  13.584  0.00  0.00    +0.165 A 
ATOM     19  C   LIG    1       25.422 -26.097  14.464  0.00  0.00    +0.203 A 
ATOM     20  C   LIG    1       26.668 -26.756  14.555  0.00  0.00    +0.165 A 
ATOM     21  C   LIG    1       26.929 -27.897  13.768  0.00  0.00    +0.053 A 
ATOM     22  C   LIG    1       25.979 -28.406  12.868  0.00  0.00    -0.032 A 
ATOM     23  C   LIG    1       24.764 -27.717  12.784  0.00  0.00    +0.053 A 
BRANCH  18  25
ATOM     24  C   LIG    1       22.104 -26.768  14.066  0.00  0.00    +0.277 C 
ATOM     25  O   LIG    1       23.175 -26.165  13.359  0.00  0.00    -0.491 OA
ENDBRANCH  18  25
BRANCH  19  26
ATOM     26  O   LIG    1       25.062 -25.016  15.224  0.00  0.00    -0.488 OA
ATOM     27  C   LIG    1       25.505 -23.726  14.833  0.00  0.00    +0.277 C 
ENDBRANCH  19  26
BRANCH  20  28
ATOM     28  O   LIG    1       27.556 -26.300  15.499  0.00  0.00    -0.491 OA
ATOM     29  C   LIG    1       28.892 -26.777  15.413  0.00  0.00    +0.277 C 
ENDBRANCH  20  28
ENDBRANCH   1  22
BRANCH   6  30
ATOM     30  O   LIG    1       22.716 -30.045  12.524  0.00  0.00    -0.387 OA
ATOM     31  H   LIG    1       21.818 -30.418  12.479  0.00  0.00    +0.210 HD
ENDBRANCH   6  30
TORSDOF 5
ENDMDL
MODEL 9
REMARK VINA RESULT:      -5.6      2.458      4.988
REMARK  Name = *****
REMARK                            x       y       z     vdW  Elec       q    Type
REMARK                         _______ _______ _______ _____ _____    ______ ____
ROOT
ATOM      1  C   LIG    1       25.417 -29.524  11.406  0.00  0.00    +0.064 C 
ATOM      2  C   LIG    1       25.892 -30.816  12.085  0.00  0.00    +0.118 C 
ATOM      3  C   LIG    1       24.921 -31.989  12.080  0.00  0.00    +0.074 C 
ATOM      4  C   LIG    1       24.374 -31.982  13.489  0.00  0.00    +0.239 C 
ATOM      5  O   LIG    1       25.435 -31.462  14.299  0.00  0.00    -0.464 OA
ATOM      6  C   LIG    1       23.901 -32.034  10.937  0.00  0.00    +0.152 C 
ATOM      7  C   LIG    1       24.251 -31.120   9.778  0.00  0.00    -0.011 A 
ATOM      8  C   LIG    1       23.817 -31.453   8.484  0.00  0.00    +0.056 A 
ATOM      9  C   LIG    1       24.207 -30.646   7.439  0.00  0.00    +0.167 A 
ATOM     10  O   LIG    1       23.905 -30.849   6.129  0.00  0.00    -0.453 OA
ATOM     11  C   LIG    1       24.637 -29.771   5.513  0.00  0.00    +0.466 C 
ATOM     12  O   LIG    1       25.289 -28.903   6.464  0.00  0.00    -0.453 OA
ATOM     13  C   LIG    1       24.985 -29.529   7.633  0.00  0.00    +0.167 A 
ATOM     14  C   LIG    1       25.388 -29.133   8.889  0.00  0.00    +0.054 A 
ATOM     15  C   LIG    1       26.242 -30.681  13.533  0.00  0.00    +0.312 C 
ATOM     16  O   LIG    1       27.159 -29.994  13.971  0.00  0.00    -0.251 OA
ATOM     17  C   LIG    1       25.009 -29.927   9.986  0.00  0.00    -0.030 A 
ENDROOT
BRANCH   1  22
ATOM     18  C   LIG    1       23.763 -26.716  13.512  0.00  0.00    +0.165 A 
ATOM     19  C   LIG    1       22.411 -27.088  13.491  0.00  0.00    +0.203 A 
ATOM     20  C   LIG    1       22.040 -28.252  12.784  0.00  0.00    +0.165 A 
ATOM     21  C   LIG    1       23.017 -29.022  12.119  0.00  0.00    +0.053 A 
ATOM     22  C   LIG    1       24.377 -28.673  12.146  0.00  0.00    -0.032 A 
ATOM     23  C   LIG    1       24.714 -27.528  12.875  0.00  0.00    +0.053 A 
BRANCH  18  25
ATOM     24  C   LIG    1       25.653 -25.236  13.683  0.00  0.00    +0.277 C 
ATOM     25  O   LIG    1       24.349 -25.617  14.090  0.00  0.00    -0.491 OA
ENDBRANCH  18  25
BRANCH  19  26
ATOM     26  O   LIG    1       21.528 -26.252  14.122  0.00  0.00    -0.488 OA
ATOM     27  C   LIG    1       21.227 -26.481  15.490  0.00  0.00    +0.277 C 
ENDBRANCH  19  26
BRANCH  20  28
ATOM     28  O   LIG    1       20.699 -28.536  12.693  0.00  0.00    -0.491 OA
ATOM     29  C   LIG    1       20.207 -29.598  13.499  0.00  0.00    +0.277 C 
ENDBRANCH  20  28
ENDBRANCH   1  22
BRANCH   6  30
ATOM     30  O   LIG    1       22.584 -31.785  11.403  0.00  0.00    -0.387 OA
ATOM     31  H   LIG    1       22.135 -32.638  11.538  0.00  0.00    +0.210 HD
ENDBRANCH   6  30
TORSDOF 5
ENDMDL
