MODEL 1
REMARK VINA RESULT:      -7.8      0.000      0.000
REMARK  Name = *****
REMARK                            x       y       z     vdW  Elec       q    Type
REMARK                         _______ _______ _______ _____ _____    ______ ____
ROOT
ATOM      1  C   LIG    1       26.665 -21.784   7.178  0.00  0.00    +0.216 A 
ATOM      2  N   LIG    1       25.583 -20.994   7.098  0.00  0.00    -0.198 NA
ATOM      3  C   LIG    1       24.358 -21.542   6.866  0.00  0.00    +0.152 A 
ATOM      4  C   LIG    1       24.294 -22.939   6.711  0.00  0.00    +0.148 A 
ATOM      5  N   LIG    1       23.245 -23.805   6.481  0.00  0.00    -0.231 NA
ATOM      6  C   LIG    1       23.803 -24.996   6.399  0.00  0.00    +0.202 A 
ATOM      7  N   LIG    1       25.165 -24.943   6.550  0.00  0.00    -0.308 N 
ATOM      8  C   LIG    1       25.493 -23.629   6.772  0.00  0.00    +0.168 A 
ATOM      9  N   LIG    1       26.711 -23.112   6.990  0.00  0.00    -0.195 NA
ENDROOT
BRANCH   7  10
ATOM     10  C   LIG    1       26.115 -26.045   6.509  0.00  0.00    +0.113 C 
ATOM     11  C   LIG    1       26.071 -26.861   5.199  0.00  0.00    +0.039 C 
ATOM     12  C   LIG    1       25.428 -28.221   5.534  0.00  0.00    +0.039 C 
ATOM     13  C   LIG    1       25.501 -28.266   7.031  0.00  0.00    -0.023 C 
ATOM     14  C   LIG    1       25.876 -27.092   7.557  0.00  0.00    -0.006 C 
BRANCH  12  15
ATOM     15  C   LIG    1       24.000 -28.358   4.994  0.00  0.00    +0.163 C 
BRANCH  15  16
ATOM     16  O   LIG    1       23.344 -29.483   5.569  0.00  0.00    -0.394 OA
ATOM     17  H   LIG    1       22.570 -29.684   5.015  0.00  0.00    +0.209 HD
ENDBRANCH  15  16
ENDBRANCH  12  15
ENDBRANCH   7  10
BRANCH   1  18
ATOM     18  N   LIG    1       27.861 -21.143   7.436  0.00  0.00    -0.327 N 
ATOM     19  H   LIG    1       27.936 -20.981   8.432  0.00  0.00    +0.145 HD
ATOM     20  H   LIG    1       27.969 -20.346   6.827  0.00  0.00    +0.145 HD
ENDBRANCH   1  18
BRANCH   3  21
ATOM     21  N   LIG    1       23.212 -20.735   6.758  0.00  0.00    -0.324 N 
ATOM     22  H   LIG    1       23.109 -20.108   7.550  0.00  0.00    +0.148 HD
BRANCH  21  23
ATOM     23  C   LIG    1       22.587 -20.464   5.472  0.00  0.00    +0.072 C 
ATOM     24  C   LIG    1       22.449 -19.051   4.973  0.00  0.00    +0.024 C 
ATOM     25  C   LIG    1       23.397 -19.997   4.297  0.00  0.00    +0.024 C 
ENDBRANCH  21  23
ENDBRANCH   3  21
TORSDOF 6
ENDMDL
MODEL 2
REMARK VINA RESULT:      -7.6      3.847      6.636
REMARK  Name = *****
REMARK                            x       y       z     vdW  Elec       q    Type
REMARK                         _______ _______ _______ _____ _____    ______ ____
ROOT
ATOM      1  C   LIG    1       25.355 -20.360   4.399  0.00  0.00    +0.216 A 
ATOM      2  N   LIG    1       24.544 -21.385   4.705  0.00  0.00    -0.198 NA
ATOM      3  C   LIG    1       24.770 -22.115   5.833  0.00  0.00    +0.152 A 
ATOM      4  C   LIG    1       25.872 -21.751   6.629  0.00  0.00    +0.148 A 
ATOM      5  N   LIG    1       26.375 -22.252   7.811  0.00  0.00    -0.231 NA
ATOM      6  C   LIG    1       27.443 -21.522   8.061  0.00  0.00    +0.202 A 
ATOM      7  N   LIG    1       27.665 -20.580   7.089  0.00  0.00    -0.308 N 
ATOM      8  C   LIG    1       26.651 -20.701   6.172  0.00  0.00    +0.168 A 
ATOM      9  N   LIG    1       26.455 -19.974   5.063  0.00  0.00    -0.195 NA
ENDROOT
BRANCH   7  10
ATOM     10  C   LIG    1       28.745 -19.606   7.014  0.00  0.00    +0.113 C 
ATOM     11  C   LIG    1       30.132 -20.229   6.750  0.00  0.00    +0.039 C 
ATOM     12  C   LIG    1       30.936 -20.121   8.062  0.00  0.00    +0.039 C 
ATOM     13  C   LIG    1       30.145 -19.125   8.856  0.00  0.00    -0.023 C 
ATOM     14  C   LIG    1       28.964 -18.844   8.288  0.00  0.00    -0.006 C 
BRANCH  12  15
ATOM     15  C   LIG    1       31.101 -21.468   8.775  0.00  0.00    +0.163 C 
BRANCH  15  16
ATOM     16  O   LIG    1       32.303 -21.495   9.538  0.00  0.00    -0.394 OA
ATOM     17  H   LIG    1       32.243 -22.249  10.150  0.00  0.00    +0.209 HD
ENDBRANCH  15  16
ENDBRANCH  12  15
ENDBRANCH   7  10
BRANCH   1  18
ATOM     18  N   LIG    1       25.036 -19.665   3.249  0.00  0.00    -0.327 N 
ATOM     19  H   LIG    1       24.917 -18.688   3.481  0.00  0.00    +0.145 HD
ATOM     20  H   LIG    1       24.280 -20.122   2.761  0.00  0.00    +0.145 HD
ENDBRANCH   1  18
BRANCH   3  21
ATOM     21  N   LIG    1       23.949 -23.206   6.167  0.00  0.00    -0.324 N 
ATOM     22  H   LIG    1       23.009 -23.105   5.796  0.00  0.00    +0.148 HD
BRANCH  21  23
ATOM     23  C   LIG    1       24.507 -24.505   6.513  0.00  0.00    +0.072 C 
ATOM     24  C   LIG    1       24.041 -25.749   5.806  0.00  0.00    +0.024 C 
ATOM     25  C   LIG    1       25.430 -25.229   5.576  0.00  0.00    +0.024 C 
ENDBRANCH  21  23
ENDBRANCH   3  21
TORSDOF 6
ENDMDL
MODEL 3
REMARK VINA RESULT:      -7.3      3.333      6.171
REMARK  Name = *****
REMARK                            x       y       z     vdW  Elec       q    Type
REMARK                         _______ _______ _______ _____ _____    ______ ____
ROOT
ATOM      1  C   LIG    1       28.898 -18.779   5.511  0.00  0.00    +0.216 A 
ATOM      2  N   LIG    1       30.009 -19.064   6.207  0.00  0.00    -0.198 NA
ATOM      3  C   LIG    1       29.967 -19.989   7.206  0.00  0.00    +0.152 A 
ATOM      4  C   LIG    1       28.728 -20.604   7.464  0.00  0.00    +0.148 A 
ATOM      5  N   LIG    1       28.336 -21.566   8.371  0.00  0.00    -0.231 NA
ATOM      6  C   LIG    1       27.044 -21.721   8.162  0.00  0.00    +0.202 A 
ATOM      7  N   LIG    1       26.576 -20.894   7.173  0.00  0.00    -0.308 N 
ATOM      8  C   LIG    1       27.652 -20.185   6.700  0.00  0.00    +0.168 A 
ATOM      9  N   LIG    1       27.667 -19.271   5.719  0.00  0.00    -0.195 NA
ENDROOT
BRANCH   7  10
ATOM     10  C   LIG    1       25.214 -20.773   6.675  0.00  0.00    +0.113 C 
ATOM     11  C   LIG    1       24.205 -21.708   7.377  0.00  0.00    +0.039 C 
ATOM     12  C   LIG    1       23.834 -22.814   6.369  0.00  0.00    +0.039 C 
ATOM     13  C   LIG    1       24.318 -22.253   5.065  0.00  0.00    -0.023 C 
ATOM     14  C   LIG    1       25.060 -21.149   5.230  0.00  0.00    -0.006 C 
BRANCH  12  15
ATOM     15  C   LIG    1       24.457 -24.171   6.712  0.00  0.00    +0.163 C 
BRANCH  15  16
ATOM     16  O   LIG    1       23.542 -25.231   6.456  0.00  0.00    -0.394 OA
ATOM     17  H   LIG    1       22.649 -24.899   6.653  0.00  0.00    +0.209 HD
ENDBRANCH  15  16
ENDBRANCH  12  15
ENDBRANCH   7  10
BRANCH   1  18
ATOM     18  N   LIG    1       29.041 -17.845   4.504  0.00  0.00    -0.327 N 
ATOM     19  H   LIG    1       28.548 -17.003   4.768  0.00  0.00    +0.145 HD
ATOM     20  H   LIG    1       28.814 -18.255   3.611  0.00  0.00    +0.145 HD
ENDBRANCH   1  18
BRANCH   3  21
ATOM     21  N   LIG    1       31.112 -20.290   7.964  0.00  0.00    -0.324 N 
ATOM     22  H   LIG    1       31.768 -20.871   7.451  0.00  0.00    +0.148 HD
BRANCH  21  23
ATOM     23  C   LIG    1       31.528 -19.459   9.084  0.00  0.00    +0.072 C 
ATOM     24  C   LIG    1       31.976 -18.041   8.857  0.00  0.00    +0.024 C 
ATOM     25  C   LIG    1       30.679 -18.315   9.560  0.00  0.00    +0.024 C 
ENDBRANCH  21  23
ENDBRANCH   3  21
TORSDOF 6
ENDMDL
MODEL 4
REMARK VINA RESULT:      -7.2      4.270      6.905
REMARK  Name = *****
REMARK                            x       y       z     vdW  Elec       q    Type
REMARK                         _______ _______ _______ _____ _____    ______ ____
ROOT
ATOM      1  C   LIG    1       25.601 -19.988   4.495  0.00  0.00    +0.216 A 
ATOM      2  N   LIG    1       24.453 -20.325   5.104  0.00  0.00    -0.198 NA
ATOM      3  C   LIG    1       24.463 -20.701   6.413  0.00  0.00    +0.152 A 
ATOM      4  C   LIG    1       25.708 -20.724   7.069  0.00  0.00    +0.148 A 
ATOM      5  N   LIG    1       26.075 -21.037   8.361  0.00  0.00    -0.231 NA
ATOM      6  C   LIG    1       27.386 -20.905   8.380  0.00  0.00    +0.202 A 
ATOM      7  N   LIG    1       27.889 -20.536   7.159  0.00  0.00    -0.308 N 
ATOM      8  C   LIG    1       26.818 -20.395   6.311  0.00  0.00    +0.168 A 
ATOM      9  N   LIG    1       26.836 -20.031   5.020  0.00  0.00    -0.195 NA
ENDROOT
BRANCH   7  10
ATOM     10  C   LIG    1       29.279 -20.308   6.792  0.00  0.00    +0.113 C 
ATOM     11  C   LIG    1       30.252 -20.323   7.990  0.00  0.00    +0.039 C 
ATOM     12  C   LIG    1       30.705 -18.868   8.226  0.00  0.00    +0.039 C 
ATOM     13  C   LIG    1       30.298 -18.182   6.955  0.00  0.00    -0.023 C 
ATOM     14  C   LIG    1       29.532 -18.962   6.180  0.00  0.00    -0.006 C 
BRANCH  12  15
ATOM     15  C   LIG    1       30.079 -18.241   9.477  0.00  0.00    +0.163 C 
BRANCH  15  16
ATOM     16  O   LIG    1       30.707 -18.729  10.658  0.00  0.00    -0.394 OA
ATOM     17  H   LIG    1       31.592 -18.327  10.705  0.00  0.00    +0.209 HD
ENDBRANCH  15  16
ENDBRANCH  12  15
ENDBRANCH   7  10
BRANCH   1  18
ATOM     18  N   LIG    1       25.491 -19.600   3.174  0.00  0.00    -0.327 N 
ATOM     19  H   LIG    1       24.572 -19.854   2.836  0.00  0.00    +0.145 HD
ATOM     20  H   LIG    1       26.286 -19.926   2.647  0.00  0.00    +0.145 HD
ENDBRANCH   1  18
BRANCH   3  21
ATOM     21  N   LIG    1       23.278 -21.078   7.068  0.00  0.00    -0.324 N 
ATOM     22  H   LIG    1       22.521 -20.424   6.896  0.00  0.00    +0.148 HD
BRANCH  21  23
ATOM     23  C   LIG    1       23.032 -22.455   7.470  0.00  0.00    +0.072 C 
ATOM     24  C   LIG    1       22.284 -23.394   6.561  0.00  0.00    +0.024 C 
ATOM     25  C   LIG    1       23.750 -23.597   6.810  0.00  0.00    +0.024 C 
ENDBRANCH  21  23
ENDBRANCH   3  21
TORSDOF 6
ENDMDL
MODEL 5
REMARK VINA RESULT:      -7.1      4.214      6.596
REMARK  Name = *****
REMARK                            x       y       z     vdW  Elec       q    Type
REMARK                         _______ _______ _______ _____ _____    ______ ____
ROOT
ATOM      1  C   LIG    1       26.065 -19.351   4.156  0.00  0.00    +0.216 A 
ATOM      2  N   LIG    1       25.171 -20.350   4.220  0.00  0.00    -0.198 NA
ATOM      3  C   LIG    1       25.271 -21.289   5.202  0.00  0.00    +0.152 A 
ATOM      4  C   LIG    1       26.336 -21.161   6.112  0.00  0.00    +0.148 A 
ATOM      5  N   LIG    1       26.724 -21.907   7.205  0.00  0.00    -0.231 NA
ATOM      6  C   LIG    1       27.817 -21.319   7.646  0.00  0.00    +0.202 A 
ATOM      7  N   LIG    1       28.166 -20.235   6.881  0.00  0.00    -0.308 N 
ATOM      8  C   LIG    1       27.212 -20.109   5.903  0.00  0.00    +0.168 A 
ATOM      9  N   LIG    1       27.140 -19.178   4.941  0.00  0.00    -0.195 NA
ENDROOT
BRANCH   7  10
ATOM     10  C   LIG    1       29.310 -19.350   7.050  0.00  0.00    +0.113 C 
ATOM     11  C   LIG    1       30.673 -20.070   6.992  0.00  0.00    +0.039 C 
ATOM     12  C   LIG    1       31.239 -20.087   8.427  0.00  0.00    +0.039 C 
ATOM     13  C   LIG    1       30.395 -19.067   9.130  0.00  0.00    -0.023 C 
ATOM     14  C   LIG    1       29.356 -18.666   8.385  0.00  0.00    -0.006 C 
BRANCH  12  15
ATOM     15  C   LIG    1       31.180 -21.473   9.078  0.00  0.00    +0.163 C 
BRANCH  15  16
ATOM     16  O   LIG    1       32.255 -22.293   8.629  0.00  0.00    -0.394 OA
ATOM     17  H   LIG    1       32.021 -23.215   8.831  0.00  0.00    +0.209 HD
ENDBRANCH  15  16
ENDBRANCH  12  15
ENDBRANCH   7  10
BRANCH   1  18
ATOM     18  N   LIG    1       25.872 -18.435   3.141  0.00  0.00    -0.327 N 
ATOM     19  H   LIG    1       26.754 -17.985   2.936  0.00  0.00    +0.145 HD
ATOM     20  H   LIG    1       25.085 -17.840   3.352  0.00  0.00    +0.145 HD
ENDBRANCH   1  18
BRANCH   3  21
ATOM     21  N   LIG    1       24.359 -22.357   5.279  0.00  0.00    -0.324 N 
ATOM     22  H   LIG    1       24.809 -23.255   5.135  0.00  0.00    +0.148 HD
BRANCH  21  23
ATOM     23  C   LIG    1       23.095 -22.231   5.988  0.00  0.00    +0.072 C 
ATOM     24  C   LIG    1       22.571 -23.369   6.822  0.00  0.00    +0.024 C 
ATOM     25  C   LIG    1       23.051 -22.111   7.485  0.00  0.00    +0.024 C 
ENDBRANCH  21  23
ENDBRANCH   3  21
TORSDOF 6
ENDMDL
MODEL 6
REMARK VINA RESULT:      -7.1      4.894      7.464
REMARK  Name = *****
REMARK                            x       y       z     vdW  Elec       q    Type
REMARK                         _______ _______ _______ _____ _____    ______ ____
ROOT
ATOM      1  C   LIG    1       26.584 -22.068   7.125  0.00  0.00    +0.216 A 
ATOM      2  N   LIG    1       25.721 -21.548   6.238  0.00  0.00    -0.198 NA
ATOM      3  C   LIG    1       26.077 -20.458   5.503  0.00  0.00    +0.152 A 
ATOM      4  C   LIG    1       27.358 -19.920   5.724  0.00  0.00    +0.148 A 
ATOM      5  N   LIG    1       28.031 -18.854   5.163  0.00  0.00    -0.231 NA
ATOM      6  C   LIG    1       29.187 -18.816   5.794  0.00  0.00    +0.202 A 
ATOM      7  N   LIG    1       29.291 -19.797   6.747  0.00  0.00    -0.308 N 
ATOM      8  C   LIG    1       28.130 -20.527   6.699  0.00  0.00    +0.168 A 
ATOM      9  N   LIG    1       27.799 -21.594   7.442  0.00  0.00    -0.195 NA
ENDROOT
BRANCH   7  10
ATOM     10  C   LIG    1       30.405 -20.060   7.646  0.00  0.00    +0.113 C 
ATOM     11  C   LIG    1       30.124 -19.690   9.118  0.00  0.00    +0.039 C 
ATOM     12  C   LIG    1       30.951 -18.428   9.435  0.00  0.00    +0.039 C 
ATOM     13  C   LIG    1       31.929 -18.376   8.299  0.00  0.00    -0.023 C 
ATOM     14  C   LIG    1       31.637 -19.260   7.336  0.00  0.00    -0.006 C 
BRANCH  12  15
ATOM     15  C   LIG    1       30.093 -17.163   9.551  0.00  0.00    +0.163 C 
BRANCH  15  16
ATOM     16  O   LIG    1       30.254 -16.554  10.828  0.00  0.00    -0.394 OA
ATOM     17  H   LIG    1       30.483 -17.258  11.460  0.00  0.00    +0.209 HD
ENDBRANCH  15  16
ENDBRANCH  12  15
ENDBRANCH   7  10
BRANCH   1  18
ATOM     18  N   LIG    1       26.145 -23.184   7.809  0.00  0.00    -0.327 N 
ATOM     19  H   LIG    1       26.905 -23.848   7.873  0.00  0.00    +0.145 HD
ATOM     20  H   LIG    1       25.274 -23.513   7.421  0.00  0.00    +0.145 HD
ENDBRANCH   1  18
BRANCH   3  21
ATOM     21  N   LIG    1       25.184 -19.882   4.582  0.00  0.00    -0.324 N 
ATOM     22  H   LIG    1       25.664 -19.484   3.781  0.00  0.00    +0.148 HD
BRANCH  21  23
ATOM     23  C   LIG    1       23.784 -20.276   4.526  0.00  0.00    +0.072 C 
ATOM     24  C   LIG    1       22.853 -19.952   5.663  0.00  0.00    +0.024 C 
ATOM     25  C   LIG    1       22.697 -19.257   4.342  0.00  0.00    +0.024 C 
ENDBRANCH  21  23
ENDBRANCH   3  21
TORSDOF 6
ENDMDL
MODEL 7
REMARK VINA RESULT:      -6.9      2.378      3.824
REMARK  Name = *****
REMARK                            x       y       z     vdW  Elec       q    Type
REMARK                         _______ _______ _______ _____ _____    ______ ____
ROOT
ATOM      1  C   LIG    1       23.281 -23.971   6.589  0.00  0.00    +0.216 A 
ATOM      2  N   LIG    1       24.276 -23.080   6.715  0.00  0.00    -0.198 NA
ATOM      3  C   LIG    1       25.570 -23.480   6.565  0.00  0.00    +0.152 A 
ATOM      4  C   LIG    1       25.796 -24.841   6.286  0.00  0.00    +0.148 A 
ATOM      5  N   LIG    1       26.947 -25.569   6.070  0.00  0.00    -0.231 NA
ATOM      6  C   LIG    1       26.534 -26.807   5.888  0.00  0.00    +0.202 A 
ATOM      7  N   LIG    1       25.171 -26.919   5.991  0.00  0.00    -0.308 N 
ATOM      8  C   LIG    1       24.681 -25.659   6.226  0.00  0.00    +0.168 A 
ATOM      9  N   LIG    1       23.401 -25.291   6.379  0.00  0.00    -0.195 NA
ENDROOT
BRANCH   7  10
ATOM     10  C   LIG    1       24.358 -28.120   5.864  0.00  0.00    +0.113 C 
ATOM     11  C   LIG    1       24.043 -28.808   7.209  0.00  0.00    +0.039 C 
ATOM     12  C   LIG    1       24.875 -30.105   7.262  0.00  0.00    +0.039 C 
ATOM     13  C   LIG    1       25.299 -30.288   5.836  0.00  0.00    -0.023 C 
ATOM     14  C   LIG    1       25.016 -29.218   5.080  0.00  0.00    -0.006 C 
BRANCH  12  15
ATOM     15  C   LIG    1       26.054 -30.020   8.237  0.00  0.00    +0.163 C 
BRANCH  15  16
ATOM     16  O   LIG    1       26.239 -28.685   8.698  0.00  0.00    -0.394 OA
ATOM     17  H   LIG    1       26.464 -28.139   7.925  0.00  0.00    +0.209 HD
ENDBRANCH  15  16
ENDBRANCH  12  15
ENDBRANCH   7  10
BRANCH   1  18
ATOM     18  N   LIG    1       22.002 -23.470   6.737  0.00  0.00    -0.327 N 
ATOM     19  H   LIG    1       21.421 -23.834   5.993  0.00  0.00    +0.145 HD
ATOM     20  H   LIG    1       22.030 -22.469   6.856  0.00  0.00    +0.145 HD
ENDBRANCH   1  18
BRANCH   3  21
ATOM     21  N   LIG    1       26.632 -22.571   6.712  0.00  0.00    -0.324 N 
ATOM     22  H   LIG    1       26.969 -22.229   5.818  0.00  0.00    +0.148 HD
BRANCH  21  23
ATOM     23  C   LIG    1       26.841 -21.834   7.949  0.00  0.00    +0.072 C 
ATOM     24  C   LIG    1       27.386 -20.432   7.920  0.00  0.00    +0.024 C 
ATOM     25  C   LIG    1       25.961 -20.676   8.322  0.00  0.00    +0.024 C 
ENDBRANCH  21  23
ENDBRANCH   3  21
TORSDOF 6
ENDMDL
MODEL 8
REMARK VINA RESULT:      -6.7      1.824      3.511
REMARK  Name = *****
REMARK                            x       y       z     vdW  Elec       q    Type
REMARK                         _______ _______ _______ _____ _____    ______ ____
ROOT
ATOM      1  C   LIG    1       24.730 -21.123   4.581  0.00  0.00    +0.216 A 
ATOM      2  N   LIG    1       25.346 -20.376   5.510  0.00  0.00    -0.198 NA
ATOM      3  C   LIG    1       25.943 -20.976   6.577  0.00  0.00    +0.152 A 
ATOM      4  C   LIG    1       25.872 -22.379   6.652  0.00  0.00    +0.148 A 
ATOM      5  N   LIG    1       26.361 -23.290   7.565  0.00  0.00    -0.231 NA
ATOM      6  C   LIG    1       25.953 -24.462   7.124  0.00  0.00    +0.202 A 
ATOM      7  N   LIG    1       25.210 -24.355   5.977  0.00  0.00    -0.308 N 
ATOM      8  C   LIG    1       25.167 -23.022   5.650  0.00  0.00    +0.168 A 
ATOM      9  N   LIG    1       24.564 -22.454   4.595  0.00  0.00    -0.195 NA
ENDROOT
BRANCH   7  10
ATOM     10  C   LIG    1       24.584 -25.422   5.210  0.00  0.00    +0.113 C 
ATOM     11  C   LIG    1       23.891 -26.493   6.078  0.00  0.00    +0.039 C 
ATOM     12  C   LIG    1       24.756 -27.767   6.005  0.00  0.00    +0.039 C 
ATOM     13  C   LIG    1       25.648 -27.498   4.830  0.00  0.00    -0.023 C 
ATOM     14  C   LIG    1       25.552 -26.233   4.398  0.00  0.00    -0.006 C 
BRANCH  12  15
ATOM     15  C   LIG    1       25.529 -28.040   7.300  0.00  0.00    +0.163 C 
BRANCH  15  16
ATOM     16  O   LIG    1       25.797 -29.431   7.450  0.00  0.00    -0.394 OA
ATOM     17  H   LIG    1       25.497 -29.875   6.637  0.00  0.00    +0.209 HD
ENDBRANCH  15  16
ENDBRANCH  12  15
ENDBRANCH   7  10
BRANCH   1  18
ATOM     18  N   LIG    1       24.171 -20.429   3.525  0.00  0.00    -0.327 N 
ATOM     19  H   LIG    1       24.833 -19.734   3.205  0.00  0.00    +0.145 HD
ATOM     20  H   LIG    1       23.245 -20.112   3.766  0.00  0.00    +0.145 HD
ENDBRANCH   1  18
BRANCH   3  21
ATOM     21  N   LIG    1       26.579 -20.215   7.575  0.00  0.00    -0.324 N 
ATOM     22  H   LIG    1       26.080 -20.251   8.458  0.00  0.00    +0.148 HD
BRANCH  21  23
ATOM     23  C   LIG    1       27.994 -19.887   7.499  0.00  0.00    +0.072 C 
ATOM     24  C   LIG    1       29.037 -20.926   7.812  0.00  0.00    +0.024 C 
ATOM     25  C   LIG    1       28.862 -20.437   6.404  0.00  0.00    +0.024 C 
ENDBRANCH  21  23
ENDBRANCH   3  21
TORSDOF 6
ENDMDL
MODEL 9
REMARK VINA RESULT:      -6.5      3.967      6.132
REMARK  Name = *****
REMARK                            x       y       z     vdW  Elec       q    Type
REMARK                         _______ _______ _______ _____ _____    ______ ____
ROOT
ATOM      1  C   LIG    1       27.083 -19.599   5.205  0.00  0.00    +0.216 A 
ATOM      2  N   LIG    1       28.348 -19.686   5.644  0.00  0.00    -0.198 NA
ATOM      3  C   LIG    1       28.635 -20.438   6.743  0.00  0.00    +0.152 A 
ATOM      4  C   LIG    1       27.563 -21.092   7.377  0.00  0.00    +0.148 A 
ATOM      5  N   LIG    1       27.495 -21.920   8.477  0.00  0.00    -0.231 NA
ATOM      6  C   LIG    1       26.214 -22.200   8.611  0.00  0.00    +0.202 A 
ATOM      7  N   LIG    1       25.446 -21.580   7.659  0.00  0.00    -0.308 N 
ATOM      8  C   LIG    1       26.302 -20.880   6.845  0.00  0.00    +0.168 A 
ATOM      9  N   LIG    1       25.992 -20.139   5.772  0.00  0.00    -0.195 NA
ENDROOT
BRANCH   7  10
ATOM     10  C   LIG    1       24.001 -21.640   7.494  0.00  0.00    +0.113 C 
ATOM     11  C   LIG    1       23.542 -22.511   6.306  0.00  0.00    +0.039 C 
ATOM     12  C   LIG    1       23.021 -21.553   5.215  0.00  0.00    +0.039 C 
ATOM     13  C   LIG    1       22.844 -20.264   5.960  0.00  0.00    -0.023 C 
ATOM     14  C   LIG    1       23.369 -20.313   7.192  0.00  0.00    -0.006 C 
BRANCH  12  15
ATOM     15  C   LIG    1       23.972 -21.433   4.019  0.00  0.00    +0.163 C 
BRANCH  15  16
ATOM     16  O   LIG    1       24.028 -20.092   3.546  0.00  0.00    -0.394 OA
ATOM     17  H   LIG    1       23.134 -19.718   3.622  0.00  0.00    +0.209 HD
ENDBRANCH  15  16
ENDBRANCH  12  15
ENDBRANCH   7  10
BRANCH   1  18
ATOM     18  N   LIG    1       26.890 -18.831   4.073  0.00  0.00    -0.327 N 
ATOM     19  H   LIG    1       25.903 -18.819   3.852  0.00  0.00    +0.145 HD
ATOM     20  H   LIG    1       27.525 -19.117   3.344  0.00  0.00    +0.145 HD
ENDBRANCH   1  18
BRANCH   3  21
ATOM     21  N   LIG    1       29.949 -20.529   7.235  0.00  0.00    -0.324 N 
ATOM     22  H   LIG    1       30.587 -20.924   6.552  0.00  0.00    +0.148 HD
BRANCH  21  23
ATOM     23  C   LIG    1       30.413 -19.695   8.333  0.00  0.00    +0.072 C 
ATOM     24  C   LIG    1       31.548 -18.727   8.130  0.00  0.00    +0.024 C 
ATOM     25  C   LIG    1       30.154 -18.215   8.348  0.00  0.00    +0.024 C 
ENDBRANCH  21  23
ENDBRANCH   3  21
TORSDOF 6
ENDMDL
