MODEL 1
REMARK VINA RESULT:      24.0      0.000      0.000
REMARK  Name = *****
REMARK                            x       y       z     vdW  Elec       q    Type
REMARK                         _______ _______ _______ _____ _____    ______ ____
ROOT
ATOM      1  C   LIG    1       27.646 -21.688   8.711  0.00  0.00    +0.046 C 
ATOM      2  C   LIG    1       27.535 -22.918   7.875  0.00  0.00    -0.023 A 
ATOM      3  C   LIG    1       28.094 -23.047   6.594  0.00  0.00    +0.089 A 
ATOM      4  C   LIG    1       27.957 -24.270   5.936  0.00  0.00    +0.030 A 
ATOM      5  C   LIG    1       27.265 -25.327   6.540  0.00  0.00    +0.010 A 
ATOM      6  C   LIG    1       26.681 -25.204   7.814  0.00  0.00    -0.018 A 
ATOM      7  C   LIG    1       26.863 -23.985   8.462  0.00  0.00    +0.014 A 
ENDROOT
BRANCH   6   8
ATOM      8  C   LIG    1       25.902 -26.281   8.462  0.00  0.00    -0.018 A 
ATOM      9  C   LIG    1       26.276 -26.790   9.710  0.00  0.00    +0.014 A 
ATOM     10  C   LIG    1       25.555 -27.796  10.366  0.00  0.00    -0.023 A 
ATOM     11  C   LIG    1       26.050 -28.215  11.722  0.00  0.00    +0.046 C 
ATOM     12  C   LIG    1       24.414 -28.338   9.751  0.00  0.00    +0.089 A 
ATOM     13  C   LIG    1       24.042 -27.861   8.492  0.00  0.00    +0.030 A 
ATOM     14  C   LIG    1       24.763 -26.850   7.867  0.00  0.00    +0.010 A 
BRANCH  12  15
ATOM     15  N   LIG    1       23.660 -29.341  10.392  0.00  0.00    -0.149 NA
ATOM     16  N   LIG    1       22.462 -29.294  10.030  0.00  0.00    -0.144 NA
BRANCH  16  17
ATOM     17  C   LIG    1       21.604 -30.116  10.778  0.00  0.00    +0.155 A 
ATOM     18  C   LIG    1       21.460 -31.479  10.507  0.00  0.00    +0.148 A 
ATOM     19  C   LIG    1       20.464 -32.237  11.142  0.00  0.00    +0.040 A 
ATOM     20  C   LIG    1       19.624 -31.671  12.103  0.00  0.00    -0.009 A 
ATOM     21  C   LIG    1       19.776 -30.311  12.469  0.00  0.00    +0.047 A 
ATOM     22  C   LIG    1       18.937 -29.771  13.490  0.00  0.00    +0.038 A 
ATOM     23  C   LIG    1       17.994 -30.580  14.121  0.00  0.00    +0.053 A 
ATOM     24  C   LIG    1       17.834 -31.900  13.711  0.00  0.00    +0.119 A 
ATOM     25  C   LIG    1       18.638 -32.450  12.716  0.00  0.00    +0.038 A 
ATOM     26  C   LIG    1       20.741 -29.562  11.757  0.00  0.00    +0.155 A 
BRANCH  22  27
ATOM     27  N   LIG    1       19.187 -28.501  14.053  0.00  0.00    -0.357 N 
ATOM     28  H   LIG    1       18.459 -27.818  13.881  0.00  0.00    +0.142 HD
ATOM     29  H   LIG    1       20.110 -28.158  13.767  0.00  0.00    +0.142 HD
ENDBRANCH  22  27
BRANCH  24  30
ATOM     30  S   LIG    1       16.601 -32.907  14.479  0.00  0.00    +0.110 S 
ATOM     31  O   LIG    1       16.044 -33.769  13.460  0.00  0.00    -0.142 OA
ATOM     32  O   LIG    1       15.776 -32.074  15.310  0.00  0.00    -0.142 OA
BRANCH  30  33
ATOM     33  O   LIG    1       17.448 -33.825  15.498  0.00  0.00    -0.250 OA
ATOM     34  H   LIG    1       18.390 -33.760  15.228  0.00  0.00    +0.245 HD
ENDBRANCH  30  33
ENDBRANCH  24  30
BRANCH  18  35
ATOM     35  S   LIG    1       22.512 -32.336   9.373  0.00  0.00    +0.112 S 
ATOM     36  O   LIG    1       23.681 -32.850  10.032  0.00  0.00    -0.142 OA
ATOM     37  O   LIG    1       22.636 -31.516   8.168  0.00  0.00    -0.142 OA
BRANCH  35  38
ATOM     38  O   LIG    1       21.610 -33.598   8.910  0.00  0.00    -0.250 OA
ATOM     39  H   LIG    1       21.714 -33.706   7.950  0.00  0.00    +0.245 HD
ENDBRANCH  35  38
ENDBRANCH  18  35
BRANCH  26  40
ATOM     40  O   LIG    1       20.795 -28.198  11.998  0.00  0.00    -0.504 OA
ATOM     41  H   LIG    1       21.502 -27.859  11.415  0.00  0.00    +0.292 HD
ENDBRANCH  26  40
ENDBRANCH  16  17
ENDBRANCH  12  15
ENDBRANCH   6   8
BRANCH   3  42
ATOM     42  N   LIG    1       28.594 -21.955   5.871  0.00  0.00    -0.149 NA
ATOM     43  N   LIG    1       29.261 -21.149   6.545  0.00  0.00    -0.144 NA
BRANCH  43  44
ATOM     44  C   LIG    1       29.090 -19.819   6.070  0.00  0.00    +0.155 A 
ATOM     45  C   LIG    1       29.906 -18.725   6.320  0.00  0.00    +0.148 A 
ATOM     46  C   LIG    1       29.567 -17.455   5.793  0.00  0.00    +0.040 A 
ATOM     47  C   LIG    1       28.451 -17.287   4.959  0.00  0.00    -0.009 A 
ATOM     48  C   LIG    1       27.629 -18.376   4.615  0.00  0.00    +0.047 A 
ATOM     49  C   LIG    1       26.537 -18.166   3.706  0.00  0.00    +0.038 A 
ATOM     50  C   LIG    1       26.244 -16.878   3.259  0.00  0.00    +0.053 A 
ATOM     51  C   LIG    1       27.062 -15.820   3.634  0.00  0.00    +0.119 A 
ATOM     52  C   LIG    1       28.161 -16.012   4.469  0.00  0.00    +0.038 A 
ATOM     53  C   LIG    1       27.972 -19.615   5.212  0.00  0.00    +0.155 A 
BRANCH  45  54
ATOM     54  S   LIG    1       31.426 -18.804   7.230  0.00  0.00    +0.112 S 
ATOM     55  O   LIG    1       32.540 -18.771   6.294  0.00  0.00    -0.142 OA
ATOM     56  O   LIG    1       31.321 -19.861   8.189  0.00  0.00    -0.142 OA
BRANCH  54  57
ATOM     57  O   LIG    1       31.450 -17.456   8.121  0.00  0.00    -0.250 OA
ATOM     58  H   LIG    1       31.849 -17.681   8.992  0.00  0.00    +0.245 HD
ENDBRANCH  54  57
ENDBRANCH  45  54
BRANCH  51  59
ATOM     59  S   LIG    1       26.661 -14.191   3.086  0.00  0.00    +0.110 S 
ATOM     60  O   LIG    1       27.867 -13.583   2.568  0.00  0.00    -0.142 OA
ATOM     61  O   LIG    1       25.864 -13.580   4.116  0.00  0.00    -0.142 OA
BRANCH  59  62
ATOM     62  O   LIG    1       25.662 -14.415   1.838  0.00  0.00    -0.250 OA
ATOM     63  H   LIG    1       25.980 -15.206   1.353  0.00  0.00    +0.245 HD
ENDBRANCH  59  62
ENDBRANCH  51  59
BRANCH  49  64
ATOM     64  N   LIG    1       25.607 -19.182   3.406  0.00  0.00    -0.357 N 
ATOM     65  H   LIG    1       25.361 -19.783   4.186  0.00  0.00    +0.142 HD
ATOM     66  H   LIG    1       24.789 -18.809   2.920  0.00  0.00    +0.142 HD
ENDBRANCH  49  64
BRANCH  53  67
ATOM     67  O   LIG    1       27.165 -20.695   4.910  0.00  0.00    -0.504 OA
ATOM     68  H   LIG    1       26.775 -20.491   4.042  0.00  0.00    +0.292 HD
ENDBRANCH  53  67
ENDBRANCH  43  44
ENDBRANCH   3  42
TORSDOF 17
ENDMDL
MODEL 2
REMARK VINA RESULT:      24.4      2.252     15.993
REMARK  Name = *****
REMARK                            x       y       z     vdW  Elec       q    Type
REMARK                         _______ _______ _______ _____ _____    ______ ____
ROOT
ATOM      1  C   LIG    1       23.689 -30.104   8.228  0.00  0.00    +0.046 C 
ATOM      2  C   LIG    1       24.402 -29.053   9.010  0.00  0.00    -0.023 A 
ATOM      3  C   LIG    1       24.774 -29.194  10.355  0.00  0.00    +0.089 A 
ATOM      4  C   LIG    1       25.479 -28.152  10.957  0.00  0.00    +0.030 A 
ATOM      5  C   LIG    1       25.788 -26.994  10.234  0.00  0.00    +0.010 A 
ATOM      6  C   LIG    1       25.403 -26.830   8.891  0.00  0.00    -0.018 A 
ATOM      7  C   LIG    1       24.730 -27.899   8.305  0.00  0.00    +0.014 A 
ENDROOT
BRANCH   6   8
ATOM      8  C   LIG    1       25.668 -25.602   8.110  0.00  0.00    -0.018 A 
ATOM      9  C   LIG    1       26.788 -24.807   8.374  0.00  0.00    +0.014 A 
ATOM     10  C   LIG    1       27.086 -23.649   7.647  0.00  0.00    -0.023 A 
ATOM     11  C   LIG    1       28.347 -22.918   8.014  0.00  0.00    +0.046 C 
ATOM     12  C   LIG    1       26.224 -23.245   6.613  0.00  0.00    +0.089 A 
ATOM     13  C   LIG    1       25.085 -24.010   6.354  0.00  0.00    +0.030 A 
ATOM     14  C   LIG    1       24.819 -25.167   7.077  0.00  0.00    +0.010 A 
BRANCH  12  15
ATOM     15  N   LIG    1       26.504 -22.091   5.853  0.00  0.00    -0.149 NA
ATOM     16  N   LIG    1       26.046 -21.069   6.414  0.00  0.00    -0.144 NA
BRANCH  16  17
ATOM     17  C   LIG    1       26.095 -19.911   5.622  0.00  0.00    +0.155 A 
ATOM     18  C   LIG    1       25.114 -19.620   4.671  0.00  0.00    +0.148 A 
ATOM     19  C   LIG    1       25.280 -18.560   3.766  0.00  0.00    +0.040 A 
ATOM     20  C   LIG    1       26.401 -17.729   3.822  0.00  0.00    -0.009 A 
ATOM     21  C   LIG    1       27.391 -17.935   4.813  0.00  0.00    +0.047 A 
ATOM     22  C   LIG    1       28.501 -17.040   4.879  0.00  0.00    +0.038 A 
ATOM     23  C   LIG    1       28.596 -15.975   3.985  0.00  0.00    +0.053 A 
ATOM     24  C   LIG    1       27.633 -15.823   2.992  0.00  0.00    +0.119 A 
ATOM     25  C   LIG    1       26.541 -16.683   2.905  0.00  0.00    +0.038 A 
ATOM     26  C   LIG    1       27.224 -19.055   5.660  0.00  0.00    +0.155 A 
BRANCH  22  27
ATOM     27  N   LIG    1       29.394 -17.054   5.972  0.00  0.00    -0.357 N 
ATOM     28  H   LIG    1       29.305 -17.865   6.573  0.00  0.00    +0.142 HD
ATOM     29  H   LIG    1       29.330 -16.176   6.498  0.00  0.00    +0.142 HD
ENDBRANCH  22  27
BRANCH  24  30
ATOM     30  S   LIG    1       27.785 -14.502   1.828  0.00  0.00    +0.110 S 
ATOM     31  O   LIG    1       27.849 -15.087   0.507  0.00  0.00    -0.142 OA
ATOM     32  O   LIG    1       28.779 -13.579   2.303  0.00  0.00    -0.142 OA
BRANCH  30  33
ATOM     33  O   LIG    1       26.379 -13.723   1.959  0.00  0.00    -0.250 OA
ATOM     34  H   LIG    1       25.929 -14.076   2.756  0.00  0.00    +0.245 HD
ENDBRANCH  30  33
ENDBRANCH  24  30
BRANCH  18  35
ATOM     35  S   LIG    1       23.609 -20.543   4.549  0.00  0.00    +0.112 S 
ATOM     36  O   LIG    1       23.693 -21.542   3.520  0.00  0.00    -0.142 OA
ATOM     37  O   LIG    1       22.497 -19.593   4.577  0.00  0.00    -0.142 OA
BRANCH  35  38
ATOM     38  O   LIG    1       23.525 -21.306   5.973  0.00  0.00    -0.250 OA
ATOM     39  H   LIG    1       24.380 -21.740   6.134  0.00  0.00    +0.245 HD
ENDBRANCH  35  38
ENDBRANCH  18  35
BRANCH  26  40
ATOM     40  O   LIG    1       28.259 -19.356   6.532  0.00  0.00    -0.504 OA
ATOM     41  H   LIG    1       28.610 -18.493   6.826  0.00  0.00    +0.292 HD
ENDBRANCH  26  40
ENDBRANCH  16  17
ENDBRANCH  12  15
ENDBRANCH   6   8
BRANCH   3  42
ATOM     42  N   LIG    1       24.294 -30.230  11.170  0.00  0.00    -0.149 NA
ATOM     43  N   LIG    1       23.548 -31.041  10.591  0.00  0.00    -0.144 NA
BRANCH  43  44
ATOM     44  C   LIG    1       22.547 -31.537  11.472  0.00  0.00    +0.155 A 
ATOM     45  C   LIG    1       22.717 -32.428  12.521  0.00  0.00    +0.148 A 
ATOM     46  C   LIG    1       21.598 -32.846  13.283  0.00  0.00    +0.040 A 
ATOM     47  C   LIG    1       20.318 -32.323  13.043  0.00  0.00    -0.009 A 
ATOM     48  C   LIG    1       20.102 -31.362  12.038  0.00  0.00    +0.047 A 
ATOM     49  C   LIG    1       18.786 -30.808  11.874  0.00  0.00    +0.038 A 
ATOM     50  C   LIG    1       17.727 -31.299  12.637  0.00  0.00    +0.053 A 
ATOM     51  C   LIG    1       17.970 -32.263  13.607  0.00  0.00    +0.119 A 
ATOM     52  C   LIG    1       19.250 -32.772  13.821  0.00  0.00    +0.038 A 
ATOM     53  C   LIG    1       21.238 -31.018  11.264  0.00  0.00    +0.155 A 
BRANCH  45  54
ATOM     54  S   LIG    1       24.288 -33.065  13.043  0.00  0.00    +0.112 S 
ATOM     55  O   LIG    1       24.916 -33.751  11.924  0.00  0.00    -0.142 OA
ATOM     56  O   LIG    1       24.108 -33.738  14.292  0.00  0.00    -0.142 OA
BRANCH  54  57
ATOM     57  O   LIG    1       25.165 -31.758  13.415  0.00  0.00    -0.250 OA
ATOM     58  H   LIG    1       26.052 -32.068  13.706  0.00  0.00    +0.245 HD
ENDBRANCH  54  57
ENDBRANCH  45  54
BRANCH  51  59
ATOM     59  S   LIG    1       16.614 -32.896  14.544  0.00  0.00    +0.110 S 
ATOM     60  O   LIG    1       15.776 -31.781  14.927  0.00  0.00    -0.142 OA
ATOM     61  O   LIG    1       17.155 -33.824  15.500  0.00  0.00    -0.142 OA
BRANCH  59  62
ATOM     62  O   LIG    1       15.775 -33.790  13.495  0.00  0.00    -0.250 OA
ATOM     63  H   LIG    1       15.136 -33.191  13.054  0.00  0.00    +0.245 HD
ENDBRANCH  59  62
ENDBRANCH  51  59
BRANCH  49  64
ATOM     64  N   LIG    1       18.471 -29.930  10.818  0.00  0.00    -0.357 N 
ATOM     65  H   LIG    1       18.724 -28.960  10.977  0.00  0.00    +0.142 HD
ATOM     66  H   LIG    1       18.810 -30.286   9.922  0.00  0.00    +0.142 HD
ENDBRANCH  49  64
BRANCH  53  67
ATOM     67  O   LIG    1       21.045 -30.095  10.253  0.00  0.00    -0.504 OA
ATOM     68  H   LIG    1       20.198 -29.661  10.457  0.00  0.00    +0.292 HD
ENDBRANCH  53  67
ENDBRANCH  43  44
ENDBRANCH   3  42
TORSDOF 17
ENDMDL
