MODEL 1
REMARK VINA RESULT:      -9.1      0.000      0.000
REMARK  Name = *****
REMARK                            x       y       z     vdW  Elec       q    Type
REMARK                         _______ _______ _______ _____ _____    ______ ____
ROOT
ATOM      1  N   LIG    1       28.168 -20.484   8.366  0.00  0.00    -0.313 NA
ATOM      2  H   LIG    1       28.346 -19.567   8.779  0.00  0.00    +0.122 HD
ENDROOT
BRANCH   1   3
ATOM      3  C   LIG    1       29.363 -20.900   7.601  0.00  0.00    +0.081 C 
BRANCH   3   4
ATOM      4  C   LIG    1       29.677 -19.949   6.437  0.00  0.00    +0.015 C 
BRANCH   4   5
ATOM      5  C   LIG    1       30.186 -18.580   6.933  0.00  0.00    +0.006 C 
BRANCH   5   6
ATOM      6  C   LIG    1       31.478 -18.650   7.763  0.00  0.00    +0.035 C 
BRANCH   6  10
ATOM      7  C   LIG    1       31.418 -16.362  11.412  0.00  0.00    +0.117 A 
ATOM      8  C   LIG    1       30.429 -17.314  11.176  0.00  0.00    +0.045 A 
ATOM      9  C   LIG    1       30.443 -18.036   9.984  0.00  0.00    +0.007 A 
ATOM     10  C   LIG    1       31.447 -17.828   9.029  0.00  0.00    -0.047 A 
ATOM     11  C   LIG    1       32.430 -16.857   9.281  0.00  0.00    +0.007 A 
ATOM     12  C   LIG    1       32.410 -16.123  10.471  0.00  0.00    +0.045 A 
BRANCH   7  13
ATOM     13  O   LIG    1       31.373 -15.686  12.594  0.00  0.00    -0.507 OA
ATOM     14  H   LIG    1       30.638 -15.051  12.556  0.00  0.00    +0.292 HD
ENDBRANCH   7  13
ENDBRANCH   6  10
ENDBRANCH   5   6
ENDBRANCH   4   5
ENDBRANCH   3   4
ENDBRANCH   1   3
BRANCH   1  15
ATOM     15  C   LIG    1       27.007 -20.388   7.442  0.00  0.00    +0.117 C 
BRANCH  15  16
ATOM     16  C   LIG    1       25.649 -20.809   8.076  0.00  0.00    +0.158 C 
BRANCH  16  17
ATOM     17  C   LIG    1       25.134 -22.126   7.505  0.00  0.00    -0.014 A 
ATOM     18  C   LIG    1       23.754 -22.314   7.297  0.00  0.00    +0.055 A 
ATOM     19  C   LIG    1       23.284 -23.509   6.759  0.00  0.00    +0.159 A 
ATOM     20  C   LIG    1       24.157 -24.543   6.437  0.00  0.00    +0.158 A 
ATOM     21  C   LIG    1       25.519 -24.392   6.647  0.00  0.00    +0.049 A 
ATOM     22  C   LIG    1       26.001 -23.188   7.178  0.00  0.00    +0.010 A 
BRANCH  19  23
ATOM     23  O   LIG    1       21.942 -23.664   6.548  0.00  0.00    -0.503 OA
ATOM     24  H   LIG    1       21.592 -23.940   7.419  0.00  0.00    +0.292 HD
ENDBRANCH  19  23
BRANCH  20  25
ATOM     25  O   LIG    1       23.623 -25.692   5.921  0.00  0.00    -0.503 OA
ATOM     26  H   LIG    1       22.865 -25.445   5.363  0.00  0.00    +0.292 HD
ENDBRANCH  20  25
ENDBRANCH  16  17
BRANCH  16  27
ATOM     27  O   LIG    1       25.807 -20.898   9.497  0.00  0.00    -0.386 OA
ATOM     28  H   LIG    1       26.767 -20.810   9.653  0.00  0.00    +0.210 HD
ENDBRANCH  16  27
ENDBRANCH  15  16
ENDBRANCH   1  15
TORSDOF 12
ENDMDL
MODEL 2
REMARK VINA RESULT:      -9.1      2.757      8.781
REMARK  Name = *****
REMARK                            x       y       z     vdW  Elec       q    Type
REMARK                         _______ _______ _______ _____ _____    ______ ____
ROOT
ATOM      1  N   LIG    1       25.378 -20.599   6.855  0.00  0.00    -0.313 NA
ATOM      2  H   LIG    1       25.034 -21.267   7.548  0.00  0.00    +0.122 HD
ENDROOT
BRANCH   1   3
ATOM      3  C   LIG    1       24.428 -20.559   5.722  0.00  0.00    +0.081 C 
BRANCH   3   4
ATOM      4  C   LIG    1       23.058 -21.153   6.080  0.00  0.00    +0.015 C 
BRANCH   4   5
ATOM      5  C   LIG    1       23.162 -22.194   7.213  0.00  0.00    +0.006 C 
BRANCH   5   6
ATOM      6  C   LIG    1       22.783 -23.624   6.793  0.00  0.00    +0.035 C 
BRANCH   6  10
ATOM      7  C   LIG    1       26.155 -26.123   5.826  0.00  0.00    +0.117 A 
ATOM      8  C   LIG    1       24.884 -26.476   5.382  0.00  0.00    +0.045 A 
ATOM      9  C   LIG    1       23.794 -25.673   5.717  0.00  0.00    +0.007 A 
ATOM     10  C   LIG    1       23.964 -24.510   6.479  0.00  0.00    -0.047 A 
ATOM     11  C   LIG    1       25.254 -24.177   6.925  0.00  0.00    +0.007 A 
ATOM     12  C   LIG    1       26.346 -24.987   6.601  0.00  0.00    +0.045 A 
BRANCH   7  13
ATOM     13  O   LIG    1       27.194 -26.929   5.469  0.00  0.00    -0.507 OA
ATOM     14  H   LIG    1       27.112 -27.768   5.954  0.00  0.00    +0.292 HD
ENDBRANCH   7  13
ENDBRANCH   6  10
ENDBRANCH   5   6
ENDBRANCH   4   5
ENDBRANCH   3   4
ENDBRANCH   1   3
BRANCH   1  15
ATOM     15  C   LIG    1       26.707 -21.047   6.360  0.00  0.00    +0.117 C 
BRANCH  15  16
ATOM     16  C   LIG    1       27.679 -21.521   7.480  0.00  0.00    +0.158 C 
BRANCH  16  17
ATOM     17  C   LIG    1       28.913 -20.629   7.582  0.00  0.00    -0.014 A 
ATOM     18  C   LIG    1       29.996 -21.012   8.395  0.00  0.00    +0.055 A 
ATOM     19  C   LIG    1       31.130 -20.209   8.475  0.00  0.00    +0.159 A 
ATOM     20  C   LIG    1       31.209 -19.009   7.776  0.00  0.00    +0.158 A 
ATOM     21  C   LIG    1       30.151 -18.599   6.980  0.00  0.00    +0.049 A 
ATOM     22  C   LIG    1       29.009 -19.407   6.886  0.00  0.00    +0.010 A 
BRANCH  19  23
ATOM     23  O   LIG    1       32.178 -20.608   9.257  0.00  0.00    -0.503 OA
ATOM     24  H   LIG    1       32.157 -19.995  10.019  0.00  0.00    +0.292 HD
ENDBRANCH  19  23
BRANCH  20  25
ATOM     25  O   LIG    1       32.350 -18.267   7.908  0.00  0.00    -0.503 OA
ATOM     26  H   LIG    1       32.287 -17.510   7.300  0.00  0.00    +0.292 HD
ENDBRANCH  20  25
ENDBRANCH  16  17
BRANCH  16  27
ATOM     27  O   LIG    1       26.972 -21.555   8.725  0.00  0.00    -0.386 OA
ATOM     28  H   LIG    1       27.607 -21.925   9.369  0.00  0.00    +0.210 HD
ENDBRANCH  16  27
ENDBRANCH  15  16
ENDBRANCH   1  15
TORSDOF 12
ENDMDL
MODEL 3
REMARK VINA RESULT:      -9.0      3.090      8.766
REMARK  Name = *****
REMARK                            x       y       z     vdW  Elec       q    Type
REMARK                         _______ _______ _______ _____ _____    ______ ____
ROOT
ATOM      1  N   LIG    1       25.518 -21.248   5.339  0.00  0.00    -0.313 NA
ATOM      2  H   LIG    1       25.962 -20.919   4.480  0.00  0.00    +0.122 HD
ENDROOT
BRANCH   1   3
ATOM      3  C   LIG    1       24.274 -20.476   5.555  0.00  0.00    +0.081 C 
BRANCH   3   4
ATOM      4  C   LIG    1       23.044 -21.379   5.729  0.00  0.00    +0.015 C 
BRANCH   4   5
ATOM      5  C   LIG    1       23.148 -22.256   6.992  0.00  0.00    +0.006 C 
BRANCH   5   6
ATOM      6  C   LIG    1       22.801 -23.737   6.763  0.00  0.00    +0.035 C 
BRANCH   6  10
ATOM      7  C   LIG    1       26.201 -26.190   5.776  0.00  0.00    +0.117 A 
ATOM      8  C   LIG    1       24.949 -26.501   5.252  0.00  0.00    +0.045 A 
ATOM      9  C   LIG    1       23.849 -25.714   5.593  0.00  0.00    +0.007 A 
ATOM     10  C   LIG    1       23.991 -24.609   6.441  0.00  0.00    -0.047 A 
ATOM     11  C   LIG    1       25.261 -24.317   6.966  0.00  0.00    +0.007 A 
ATOM     12  C   LIG    1       26.362 -25.112   6.636  0.00  0.00    +0.045 A 
BRANCH   7  13
ATOM     13  O   LIG    1       27.251 -26.978   5.410  0.00  0.00    -0.507 OA
ATOM     14  H   LIG    1       28.074 -26.487   5.574  0.00  0.00    +0.292 HD
ENDBRANCH   7  13
ENDBRANCH   6  10
ENDBRANCH   5   6
ENDBRANCH   4   5
ENDBRANCH   3   4
ENDBRANCH   1   3
BRANCH   1  15
ATOM     15  C   LIG    1       26.437 -21.019   6.486  0.00  0.00    +0.117 C 
BRANCH  15  16
ATOM     16  C   LIG    1       27.483 -19.891   6.250  0.00  0.00    +0.158 C 
BRANCH  16  17
ATOM     17  C   LIG    1       28.750 -20.102   7.074  0.00  0.00    -0.014 A 
ATOM     18  C   LIG    1       29.758 -19.120   7.084  0.00  0.00    +0.055 A 
ATOM     19  C   LIG    1       30.906 -19.303   7.849  0.00  0.00    +0.159 A 
ATOM     20  C   LIG    1       31.091 -20.461   8.598  0.00  0.00    +0.158 A 
ATOM     21  C   LIG    1       30.122 -21.452   8.594  0.00  0.00    +0.049 A 
ATOM     22  C   LIG    1       28.958 -21.271   7.834  0.00  0.00    +0.010 A 
BRANCH  19  23
ATOM     23  O   LIG    1       31.865 -18.329   7.860  0.00  0.00    -0.503 OA
ATOM     24  H   LIG    1       31.383 -17.514   7.614  0.00  0.00    +0.292 HD
ENDBRANCH  19  23
BRANCH  20  25
ATOM     25  O   LIG    1       32.247 -20.577   9.320  0.00  0.00    -0.503 OA
ATOM     26  H   LIG    1       32.344 -21.509   9.582  0.00  0.00    +0.292 HD
ENDBRANCH  20  25
ENDBRANCH  16  17
BRANCH  16  27
ATOM     27  O   LIG    1       27.790 -19.826   4.852  0.00  0.00    -0.386 OA
ATOM     28  H   LIG    1       28.389 -19.061   4.758  0.00  0.00    +0.210 HD
ENDBRANCH  16  27
ENDBRANCH  15  16
ENDBRANCH   1  15
TORSDOF 12
ENDMDL
MODEL 4
REMARK VINA RESULT:      -8.8      3.192      4.470
REMARK  Name = *****
REMARK                            x       y       z     vdW  Elec       q    Type
REMARK                         _______ _______ _______ _____ _____    ______ ____
ROOT
ATOM      1  N   LIG    1       22.810 -19.951   5.682  0.00  0.00    -0.313 NA
ATOM      2  H   LIG    1       21.920 -19.451   5.710  0.00  0.00    +0.122 HD
ENDROOT
BRANCH   1   3
ATOM      3  C   LIG    1       23.496 -19.626   4.412  0.00  0.00    +0.081 C 
BRANCH   3   4
ATOM      4  C   LIG    1       24.685 -20.556   4.130  0.00  0.00    +0.015 C 
BRANCH   4   5
ATOM      5  C   LIG    1       26.015 -19.957   4.630  0.00  0.00    +0.006 C 
BRANCH   5   6
ATOM      6  C   LIG    1       26.408 -20.389   6.052  0.00  0.00    +0.035 C 
BRANCH   6  10
ATOM      7  C   LIG    1       30.552 -19.709   7.008  0.00  0.00    +0.117 A 
ATOM      8  C   LIG    1       29.833 -20.680   7.700  0.00  0.00    +0.045 A 
ATOM      9  C   LIG    1       28.487 -20.881   7.400  0.00  0.00    +0.007 A 
ATOM     10  C   LIG    1       27.853 -20.129   6.401  0.00  0.00    -0.047 A 
ATOM     11  C   LIG    1       28.593 -19.148   5.721  0.00  0.00    +0.007 A 
ATOM     12  C   LIG    1       29.940 -18.937   6.030  0.00  0.00    +0.045 A 
BRANCH   7  13
ATOM     13  O   LIG    1       31.867 -19.552   7.326  0.00  0.00    -0.507 OA
ATOM     14  H   LIG    1       32.180 -20.368   7.751  0.00  0.00    +0.292 HD
ENDBRANCH   7  13
ENDBRANCH   6  10
ENDBRANCH   5   6
ENDBRANCH   4   5
ENDBRANCH   3   4
ENDBRANCH   1   3
BRANCH   1  15
ATOM     15  C   LIG    1       22.552 -21.415   5.734  0.00  0.00    +0.117 C 
BRANCH  15  16
ATOM     16  C   LIG    1       22.947 -22.085   7.082  0.00  0.00    +0.158 C 
BRANCH  16  17
ATOM     17  C   LIG    1       23.902 -23.258   6.880  0.00  0.00    -0.014 A 
ATOM     18  C   LIG    1       23.420 -24.484   6.383  0.00  0.00    +0.055 A 
ATOM     19  C   LIG    1       24.293 -25.549   6.182  0.00  0.00    +0.159 A 
ATOM     20  C   LIG    1       25.645 -25.434   6.484  0.00  0.00    +0.158 A 
ATOM     21  C   LIG    1       26.145 -24.244   6.991  0.00  0.00    +0.049 A 
ATOM     22  C   LIG    1       25.274 -23.164   7.187  0.00  0.00    +0.010 A 
BRANCH  19  23
ATOM     23  O   LIG    1       23.808 -26.725   5.681  0.00  0.00    -0.503 OA
ATOM     24  H   LIG    1       22.852 -26.558   5.558  0.00  0.00    +0.292 HD
ENDBRANCH  19  23
BRANCH  20  25
ATOM     25  O   LIG    1       26.443 -26.525   6.269  0.00  0.00    -0.503 OA
ATOM     26  H   LIG    1       27.183 -26.484   6.899  0.00  0.00    +0.292 HD
ENDBRANCH  20  25
ENDBRANCH  16  17
BRANCH  16  27
ATOM     27  O   LIG    1       23.530 -21.097   7.940  0.00  0.00    -0.386 OA
ATOM     28  H   LIG    1       23.221 -21.324   8.838  0.00  0.00    +0.210 HD
ENDBRANCH  16  27
ENDBRANCH  15  16
ENDBRANCH   1  15
TORSDOF 12
ENDMDL
MODEL 5
REMARK VINA RESULT:      -8.5      3.731      6.080
REMARK  Name = *****
REMARK                            x       y       z     vdW  Elec       q    Type
REMARK                         _______ _______ _______ _____ _____    ______ ____
ROOT
ATOM      1  N   LIG    1       23.198 -24.120   6.509  0.00  0.00    -0.313 NA
ATOM      2  H   LIG    1       22.920 -24.308   5.544  0.00  0.00    +0.122 HD
ENDROOT
BRANCH   1   3
ATOM      3  C   LIG    1       22.666 -22.799   6.907  0.00  0.00    +0.081 C 
BRANCH   3   4
ATOM      4  C   LIG    1       22.548 -21.830   5.722  0.00  0.00    +0.015 C 
BRANCH   4   5
ATOM      5  C   LIG    1       23.369 -20.544   5.946  0.00  0.00    +0.006 C 
BRANCH   5   6
ATOM      6  C   LIG    1       24.699 -20.502   5.175  0.00  0.00    +0.035 C 
BRANCH   6  10
ATOM      7  C   LIG    1       28.185 -20.178   7.684  0.00  0.00    +0.117 A 
ATOM      8  C   LIG    1       28.301 -19.983   6.311  0.00  0.00    +0.045 A 
ATOM      9  C   LIG    1       27.172 -20.109   5.502  0.00  0.00    +0.007 A 
ATOM     10  C   LIG    1       25.922 -20.415   6.055  0.00  0.00    -0.047 A 
ATOM     11  C   LIG    1       25.827 -20.617   7.442  0.00  0.00    +0.007 A 
ATOM     12  C   LIG    1       26.960 -20.503   8.253  0.00  0.00    +0.045 A 
BRANCH   7  13
ATOM     13  O   LIG    1       29.310 -20.035   8.439  0.00  0.00    -0.507 OA
ATOM     14  H   LIG    1       29.901 -20.784   8.253  0.00  0.00    +0.292 HD
ENDBRANCH   7  13
ENDBRANCH   6  10
ENDBRANCH   5   6
ENDBRANCH   4   5
ENDBRANCH   3   4
ENDBRANCH   1   3
BRANCH   1  15
ATOM     15  C   LIG    1       24.683 -24.093   6.594  0.00  0.00    +0.117 C 
BRANCH  15  16
ATOM     16  C   LIG    1       25.394 -25.132   5.680  0.00  0.00    +0.158 C 
BRANCH  16  17
ATOM     17  C   LIG    1       25.222 -26.559   6.192  0.00  0.00    -0.014 A 
ATOM     18  C   LIG    1       24.286 -27.418   5.587  0.00  0.00    +0.055 A 
ATOM     19  C   LIG    1       24.140 -28.726   6.042  0.00  0.00    +0.159 A 
ATOM     20  C   LIG    1       24.895 -29.202   7.108  0.00  0.00    +0.158 A 
ATOM     21  C   LIG    1       25.814 -28.373   7.733  0.00  0.00    +0.049 A 
ATOM     22  C   LIG    1       25.973 -27.058   7.275  0.00  0.00    +0.010 A 
BRANCH  19  23
ATOM     23  O   LIG    1       23.238 -29.550   5.429  0.00  0.00    -0.503 OA
ATOM     24  H   LIG    1       23.769 -30.042   4.771  0.00  0.00    +0.292 HD
ENDBRANCH  19  23
BRANCH  20  25
ATOM     25  O   LIG    1       24.694 -30.496   7.506  0.00  0.00    -0.503 OA
ATOM     26  H   LIG    1       25.170 -31.077   6.888  0.00  0.00    +0.292 HD
ENDBRANCH  20  25
ENDBRANCH  16  17
BRANCH  16  27
ATOM     27  O   LIG    1       24.884 -25.005   4.348  0.00  0.00    -0.386 OA
ATOM     28  H   LIG    1       25.555 -24.484   3.866  0.00  0.00    +0.210 HD
ENDBRANCH  16  27
ENDBRANCH  15  16
ENDBRANCH   1  15
TORSDOF 12
ENDMDL
MODEL 6
REMARK VINA RESULT:      -8.5      2.977      8.379
REMARK  Name = *****
REMARK                            x       y       z     vdW  Elec       q    Type
REMARK                         _______ _______ _______ _____ _____    ______ ____
ROOT
ATOM      1  N   LIG    1       26.930 -20.897   8.466  0.00  0.00    -0.313 NA
ATOM      2  H   LIG    1       27.804 -21.400   8.630  0.00  0.00    +0.122 HD
ENDROOT
BRANCH   1   3
ATOM      3  C   LIG    1       25.812 -21.866   8.499  0.00  0.00    +0.081 C 
BRANCH   3   4
ATOM      4  C   LIG    1       26.040 -23.060   7.561  0.00  0.00    +0.015 C 
BRANCH   4   5
ATOM      5  C   LIG    1       24.777 -23.398   6.743  0.00  0.00    +0.006 C 
BRANCH   5   6
ATOM      6  C   LIG    1       24.823 -22.916   5.283  0.00  0.00    +0.035 C 
BRANCH   6  10
ATOM      7  C   LIG    1       22.963 -19.096   4.577  0.00  0.00    +0.117 A 
ATOM      8  C   LIG    1       24.005 -19.520   3.756  0.00  0.00    +0.045 A 
ATOM      9  C   LIG    1       24.616 -20.749   4.004  0.00  0.00    +0.007 A 
ATOM     10  C   LIG    1       24.185 -21.567   5.056  0.00  0.00    -0.047 A 
ATOM     11  C   LIG    1       23.139 -21.117   5.878  0.00  0.00    +0.007 A 
ATOM     12  C   LIG    1       22.534 -19.880   5.639  0.00  0.00    +0.045 A 
BRANCH   7  13
ATOM     13  O   LIG    1       22.388 -17.894   4.295  0.00  0.00    -0.507 OA
ATOM     14  H   LIG    1       21.428 -17.976   4.425  0.00  0.00    +0.292 HD
ENDBRANCH   7  13
ENDBRANCH   6  10
ENDBRANCH   5   6
ENDBRANCH   4   5
ENDBRANCH   3   4
ENDBRANCH   1   3
BRANCH   1  15
ATOM     15  C   LIG    1       26.977 -20.254   7.126  0.00  0.00    +0.117 C 
BRANCH  15  16
ATOM     16  C   LIG    1       28.399 -20.194   6.497  0.00  0.00    +0.158 C 
BRANCH  16  17
ATOM     17  C   LIG    1       29.437 -19.654   7.476  0.00  0.00    -0.014 A 
ATOM     18  C   LIG    1       30.410 -20.514   8.019  0.00  0.00    +0.055 A 
ATOM     19  C   LIG    1       31.368 -20.019   8.899  0.00  0.00    +0.159 A 
ATOM     20  C   LIG    1       31.373 -18.680   9.274  0.00  0.00    +0.158 A 
ATOM     21  C   LIG    1       30.417 -17.813   8.768  0.00  0.00    +0.049 A 
ATOM     22  C   LIG    1       29.454 -18.302   7.874  0.00  0.00    +0.010 A 
BRANCH  19  23
ATOM     23  O   LIG    1       32.316 -20.866   9.401  0.00  0.00    -0.503 OA
ATOM     24  H   LIG    1       31.806 -21.511   9.932  0.00  0.00    +0.292 HD
ENDBRANCH  19  23
BRANCH  20  25
ATOM     25  O   LIG    1       32.340 -18.265  10.149  0.00  0.00    -0.503 OA
ATOM     26  H   LIG    1       31.945 -17.597  10.736  0.00  0.00    +0.292 HD
ENDBRANCH  20  25
ENDBRANCH  16  17
BRANCH  16  27
ATOM     27  O   LIG    1       28.762 -21.503   6.042  0.00  0.00    -0.386 OA
ATOM     28  H   LIG    1       27.916 -21.950   5.847  0.00  0.00    +0.210 HD
ENDBRANCH  16  27
ENDBRANCH  15  16
ENDBRANCH   1  15
TORSDOF 12
ENDMDL
MODEL 7
REMARK VINA RESULT:      -8.4      4.006      9.187
REMARK  Name = *****
REMARK                            x       y       z     vdW  Elec       q    Type
REMARK                         _______ _______ _______ _____ _____    ______ ____
ROOT
ATOM      1  N   LIG    1       22.370 -22.442   5.715  0.00  0.00    -0.313 NA
ATOM      2  H   LIG    1       21.350 -22.462   5.660  0.00  0.00    +0.122 HD
ENDROOT
BRANCH   1   3
ATOM      3  C   LIG    1       22.793 -23.159   6.938  0.00  0.00    +0.081 C 
BRANCH   3   4
ATOM      4  C   LIG    1       23.544 -24.462   6.628  0.00  0.00    +0.015 C 
BRANCH   4   5
ATOM      5  C   LIG    1       25.073 -24.263   6.647  0.00  0.00    +0.006 C 
BRANCH   5   6
ATOM      6  C   LIG    1       25.862 -25.362   5.915  0.00  0.00    +0.035 C 
BRANCH   6  10
ATOM      7  C   LIG    1       24.474 -29.338   6.819  0.00  0.00    +0.117 A 
ATOM      8  C   LIG    1       25.301 -28.672   7.721  0.00  0.00    +0.045 A 
ATOM      9  C   LIG    1       25.763 -27.393   7.412  0.00  0.00    +0.007 A 
ATOM     10  C   LIG    1       25.394 -26.765   6.216  0.00  0.00    -0.047 A 
ATOM     11  C   LIG    1       24.567 -27.457   5.315  0.00  0.00    +0.007 A 
ATOM     12  C   LIG    1       24.113 -28.744   5.618  0.00  0.00    +0.045 A 
BRANCH   7  13
ATOM     13  O   LIG    1       24.037 -30.581   7.164  0.00  0.00    -0.507 OA
ATOM     14  H   LIG    1       24.359 -31.214   6.501  0.00  0.00    +0.292 HD
ENDBRANCH   7  13
ENDBRANCH   6  10
ENDBRANCH   5   6
ENDBRANCH   4   5
ENDBRANCH   3   4
ENDBRANCH   1   3
BRANCH   1  15
ATOM     15  C   LIG    1       22.829 -21.030   5.795  0.00  0.00    +0.117 C 
BRANCH  15  16
ATOM     16  C   LIG    1       24.129 -20.735   4.992  0.00  0.00    +0.158 C 
BRANCH  16  17
ATOM     17  C   LIG    1       25.339 -20.559   5.905  0.00  0.00    -0.014 A 
ATOM     18  C   LIG    1       25.185 -20.622   7.302  0.00  0.00    +0.055 A 
ATOM     19  C   LIG    1       26.291 -20.480   8.136  0.00  0.00    +0.159 A 
ATOM     20  C   LIG    1       27.558 -20.253   7.612  0.00  0.00    +0.158 A 
ATOM     21  C   LIG    1       27.738 -20.171   6.239  0.00  0.00    +0.049 A 
ATOM     22  C   LIG    1       26.631 -20.323   5.393  0.00  0.00    +0.010 A 
BRANCH  19  23
ATOM     23  O   LIG    1       26.122 -20.562   9.490  0.00  0.00    -0.503 OA
ATOM     24  H   LIG    1       26.965 -20.232   9.858  0.00  0.00    +0.292 HD
ENDBRANCH  19  23
BRANCH  20  25
ATOM     25  O   LIG    1       28.598 -20.115   8.491  0.00  0.00    -0.503 OA
ATOM     26  H   LIG    1       28.921 -19.199   8.430  0.00  0.00    +0.292 HD
ENDBRANCH  20  25
ENDBRANCH  16  17
BRANCH  16  27
ATOM     27  O   LIG    1       24.349 -21.796   4.056  0.00  0.00    -0.386 OA
ATOM     28  H   LIG    1       23.670 -22.466   4.265  0.00  0.00    +0.210 HD
ENDBRANCH  16  27
ENDBRANCH  15  16
ENDBRANCH   1  15
TORSDOF 12
ENDMDL
MODEL 8
REMARK VINA RESULT:      -8.3      1.951      2.436
REMARK  Name = *****
REMARK                            x       y       z     vdW  Elec       q    Type
REMARK                         _______ _______ _______ _____ _____    ______ ____
ROOT
ATOM      1  N   LIG    1       29.505 -21.333   7.202  0.00  0.00    -0.313 NA
ATOM      2  H   LIG    1       29.936 -21.949   6.510  0.00  0.00    +0.122 HD
ENDROOT
BRANCH   1   3
ATOM      3  C   LIG    1       30.174 -21.541   8.505  0.00  0.00    +0.081 C 
BRANCH   3   4
ATOM      4  C   LIG    1       31.234 -20.469   8.800  0.00  0.00    +0.015 C 
BRANCH   4   5
ATOM      5  C   LIG    1       31.153 -19.292   7.808  0.00  0.00    +0.006 C 
BRANCH   5   6
ATOM      6  C   LIG    1       30.364 -18.079   8.329  0.00  0.00    +0.035 C 
BRANCH   6  10
ATOM      7  C   LIG    1       32.398 -15.930  11.458  0.00  0.00    +0.117 A 
ATOM      8  C   LIG    1       31.218 -16.613  11.743  0.00  0.00    +0.045 A 
ATOM      9  C   LIG    1       30.554 -17.289  10.720  0.00  0.00    +0.007 A 
ATOM     10  C   LIG    1       31.066 -17.303   9.416  0.00  0.00    -0.047 A 
ATOM     11  C   LIG    1       32.253 -16.601   9.148  0.00  0.00    +0.007 A 
ATOM     12  C   LIG    1       32.913 -15.912  10.169  0.00  0.00    +0.045 A 
BRANCH   7  13
ATOM     13  O   LIG    1       33.021 -15.291  12.488  0.00  0.00    -0.507 OA
ATOM     14  H   LIG    1       32.833 -15.776  13.308  0.00  0.00    +0.292 HD
ENDBRANCH   7  13
ENDBRANCH   6  10
ENDBRANCH   5   6
ENDBRANCH   4   5
ENDBRANCH   3   4
ENDBRANCH   1   3
BRANCH   1  15
ATOM     15  C   LIG    1       28.064 -21.678   7.335  0.00  0.00    +0.117 C 
BRANCH  15  16
ATOM     16  C   LIG    1       27.122 -20.445   7.456  0.00  0.00    +0.158 C 
BRANCH  16  17
ATOM     17  C   LIG    1       25.755 -20.705   6.828  0.00  0.00    -0.014 A 
ATOM     18  C   LIG    1       25.564 -20.507   5.447  0.00  0.00    +0.055 A 
ATOM     19  C   LIG    1       24.323 -20.761   4.870  0.00  0.00    +0.159 A 
ATOM     20  C   LIG    1       23.249 -21.192   5.640  0.00  0.00    +0.158 A 
ATOM     21  C   LIG    1       23.404 -21.380   7.005  0.00  0.00    +0.049 A 
ATOM     22  C   LIG    1       24.653 -21.136   7.593  0.00  0.00    +0.010 A 
BRANCH  19  23
ATOM     23  O   LIG    1       24.163 -20.580   3.524  0.00  0.00    -0.503 OA
ATOM     24  H   LIG    1       24.344 -21.460   3.139  0.00  0.00    +0.292 HD
ENDBRANCH  19  23
BRANCH  20  25
ATOM     25  O   LIG    1       22.056 -21.414   5.006  0.00  0.00    -0.503 OA
ATOM     26  H   LIG    1       21.942 -20.721   4.332  0.00  0.00    +0.292 HD
ENDBRANCH  20  25
ENDBRANCH  16  17
BRANCH  16  27
ATOM     27  O   LIG    1       26.987 -20.097   8.839  0.00  0.00    -0.386 OA
ATOM     28  H   LIG    1       27.783 -20.460   9.272  0.00  0.00    +0.210 HD
ENDBRANCH  16  27
ENDBRANCH  15  16
ENDBRANCH   1  15
TORSDOF 12
ENDMDL
MODEL 9
REMARK VINA RESULT:      -8.3      2.930      4.957
REMARK  Name = *****
REMARK                            x       y       z     vdW  Elec       q    Type
REMARK                         _______ _______ _______ _____ _____    ______ ____
ROOT
ATOM      1  N   LIG    1       24.352 -23.377   6.766  0.00  0.00    -0.313 NA
ATOM      2  H   LIG    1       23.650 -23.834   6.181  0.00  0.00    +0.122 HD
ENDROOT
BRANCH   1   3
ATOM      3  C   LIG    1       24.580 -22.009   6.251  0.00  0.00    +0.081 C 
BRANCH   3   4
ATOM      4  C   LIG    1       24.578 -20.953   7.365  0.00  0.00    +0.015 C 
BRANCH   4   5
ATOM      5  C   LIG    1       25.979 -20.762   7.980  0.00  0.00    +0.006 C 
BRANCH   5   6
ATOM      6  C   LIG    1       27.092 -20.514   6.950  0.00  0.00    +0.035 C 
BRANCH   6  10
ATOM      7  C   LIG    1       30.993 -20.098   8.728  0.00  0.00    +0.117 A 
ATOM      8  C   LIG    1       30.260 -18.962   8.397  0.00  0.00    +0.045 A 
ATOM      9  C   LIG    1       29.007 -19.104   7.803  0.00  0.00    +0.007 A 
ATOM     10  C   LIG    1       28.471 -20.373   7.549  0.00  0.00    -0.047 A 
ATOM     11  C   LIG    1       29.230 -21.507   7.882  0.00  0.00    +0.007 A 
ATOM     12  C   LIG    1       30.492 -21.366   8.466  0.00  0.00    +0.045 A 
BRANCH   7  13
ATOM     13  O   LIG    1       32.209 -19.915   9.315  0.00  0.00    -0.507 OA
ATOM     14  H   LIG    1       32.147 -19.155   9.918  0.00  0.00    +0.292 HD
ENDBRANCH   7  13
ENDBRANCH   6  10
ENDBRANCH   5   6
ENDBRANCH   4   5
ENDBRANCH   3   4
ENDBRANCH   1   3
BRANCH   1  15
ATOM     15  C   LIG    1       25.625 -24.143   6.694  0.00  0.00    +0.117 C 
BRANCH  15  16
ATOM     16  C   LIG    1       25.644 -25.248   5.598  0.00  0.00    +0.158 C 
BRANCH  16  17
ATOM     17  C   LIG    1       25.346 -26.630   6.173  0.00  0.00    -0.014 A 
ATOM     18  C   LIG    1       24.389 -27.459   5.558  0.00  0.00    +0.055 A 
ATOM     19  C   LIG    1       24.129 -28.727   6.070  0.00  0.00    +0.159 A 
ATOM     20  C   LIG    1       24.788 -29.191   7.204  0.00  0.00    +0.158 A 
ATOM     21  C   LIG    1       25.723 -28.389   7.840  0.00  0.00    +0.049 A 
ATOM     22  C   LIG    1       25.998 -27.115   7.324  0.00  0.00    +0.010 A 
BRANCH  19  23
ATOM     23  O   LIG    1       23.209 -29.524   5.448  0.00  0.00    -0.503 OA
ATOM     24  H   LIG    1       22.998 -29.046   4.621  0.00  0.00    +0.292 HD
ENDBRANCH  19  23
BRANCH  20  25
ATOM     25  O   LIG    1       24.476 -30.444   7.656  0.00  0.00    -0.503 OA
ATOM     26  H   LIG    1       23.804 -30.818   7.061  0.00  0.00    +0.292 HD
ENDBRANCH  20  25
ENDBRANCH  16  17
BRANCH  16  27
ATOM     27  O   LIG    1       24.698 -24.907   4.577  0.00  0.00    -0.386 OA
ATOM     28  H   LIG    1       25.133 -25.146   3.736  0.00  0.00    +0.210 HD
ENDBRANCH  16  27
ENDBRANCH  15  16
ENDBRANCH   1  15
TORSDOF 12
ENDMDL
