MODEL 1
REMARK VINA RESULT:      -5.9      0.000      0.000
REMARK  Name = *****
REMARK                            x       y       z     vdW  Elec       q    Type
REMARK                         _______ _______ _______ _____ _____    ______ ____
ROOT
ATOM      1  C   LIG    1       25.322 -18.106   3.407  0.00  0.00    +0.005 C 
ATOM      2  C   LIG    1       26.166 -17.101   3.688  0.00  0.00    +0.006 C 
ENDROOT
BRANCH   2   3
ATOM      3  C   LIG    1       25.925 -15.677   3.393  0.00  0.00    -0.022 A 
ATOM      4  C   LIG    1       24.728 -15.025   3.727  0.00  0.00    +0.057 A 
ATOM      5  C   LIG    1       24.589 -13.696   3.373  0.00  0.00    +0.167 A 
ATOM      6  O   LIG    1       23.497 -12.921   3.616  0.00  0.00    -0.453 OA
ATOM      7  C   LIG    1       23.909 -11.677   3.009  0.00  0.00    +0.466 C 
ATOM      8  O   LIG    1       25.235 -11.724   2.444  0.00  0.00    -0.453 OA
ATOM      9  C   LIG    1       25.576 -13.014   2.704  0.00  0.00    +0.166 A 
ATOM     10  C   LIG    1       26.761 -13.619   2.352  0.00  0.00    +0.050 A 
ATOM     11  C   LIG    1       26.929 -14.965   2.697  0.00  0.00    +0.012 A 
ENDBRANCH   2   3
BRANCH   1  12
ATOM     12  C   LIG    1       25.523 -19.573   3.728  0.00  0.00    +0.143 C 
BRANCH  12  14
ATOM     13  C   LIG    1       23.097 -19.339   4.509  0.00  0.00    +0.013 C 
ATOM     14  C   LIG    1       24.340 -20.251   4.501  0.00  0.00    -0.008 C 
ATOM     15  C   LIG    1       23.953 -21.570   3.799  0.00  0.00    +0.013 C 
ATOM     16  C   LIG    1       24.720 -20.580   5.959  0.00  0.00    +0.013 C 
ENDBRANCH  12  14
BRANCH  12  17
ATOM     17  O   LIG    1       26.744 -19.748   4.447  0.00  0.00    -0.387 OA
ATOM     18  H   LIG    1       27.466 -19.729   3.798  0.00  0.00    +0.210 HD
ENDBRANCH  12  17
ENDBRANCH   1  12
TORSDOF 4
ENDMDL
MODEL 2
REMARK VINA RESULT:      -5.8      2.097      6.731
REMARK  Name = *****
REMARK                            x       y       z     vdW  Elec       q    Type
REMARK                         _______ _______ _______ _____ _____    ______ ____
ROOT
ATOM      1  C   LIG    1       26.319 -16.031   3.699  0.00  0.00    +0.005 C 
ATOM      2  C   LIG    1       26.132 -17.214   3.093  0.00  0.00    +0.006 C 
ENDROOT
BRANCH   2   3
ATOM      3  C   LIG    1       25.400 -18.359   3.664  0.00  0.00    -0.022 A 
ATOM      4  C   LIG    1       24.000 -18.412   3.726  0.00  0.00    +0.057 A 
ATOM      5  C   LIG    1       23.414 -19.515   4.317  0.00  0.00    +0.167 A 
ATOM      6  O   LIG    1       22.076 -19.721   4.461  0.00  0.00    -0.453 OA
ATOM      7  C   LIG    1       22.072 -20.988   5.154  0.00  0.00    +0.466 C 
ATOM      8  O   LIG    1       23.391 -21.523   5.383  0.00  0.00    -0.453 OA
ATOM      9  C   LIG    1       24.160 -20.541   4.843  0.00  0.00    +0.166 A 
ATOM     10  C   LIG    1       25.536 -20.524   4.809  0.00  0.00    +0.050 A 
ATOM     11  C   LIG    1       26.156 -19.418   4.219  0.00  0.00    +0.012 A 
ENDBRANCH   2   3
BRANCH   1  12
ATOM     12  C   LIG    1       27.033 -14.824   3.126  0.00  0.00    +0.143 C 
BRANCH  12  14
ATOM     13  C   LIG    1       28.350 -12.788   3.946  0.00  0.00    +0.013 C 
ATOM     14  C   LIG    1       27.011 -13.548   4.035  0.00  0.00    -0.008 C 
ATOM     15  C   LIG    1       25.894 -12.594   3.559  0.00  0.00    +0.013 C 
ATOM     16  C   LIG    1       26.741 -13.899   5.513  0.00  0.00    +0.013 C 
ENDBRANCH  12  14
BRANCH  12  17
ATOM     17  O   LIG    1       26.505 -14.518   1.835  0.00  0.00    -0.387 OA
ATOM     18  H   LIG    1       25.633 -14.112   1.968  0.00  0.00    +0.210 HD
ENDBRANCH  12  17
ENDBRANCH   1  12
TORSDOF 4
ENDMDL
MODEL 3
REMARK VINA RESULT:      -5.3      1.887      6.686
REMARK  Name = *****
REMARK                            x       y       z     vdW  Elec       q    Type
REMARK                         _______ _______ _______ _____ _____    ______ ____
ROOT
ATOM      1  C   LIG    1       25.653 -15.593   3.700  0.00  0.00    +0.005 C 
ATOM      2  C   LIG    1       25.719 -16.779   3.075  0.00  0.00    +0.006 C 
ENDROOT
BRANCH   2   3
ATOM      3  C   LIG    1       25.184 -18.049   3.598  0.00  0.00    -0.022 A 
ATOM      4  C   LIG    1       23.816 -18.259   3.830  0.00  0.00    +0.057 A 
ATOM      5  C   LIG    1       23.423 -19.474   4.358  0.00  0.00    +0.167 A 
ATOM      6  O   LIG    1       22.144 -19.838   4.645  0.00  0.00    -0.453 OA
ATOM      7  C   LIG    1       22.354 -21.162   5.182  0.00  0.00    +0.466 C 
ATOM      8  O   LIG    1       23.737 -21.571   5.180  0.00  0.00    -0.453 OA
ATOM      9  C   LIG    1       24.328 -20.462   4.664  0.00  0.00    +0.166 A 
ATOM     10  C   LIG    1       25.679 -20.292   4.459  0.00  0.00    +0.050 A 
ATOM     11  C   LIG    1       26.105 -19.071   3.927  0.00  0.00    +0.012 A 
ENDBRANCH   2   3
BRANCH   1  12
ATOM     12  C   LIG    1       26.159 -14.265   3.175  0.00  0.00    +0.143 C 
BRANCH  12  14
ATOM     13  C   LIG    1       25.503 -11.957   2.282  0.00  0.00    +0.013 C 
ATOM     14  C   LIG    1       25.139 -13.080   3.276  0.00  0.00    -0.008 C 
ATOM     15  C   LIG    1       23.723 -13.584   2.921  0.00  0.00    +0.013 C 
ATOM     16  C   LIG    1       25.090 -12.483   4.697  0.00  0.00    +0.013 C 
ENDBRANCH  12  14
BRANCH  12  17
ATOM     17  O   LIG    1       26.605 -14.416   1.827  0.00  0.00    -0.387 OA
ATOM     18  H   LIG    1       27.570 -14.519   1.852  0.00  0.00    +0.210 HD
ENDBRANCH  12  17
ENDBRANCH   1  12
TORSDOF 4
ENDMDL
MODEL 4
REMARK VINA RESULT:      -5.1      2.160      2.970
REMARK  Name = *****
REMARK                            x       y       z     vdW  Elec       q    Type
REMARK                         _______ _______ _______ _____ _____    ______ ____
ROOT
ATOM      1  C   LIG    1       23.112 -17.532   4.271  0.00  0.00    +0.005 C 
ATOM      2  C   LIG    1       23.016 -16.200   4.406  0.00  0.00    +0.006 C 
ENDROOT
BRANCH   2   3
ATOM      3  C   LIG    1       24.033 -15.223   3.976  0.00  0.00    -0.022 A 
ATOM      4  C   LIG    1       25.401 -15.530   3.911  0.00  0.00    +0.057 A 
ATOM      5  C   LIG    1       26.276 -14.530   3.530  0.00  0.00    +0.167 A 
ATOM      6  O   LIG    1       27.626 -14.658   3.420  0.00  0.00    -0.453 OA
ATOM      7  C   LIG    1       27.993 -13.318   3.028  0.00  0.00    +0.466 C 
ATOM      8  O   LIG    1       26.864 -12.431   2.886  0.00  0.00    -0.453 OA
ATOM      9  C   LIG    1       25.844 -13.262   3.227  0.00  0.00    +0.166 A 
ATOM     10  C   LIG    1       24.513 -12.919   3.286  0.00  0.00    +0.050 A 
ATOM     11  C   LIG    1       23.604 -13.911   3.670  0.00  0.00    +0.012 A 
ENDBRANCH   2   3
BRANCH   1  12
ATOM     12  C   LIG    1       22.072 -18.559   4.669  0.00  0.00    +0.143 C 
BRANCH  12  14
ATOM     13  C   LIG    1       21.541 -21.062   4.622  0.00  0.00    +0.013 C 
ATOM     14  C   LIG    1       22.626 -20.004   4.909  0.00  0.00    -0.008 C 
ATOM     15  C   LIG    1       23.809 -20.271   3.954  0.00  0.00    +0.013 C 
ATOM     16  C   LIG    1       23.128 -20.194   6.355  0.00  0.00    +0.013 C 
ENDBRANCH  12  14
BRANCH  12  17
ATOM     17  O   LIG    1       21.025 -18.588   3.698  0.00  0.00    -0.387 OA
ATOM     18  H   LIG    1       21.443 -18.658   2.824  0.00  0.00    +0.210 HD
ENDBRANCH  12  17
ENDBRANCH   1  12
TORSDOF 4
ENDMDL
MODEL 5
REMARK VINA RESULT:      -4.8      1.622      2.580
REMARK  Name = *****
REMARK                            x       y       z     vdW  Elec       q    Type
REMARK                         _______ _______ _______ _____ _____    ______ ____
ROOT
ATOM      1  C   LIG    1       24.561 -18.381   3.721  0.00  0.00    +0.005 C 
ATOM      2  C   LIG    1       25.785 -17.852   3.562  0.00  0.00    +0.006 C 
ENDROOT
BRANCH   2   3
ATOM      3  C   LIG    1       26.088 -16.412   3.486  0.00  0.00    -0.022 A 
ATOM      4  C   LIG    1       27.385 -15.899   3.642  0.00  0.00    +0.057 A 
ATOM      5  C   LIG    1       27.555 -14.529   3.590  0.00  0.00    +0.167 A 
ATOM      6  O   LIG    1       28.738 -13.871   3.726  0.00  0.00    -0.453 OA
ATOM      7  C   LIG    1       28.299 -12.500   3.614  0.00  0.00    +0.466 C 
ATOM      8  O   LIG    1       26.881 -12.367   3.389  0.00  0.00    -0.453 OA
ATOM      9  C   LIG    1       26.499 -13.671   3.400  0.00  0.00    +0.166 A 
ATOM     10  C   LIG    1       25.212 -14.133   3.249  0.00  0.00    +0.050 A 
ATOM     11  C   LIG    1       25.009 -15.517   3.300  0.00  0.00    +0.012 A 
ENDBRANCH   2   3
BRANCH   1  12
ATOM     12  C   LIG    1       24.220 -19.852   3.839  0.00  0.00    +0.143 C 
BRANCH  12  14
ATOM     13  C   LIG    1       23.906 -20.561   6.278  0.00  0.00    +0.013 C 
ATOM     14  C   LIG    1       23.186 -20.205   4.962  0.00  0.00    -0.008 C 
ATOM     15  C   LIG    1       22.282 -18.983   5.235  0.00  0.00    +0.013 C 
ATOM     16  C   LIG    1       22.281 -21.387   4.560  0.00  0.00    +0.013 C 
ENDBRANCH  12  14
BRANCH  12  17
ATOM     17  O   LIG    1       25.415 -20.614   4.015  0.00  0.00    -0.387 OA
ATOM     18  H   LIG    1       25.482 -20.834   4.958  0.00  0.00    +0.210 HD
ENDBRANCH  12  17
ENDBRANCH   1  12
TORSDOF 4
ENDMDL
MODEL 6
REMARK VINA RESULT:      -4.5      1.959      2.476
REMARK  Name = *****
REMARK                            x       y       z     vdW  Elec       q    Type
REMARK                         _______ _______ _______ _____ _____    ______ ____
ROOT
ATOM      1  C   LIG    1       22.860 -17.607   4.096  0.00  0.00    +0.005 C 
ATOM      2  C   LIG    1       23.089 -16.397   4.630  0.00  0.00    +0.006 C 
ENDROOT
BRANCH   2   3
ATOM      3  C   LIG    1       23.906 -15.335   4.015  0.00  0.00    -0.022 A 
ATOM      4  C   LIG    1       23.392 -14.069   3.697  0.00  0.00    +0.057 A 
ATOM      5  C   LIG    1       24.233 -13.157   3.088  0.00  0.00    +0.167 A 
ATOM      6  O   LIG    1       23.896 -11.894   2.712  0.00  0.00    -0.453 OA
ATOM      7  C   LIG    1       25.136 -11.447   2.123  0.00  0.00    +0.466 C 
ATOM      8  O   LIG    1       26.188 -12.431   2.182  0.00  0.00    -0.453 OA
ATOM      9  C   LIG    1       25.538 -13.461   2.784  0.00  0.00    +0.166 A 
ATOM     10  C   LIG    1       26.078 -14.694   3.072  0.00  0.00    +0.050 A 
ATOM     11  C   LIG    1       25.248 -15.638   3.688  0.00  0.00    +0.012 A 
ENDBRANCH   2   3
BRANCH   1  12
ATOM     12  C   LIG    1       21.997 -18.706   4.684  0.00  0.00    +0.143 C 
BRANCH  12  14
ATOM     13  C   LIG    1       23.197 -20.071   6.486  0.00  0.00    +0.013 C 
ATOM     14  C   LIG    1       22.753 -20.039   5.009  0.00  0.00    -0.008 C 
ATOM     15  C   LIG    1       21.810 -21.239   4.774  0.00  0.00    +0.013 C 
ATOM     16  C   LIG    1       23.997 -20.227   4.117  0.00  0.00    +0.013 C 
ENDBRANCH  12  14
BRANCH  12  17
ATOM     17  O   LIG    1       20.891 -18.966   3.820  0.00  0.00    -0.387 OA
ATOM     18  H   LIG    1       20.229 -18.274   3.982  0.00  0.00    +0.210 HD
ENDBRANCH  12  17
ENDBRANCH   1  12
TORSDOF 4
ENDMDL
MODEL 7
REMARK VINA RESULT:      -3.9      1.523      2.093
REMARK  Name = *****
REMARK                            x       y       z     vdW  Elec       q    Type
REMARK                         _______ _______ _______ _____ _____    ______ ____
ROOT
ATOM      1  C   LIG    1       25.003 -19.195   4.091  0.00  0.00    +0.005 C 
ATOM      2  C   LIG    1       24.616 -17.976   3.683  0.00  0.00    +0.006 C 
ENDROOT
BRANCH   2   3
ATOM      3  C   LIG    1       25.484 -16.788   3.605  0.00  0.00    -0.022 A 
ATOM      4  C   LIG    1       24.992 -15.503   3.329  0.00  0.00    +0.057 A 
ATOM      5  C   LIG    1       25.896 -14.462   3.241  0.00  0.00    +0.167 A 
ATOM      6  O   LIG    1       25.588 -13.163   2.979  0.00  0.00    -0.453 OA
ATOM      7  C   LIG    1       26.903 -12.567   2.983  0.00  0.00    +0.466 C 
ATOM      8  O   LIG    1       27.959 -13.506   3.273  0.00  0.00    -0.453 OA
ATOM      9  C   LIG    1       27.246 -14.656   3.407  0.00  0.00    +0.166 A 
ATOM     10  C   LIG    1       27.770 -15.900   3.672  0.00  0.00    +0.050 A 
ATOM     11  C   LIG    1       26.877 -16.974   3.764  0.00  0.00    +0.012 A 
ENDBRANCH   2   3
BRANCH   1  12
ATOM     12  C   LIG    1       24.146 -20.444   4.148  0.00  0.00    +0.143 C 
BRANCH  12  14
ATOM     13  C   LIG    1       22.138 -19.048   4.902  0.00  0.00    +0.013 C 
ATOM     14  C   LIG    1       22.918 -20.361   5.116  0.00  0.00    -0.008 C 
ATOM     15  C   LIG    1       21.954 -21.533   4.832  0.00  0.00    +0.013 C 
ATOM     16  C   LIG    1       23.346 -20.444   6.596  0.00  0.00    +0.013 C 
ENDBRANCH  12  14
BRANCH  12  17
ATOM     17  O   LIG    1       24.957 -21.572   4.478  0.00  0.00    -0.387 OA
ATOM     18  H   LIG    1       24.478 -22.087   5.147  0.00  0.00    +0.210 HD
ENDBRANCH  12  17
ENDBRANCH   1  12
TORSDOF 4
ENDMDL
MODEL 8
REMARK VINA RESULT:      -3.8      2.105      6.801
REMARK  Name = *****
REMARK                            x       y       z     vdW  Elec       q    Type
REMARK                         _______ _______ _______ _____ _____    ______ ____
ROOT
ATOM      1  C   LIG    1       25.273 -15.274   3.644  0.00  0.00    +0.005 C 
ATOM      2  C   LIG    1       25.276 -16.562   3.267  0.00  0.00    +0.006 C 
ENDROOT
BRANCH   2   3
ATOM      3  C   LIG    1       24.352 -17.598   3.765  0.00  0.00    -0.022 A 
ATOM      4  C   LIG    1       24.742 -18.931   3.965  0.00  0.00    +0.057 A 
ATOM      5  C   LIG    1       23.788 -19.831   4.399  0.00  0.00    +0.167 A 
ATOM      6  O   LIG    1       23.997 -21.155   4.637  0.00  0.00    -0.453 OA
ATOM      7  C   LIG    1       22.670 -21.571   5.028  0.00  0.00    +0.466 C 
ATOM      8  O   LIG    1       21.711 -20.495   5.043  0.00  0.00    -0.453 OA
ATOM      9  C   LIG    1       22.486 -19.458   4.629  0.00  0.00    +0.166 A 
ATOM     10  C   LIG    1       22.062 -18.162   4.439  0.00  0.00    +0.050 A 
ATOM     11  C   LIG    1       23.007 -17.229   3.997  0.00  0.00    +0.012 A 
ENDBRANCH   2   3
BRANCH   1  12
ATOM     12  C   LIG    1       26.183 -14.178   3.126  0.00  0.00    +0.143 C 
BRANCH  12  14
ATOM     13  C   LIG    1       26.893 -13.303   5.423  0.00  0.00    +0.013 C 
ATOM     14  C   LIG    1       27.390 -13.823   4.059  0.00  0.00    -0.008 C 
ATOM     15  C   LIG    1       28.236 -15.088   4.316  0.00  0.00    +0.013 C 
ATOM     16  C   LIG    1       28.308 -12.755   3.429  0.00  0.00    +0.013 C 
ENDBRANCH  12  14
BRANCH  12  17
ATOM     17  O   LIG    1       25.417 -13.007   2.844  0.00  0.00    -0.387 OA
ATOM     18  H   LIG    1       26.026 -12.344   2.478  0.00  0.00    +0.210 HD
ENDBRANCH  12  17
ENDBRANCH   1  12
TORSDOF 4
ENDMDL
MODEL 9
REMARK VINA RESULT:      -3.7      1.698      6.970
REMARK  Name = *****
REMARK                            x       y       z     vdW  Elec       q    Type
REMARK                         _______ _______ _______ _____ _____    ______ ____
ROOT
ATOM      1  C   LIG    1       24.939 -14.991   4.276  0.00  0.00    +0.005 C 
ATOM      2  C   LIG    1       23.814 -15.645   3.946  0.00  0.00    +0.006 C 
ENDROOT
BRANCH   2   3
ATOM      3  C   LIG    1       23.585 -17.090   4.123  0.00  0.00    -0.022 A 
ATOM      4  C   LIG    1       24.554 -18.056   3.813  0.00  0.00    +0.057 A 
ATOM      5  C   LIG    1       24.224 -19.388   3.981  0.00  0.00    +0.167 A 
ATOM      6  O   LIG    1       25.041 -20.445   3.724  0.00  0.00    -0.453 OA
ATOM      7  C   LIG    1       24.166 -21.547   4.049  0.00  0.00    +0.466 C 
ATOM      8  O   LIG    1       22.866 -21.131   4.515  0.00  0.00    -0.453 OA
ATOM      9  C   LIG    1       22.987 -19.780   4.429  0.00  0.00    +0.166 A 
ATOM     10  C   LIG    1       22.007 -18.864   4.738  0.00  0.00    +0.050 A 
ATOM     11  C   LIG    1       22.312 -17.508   4.575  0.00  0.00    +0.012 A 
ENDBRANCH   2   3
BRANCH   1  12
ATOM     12  C   LIG    1       25.194 -13.503   4.141  0.00  0.00    +0.143 C 
BRANCH  12  14
ATOM     13  C   LIG    1       26.499 -14.331   2.101  0.00  0.00    +0.013 C 
ATOM     14  C   LIG    1       26.082 -13.091   2.918  0.00  0.00    -0.008 C 
ATOM     15  C   LIG    1       25.278 -12.160   1.985  0.00  0.00    +0.013 C 
ATOM     16  C   LIG    1       27.355 -12.340   3.359  0.00  0.00    +0.013 C 
ENDBRANCH  12  14
BRANCH  12  17
ATOM     17  O   LIG    1       25.758 -12.997   5.351  0.00  0.00    -0.387 OA
ATOM     18  H   LIG    1       25.028 -12.870   5.979  0.00  0.00    +0.210 HD
ENDBRANCH  12  17
ENDBRANCH   1  12
TORSDOF 4
ENDMDL
