MODEL 1
REMARK VINA RESULT:      -8.0      0.000      0.000
REMARK  Name = *****
REMARK                            x       y       z     vdW  Elec       q    Type
REMARK                         _______ _______ _______ _____ _____    ______ ____
ROOT
ATOM      1  C   LIG    1       26.356 -19.123   4.629  0.00  0.00    +0.018 C 
ATOM      2  C   LIG    1       26.349 -20.660   5.051  0.00  0.00    +0.009 C 
ATOM      3  C   LIG    1       25.604 -21.605   6.141  0.00  0.00    +0.064 C 
ATOM      4  C   LIG    1       25.002 -20.727   7.287  0.00  0.00    +0.011 C 
ATOM      5  C   LIG    1       25.948 -20.606   8.404  0.00  0.00    +0.040 C 
ATOM      6  C   LIG    1       27.237 -20.185   7.715  0.00  0.00    -0.043 A 
ATOM      7  C   LIG    1       28.250 -19.891   8.639  0.00  0.00    +0.007 A 
ATOM      8  C   LIG    1       29.538 -19.736   8.173  0.00  0.00    +0.045 A 
ATOM      9  C   LIG    1       29.839 -19.862   6.842  0.00  0.00    +0.117 A 
ATOM     10  C   LIG    1       28.834 -20.133   5.890  0.00  0.00    +0.049 A 
ATOM     11  C   LIG    1       23.497 -20.995   7.566  0.00  0.00    +0.005 C 
ATOM     12  C   LIG    1       22.808 -20.286   6.379  0.00  0.00    +0.000 C 
ATOM     13  C   LIG    1       22.308 -20.618   4.989  0.00  0.00    +0.000 C 
ATOM     14  C   LIG    1       23.466 -20.228   3.928  0.00  0.00    +0.001 C 
ATOM     15  C   LIG    1       27.464 -20.281   6.262  0.00  0.00    -0.033 A 
ATOM     16  C   LIG    1       24.964 -20.915   3.965  0.00  0.00    +0.013 C 
ENDROOT
BRANCH   3  17
ATOM     17  N   LIG    1       26.423 -22.809   6.501  0.00  0.00    -0.326 NA
ATOM     18  H   LIG    1       27.398 -22.513   6.578  0.00  0.00    +0.118 HD
ATOM     19  H   LIG    1       26.198 -23.109   7.452  0.00  0.00    +0.118 HD
ENDBRANCH   3  17
BRANCH   9  20
ATOM     20  O   LIG    1       31.143 -19.752   6.420  0.00  0.00    -0.507 OA
ATOM     21  H   LIG    1       31.364 -20.538   5.920  0.00  0.00    +0.292 HD
ENDBRANCH   9  20
TORSDOF 2
ENDMDL
MODEL 2
REMARK VINA RESULT:      -6.1      8.074      9.718
REMARK  Name = *****
REMARK                            x       y       z     vdW  Elec       q    Type
REMARK                         _______ _______ _______ _____ _____    ______ ____
ROOT
ATOM      1  C   LIG    1       25.822 -28.636   8.513  0.00  0.00    +0.018 C 
ATOM      2  C   LIG    1       24.602 -29.136   7.616  0.00  0.00    +0.009 C 
ATOM      3  C   LIG    1       24.374 -30.081   6.315  0.00  0.00    +0.064 C 
ATOM      4  C   LIG    1       25.723 -30.266   5.545  0.00  0.00    +0.011 C 
ATOM      5  C   LIG    1       25.862 -29.260   4.484  0.00  0.00    +0.040 C 
ATOM      6  C   LIG    1       25.569 -27.957   5.211  0.00  0.00    -0.043 A 
ATOM      7  C   LIG    1       25.776 -26.842   4.385  0.00  0.00    +0.007 A 
ATOM      8  C   LIG    1       25.321 -25.614   4.815  0.00  0.00    +0.045 A 
ATOM      9  C   LIG    1       24.680 -25.468   6.017  0.00  0.00    +0.117 A 
ATOM     10  C   LIG    1       24.482 -26.568   6.877  0.00  0.00    +0.049 A 
ATOM     11  C   LIG    1       26.094 -31.750   5.266  0.00  0.00    +0.005 C 
ATOM     12  C   LIG    1       26.577 -32.237   6.650  0.00  0.00    +0.000 C 
ATOM     13  C   LIG    1       26.010 -32.916   7.880  0.00  0.00    +0.000 C 
ATOM     14  C   LIG    1       25.617 -31.771   8.954  0.00  0.00    +0.001 C 
ATOM     15  C   LIG    1       24.941 -27.877   6.542  0.00  0.00    -0.033 A 
ATOM     16  C   LIG    1       24.507 -30.598   8.625  0.00  0.00    +0.013 C 
ENDROOT
BRANCH   3  17
ATOM     17  N   LIG    1       23.144 -29.697   5.546  0.00  0.00    -0.326 NA
ATOM     18  H   LIG    1       22.967 -30.427   4.854  0.00  0.00    +0.118 HD
ATOM     19  H   LIG    1       22.324 -29.753   6.155  0.00  0.00    +0.118 HD
ENDBRANCH   3  17
BRANCH   9  20
ATOM     20  O   LIG    1       24.193 -24.237   6.390  0.00  0.00    -0.507 OA
ATOM     21  H   LIG    1       23.602 -23.927   5.704  0.00  0.00    +0.292 HD
ENDBRANCH   9  20
TORSDOF 2
ENDMDL
MODEL 3
REMARK VINA RESULT:      -5.8      3.088      4.779
REMARK  Name = *****
REMARK                            x       y       z     vdW  Elec       q    Type
REMARK                         _______ _______ _______ _____ _____    ______ ____
ROOT
ATOM      1  C   LIG    1       26.124 -20.298   5.680  0.00  0.00    +0.018 C 
ATOM      2  C   LIG    1       25.365 -20.800   4.371  0.00  0.00    +0.009 C 
ATOM      3  C   LIG    1       23.941 -20.544   3.633  0.00  0.00    +0.064 C 
ATOM      4  C   LIG    1       22.924 -19.911   4.638  0.00  0.00    +0.011 C 
ATOM      5  C   LIG    1       22.119 -20.951   5.291  0.00  0.00    +0.040 C 
ATOM      6  C   LIG    1       23.168 -21.935   5.783  0.00  0.00    -0.043 A 
ATOM      7  C   LIG    1       22.601 -22.958   6.557  0.00  0.00    +0.007 A 
ATOM      8  C   LIG    1       23.378 -24.054   6.867  0.00  0.00    +0.045 A 
ATOM      9  C   LIG    1       24.674 -24.158   6.437  0.00  0.00    +0.117 A 
ATOM     10  C   LIG    1       25.276 -23.132   5.679  0.00  0.00    +0.049 A 
ATOM     11  C   LIG    1       22.247 -18.611   4.120  0.00  0.00    +0.005 C 
ATOM     12  C   LIG    1       23.373 -17.565   4.278  0.00  0.00    +0.000 C 
ATOM     13  C   LIG    1       24.491 -16.962   3.454  0.00  0.00    +0.000 C 
ATOM     14  C   LIG    1       25.854 -17.771   3.781  0.00  0.00    +0.001 C 
ATOM     15  C   LIG    1       24.570 -21.941   5.330  0.00  0.00    -0.033 A 
ATOM     16  C   LIG    1       26.007 -19.388   3.501  0.00  0.00    +0.013 C 
ENDROOT
BRANCH   3  17
ATOM     17  N   LIG    1       23.512 -21.720   2.807  0.00  0.00    -0.326 NA
ATOM     18  H   LIG    1       22.543 -21.567   2.522  0.00  0.00    +0.118 HD
ATOM     19  H   LIG    1       24.015 -21.721   1.917  0.00  0.00    +0.118 HD
ENDBRANCH   3  17
BRANCH   9  20
ATOM     20  O   LIG    1       25.403 -25.289   6.721  0.00  0.00    -0.507 OA
ATOM     21  H   LIG    1       25.605 -25.290   7.656  0.00  0.00    +0.292 HD
ENDBRANCH   9  20
TORSDOF 2
ENDMDL
MODEL 4
REMARK VINA RESULT:      -5.7      9.435     11.097
REMARK  Name = *****
REMARK                            x       y       z     vdW  Elec       q    Type
REMARK                         _______ _______ _______ _____ _____    ______ ____
ROOT
ATOM      1  C   LIG    1       23.265 -30.147  10.645  0.00  0.00    +0.018 C 
ATOM      2  C   LIG    1       24.733 -30.746  10.477  0.00  0.00    +0.009 C 
ATOM      3  C   LIG    1       26.265 -30.217  10.566  0.00  0.00    +0.064 C 
ATOM      4  C   LIG    1       26.301 -28.658  10.448  0.00  0.00    +0.011 C 
ATOM      5  C   LIG    1       26.499 -28.243   9.053  0.00  0.00    +0.040 C 
ATOM      6  C   LIG    1       25.442 -29.043   8.307  0.00  0.00    -0.043 A 
ATOM      7  C   LIG    1       25.382 -28.691   6.951  0.00  0.00    +0.007 A 
ATOM      8  C   LIG    1       24.654 -29.491   6.096  0.00  0.00    +0.045 A 
ATOM      9  C   LIG    1       23.999 -30.608   6.544  0.00  0.00    +0.117 A 
ATOM     10  C   LIG    1       24.023 -30.970   7.907  0.00  0.00    +0.049 A 
ATOM     11  C   LIG    1       27.087 -27.954  11.589  0.00  0.00    +0.005 C 
ATOM     12  C   LIG    1       26.104 -28.049  12.777  0.00  0.00    +0.000 C 
ATOM     13  C   LIG    1       25.813 -28.971  13.943  0.00  0.00    +0.000 C 
ATOM     14  C   LIG    1       24.630 -29.984  13.505  0.00  0.00    +0.001 C 
ATOM     15  C   LIG    1       24.720 -30.193   8.880  0.00  0.00    -0.033 A 
ATOM     16  C   LIG    1       24.784 -31.021  12.233  0.00  0.00    +0.013 C 
ENDROOT
BRANCH   3  17
ATOM     17  N   LIG    1       27.196 -31.032   9.717  0.00  0.00    -0.326 NA
ATOM     18  H   LIG    1       28.152 -30.816  10.004  0.00  0.00    +0.118 HD
ATOM     19  H   LIG    1       27.103 -32.022   9.955  0.00  0.00    +0.118 HD
ENDBRANCH   3  17
BRANCH   9  20
ATOM     20  O   LIG    1       23.326 -31.411   5.655  0.00  0.00    -0.507 OA
ATOM     21  H   LIG    1       23.780 -31.375   4.813  0.00  0.00    +0.292 HD
ENDBRANCH   9  20
TORSDOF 2
ENDMDL
MODEL 5
REMARK VINA RESULT:      -5.7      1.865      2.858
REMARK  Name = *****
REMARK                            x       y       z     vdW  Elec       q    Type
REMARK                         _______ _______ _______ _____ _____    ______ ____
ROOT
ATOM      1  C   LIG    1       25.958 -23.641   6.503  0.00  0.00    +0.018 C 
ATOM      2  C   LIG    1       25.490 -22.469   7.478  0.00  0.00    +0.009 C 
ATOM      3  C   LIG    1       24.678 -21.067   7.370  0.00  0.00    +0.064 C 
ATOM      4  C   LIG    1       24.649 -20.579   5.884  0.00  0.00    +0.011 C 
ATOM      5  C   LIG    1       25.768 -19.667   5.612  0.00  0.00    +0.040 C 
ATOM      6  C   LIG    1       26.969 -20.435   6.141  0.00  0.00    -0.043 A 
ATOM      7  C   LIG    1       28.174 -19.778   5.857  0.00  0.00    +0.007 A 
ATOM      8  C   LIG    1       29.323 -20.216   6.480  0.00  0.00    +0.045 A 
ATOM      9  C   LIG    1       29.306 -21.268   7.357  0.00  0.00    +0.117 A 
ATOM     10  C   LIG    1       28.111 -21.962   7.640  0.00  0.00    +0.049 A 
ATOM     11  C   LIG    1       23.225 -20.245   5.355  0.00  0.00    +0.005 C 
ATOM     12  C   LIG    1       22.621 -21.648   5.124  0.00  0.00    +0.000 C 
ATOM     13  C   LIG    1       21.785 -22.666   5.872  0.00  0.00    +0.000 C 
ATOM     14  C   LIG    1       22.787 -23.737   6.557  0.00  0.00    +0.001 C 
ATOM     15  C   LIG    1       26.872 -21.610   7.026  0.00  0.00    -0.033 A 
ATOM     16  C   LIG    1       23.926 -23.297   7.663  0.00  0.00    +0.013 C 
ENDROOT
BRANCH   3  17
ATOM     17  N   LIG    1       25.073 -20.100   8.446  0.00  0.00    -0.326 NA
ATOM     18  H   LIG    1       25.014 -19.157   8.058  0.00  0.00    +0.118 HD
ATOM     19  H   LIG    1       24.363 -20.091   9.181  0.00  0.00    +0.118 HD
ENDBRANCH   3  17
BRANCH   9  20
ATOM     20  O   LIG    1       30.462 -21.645   7.999  0.00  0.00    -0.507 OA
ATOM     21  H   LIG    1       30.790 -22.443   7.585  0.00  0.00    +0.292 HD
ENDBRANCH   9  20
TORSDOF 2
ENDMDL
MODEL 6
REMARK VINA RESULT:      -5.4      9.764     11.826
REMARK  Name = *****
REMARK                            x       y       z     vdW  Elec       q    Type
REMARK                         _______ _______ _______ _____ _____    ______ ____
ROOT
ATOM      1  C   LIG    1       22.456 -26.328  13.224  0.00  0.00    +0.018 C 
ATOM      2  C   LIG    1       23.204 -27.492  14.016  0.00  0.00    +0.009 C 
ATOM      3  C   LIG    1       24.613 -28.295  13.927  0.00  0.00    +0.064 C 
ATOM      4  C   LIG    1       25.239 -28.120  12.505  0.00  0.00    +0.011 C 
ATOM      5  C   LIG    1       24.840 -29.220  11.618  0.00  0.00    +0.040 C 
ATOM      6  C   LIG    1       23.329 -29.261  11.788  0.00  0.00    -0.043 A 
ATOM      7  C   LIG    1       22.731 -30.181  10.914  0.00  0.00    +0.007 A 
ATOM      8  C   LIG    1       21.408 -30.512  11.114  0.00  0.00    +0.045 A 
ATOM      9  C   LIG    1       20.680 -29.966  12.138  0.00  0.00    +0.117 A 
ATOM     10  C   LIG    1       21.250 -29.021  13.015  0.00  0.00    +0.049 A 
ATOM     11  C   LIG    1       26.714 -27.627  12.520  0.00  0.00    +0.005 C 
ATOM     12  C   LIG    1       26.559 -26.129  12.865  0.00  0.00    +0.000 C 
ATOM     13  C   LIG    1       26.557 -25.236  14.088  0.00  0.00    +0.000 C 
ATOM     14  C   LIG    1       25.021 -25.006  14.543  0.00  0.00    +0.001 C 
ATOM     15  C   LIG    1       22.602 -28.585  12.877  0.00  0.00    -0.033 A 
ATOM     16  C   LIG    1       24.036 -26.251  14.982  0.00  0.00    +0.013 C 
ENDROOT
BRANCH   3  17
ATOM     17  N   LIG    1       24.517 -29.672  14.516  0.00  0.00    -0.326 NA
ATOM     18  H   LIG    1       25.279 -29.779  15.188  0.00  0.00    +0.118 HD
ATOM     19  H   LIG    1       23.682 -29.740  15.103  0.00  0.00    +0.118 HD
ENDBRANCH   3  17
BRANCH   9  20
ATOM     20  O   LIG    1       19.378 -30.359  12.339  0.00  0.00    -0.507 OA
ATOM     21  H   LIG    1       19.364 -31.006  13.044  0.00  0.00    +0.292 HD
ENDBRANCH   9  20
TORSDOF 2
ENDMDL
MODEL 7
REMARK VINA RESULT:      -5.4      9.367     10.450
REMARK  Name = *****
REMARK                            x       y       z     vdW  Elec       q    Type
REMARK                         _______ _______ _______ _____ _____    ______ ____
ROOT
ATOM      1  C   LIG    1       26.483 -28.493   9.360  0.00  0.00    +0.018 C 
ATOM      2  C   LIG    1       26.670 -29.570  10.521  0.00  0.00    +0.009 C 
ATOM      3  C   LIG    1       25.750 -30.633  11.334  0.00  0.00    +0.064 C 
ATOM      4  C   LIG    1       24.239 -30.264  11.176  0.00  0.00    +0.011 C 
ATOM      5  C   LIG    1       23.791 -29.407  12.281  0.00  0.00    +0.040 C 
ATOM      6  C   LIG    1       24.846 -28.312  12.312  0.00  0.00    -0.043 A 
ATOM      7  C   LIG    1       24.527 -27.306  13.235  0.00  0.00    +0.007 A 
ATOM      8  C   LIG    1       25.495 -26.379  13.556  0.00  0.00    +0.045 A 
ATOM      9  C   LIG    1       26.745 -26.424  12.996  0.00  0.00    +0.117 A 
ATOM     10  C   LIG    1       27.082 -27.411  12.046  0.00  0.00    +0.049 A 
ATOM     11  C   LIG    1       23.347 -31.442  10.693  0.00  0.00    +0.005 C 
ATOM     12  C   LIG    1       23.697 -31.529   9.191  0.00  0.00    +0.000 C 
ATOM     13  C   LIG    1       24.659 -32.272   8.287  0.00  0.00    +0.000 C 
ATOM     14  C   LIG    1       25.953 -31.331   8.042  0.00  0.00    +0.001 C 
ATOM     15  C   LIG    1       26.145 -28.399  11.621  0.00  0.00    -0.033 A 
ATOM     16  C   LIG    1       26.915 -30.817   9.277  0.00  0.00    +0.013 C 
ENDROOT
BRANCH   3  17
ATOM     17  N   LIG    1       26.291 -30.916  12.705  0.00  0.00    -0.326 NA
ATOM     18  H   LIG    1       26.034 -31.874  12.952  0.00  0.00    +0.118 HD
ATOM     19  H   LIG    1       27.312 -30.953  12.673  0.00  0.00    +0.118 HD
ENDBRANCH   3  17
BRANCH   9  20
ATOM     20  O   LIG    1       27.701 -25.514  13.379  0.00  0.00    -0.507 OA
ATOM     21  H   LIG    1       28.055 -25.100  12.591  0.00  0.00    +0.292 HD
ENDBRANCH   9  20
TORSDOF 2
ENDMDL
MODEL 8
REMARK VINA RESULT:      -5.3      3.079      5.848
REMARK  Name = *****
REMARK                            x       y       z     vdW  Elec       q    Type
REMARK                         _______ _______ _______ _____ _____    ______ ____
ROOT
ATOM      1  C   LIG    1       23.371 -20.343   7.541  0.00  0.00    +0.018 C 
ATOM      2  C   LIG    1       23.830 -21.341   6.385  0.00  0.00    +0.009 C 
ATOM      3  C   LIG    1       25.129 -21.567   5.438  0.00  0.00    +0.064 C 
ATOM      4  C   LIG    1       26.007 -20.273   5.415  0.00  0.00    +0.011 C 
ATOM      5  C   LIG    1       25.639 -19.411   4.285  0.00  0.00    +0.040 C 
ATOM      6  C   LIG    1       24.128 -19.308   4.414  0.00  0.00    -0.043 A 
ATOM      7  C   LIG    1       23.585 -18.409   3.483  0.00  0.00    +0.007 A 
ATOM      8  C   LIG    1       22.218 -18.390   3.309  0.00  0.00    +0.045 A 
ATOM      9  C   LIG    1       21.394 -19.222   4.019  0.00  0.00    +0.117 A 
ATOM     10  C   LIG    1       21.912 -20.117   4.978  0.00  0.00    +0.049 A 
ATOM     11  C   LIG    1       27.505 -20.519   5.753  0.00  0.00    +0.005 C 
ATOM     12  C   LIG    1       27.470 -20.719   7.285  0.00  0.00    +0.000 C 
ATOM     13  C   LIG    1       27.362 -21.853   8.283  0.00  0.00    +0.000 C 
ATOM     14  C   LIG    1       25.808 -22.005   8.711  0.00  0.00    +0.001 C 
ATOM     15  C   LIG    1       23.309 -20.195   5.258  0.00  0.00    -0.033 A 
ATOM     16  C   LIG    1       24.623 -22.348   7.618  0.00  0.00    +0.013 C 
ENDROOT
BRANCH   3  17
ATOM     17  N   LIG    1       24.773 -22.228   4.138  0.00  0.00    -0.326 NA
ATOM     18  H   LIG    1       24.035 -22.909   4.325  0.00  0.00    +0.118 HD
ATOM     19  H   LIG    1       24.312 -21.554   3.522  0.00  0.00    +0.118 HD
ENDBRANCH   3  17
BRANCH   9  20
ATOM     20  O   LIG    1       20.040 -19.213   3.782  0.00  0.00    -0.507 OA
ATOM     21  H   LIG    1       19.617 -19.778   4.428  0.00  0.00    +0.292 HD
ENDBRANCH   9  20
TORSDOF 2
ENDMDL
MODEL 9
REMARK VINA RESULT:      -5.3      9.075     10.177
REMARK  Name = *****
REMARK                            x       y       z     vdW  Elec       q    Type
REMARK                         _______ _______ _______ _____ _____    ______ ____
ROOT
ATOM      1  C   LIG    1       26.679 -27.806  11.008  0.00  0.00    +0.018 C 
ATOM      2  C   LIG    1       26.377 -28.518  12.402  0.00  0.00    +0.009 C 
ATOM      3  C   LIG    1       25.088 -29.100  13.200  0.00  0.00    +0.064 C 
ATOM      4  C   LIG    1       23.773 -28.500  12.603  0.00  0.00    +0.011 C 
ATOM      5  C   LIG    1       23.370 -27.292  13.333  0.00  0.00    +0.040 C 
ATOM      6  C   LIG    1       24.647 -26.465  13.353  0.00  0.00    -0.043 A 
ATOM      7  C   LIG    1       24.436 -25.194  13.908  0.00  0.00    +0.007 A 
ATOM      8  C   LIG    1       25.536 -24.425  14.220  0.00  0.00    +0.045 A 
ATOM      9  C   LIG    1       26.812 -24.875  14.002  0.00  0.00    +0.117 A 
ATOM     10  C   LIG    1       27.049 -26.139  13.423  0.00  0.00    +0.049 A 
ATOM     11  C   LIG    1       22.710 -29.567  12.215  0.00  0.00    +0.005 C 
ATOM     12  C   LIG    1       23.287 -30.148  10.905  0.00  0.00    +0.000 C 
ATOM     13  C   LIG    1       24.172 -31.294  10.460  0.00  0.00    +0.000 C 
ATOM     14  C   LIG    1       25.685 -30.738  10.315  0.00  0.00    +0.001 C 
ATOM     15  C   LIG    1       25.982 -27.002  13.034  0.00  0.00    -0.033 A 
ATOM     16  C   LIG    1       26.512 -30.093  11.586  0.00  0.00    +0.013 C 
ENDROOT
BRANCH   3  17
ATOM     17  N   LIG    1       25.287 -29.079  14.687  0.00  0.00    -0.326 NA
ATOM     18  H   LIG    1       24.575 -29.679  15.108  0.00  0.00    +0.118 HD
ATOM     19  H   LIG    1       26.159 -29.557  14.926  0.00  0.00    +0.118 HD
ENDBRANCH   3  17
BRANCH   9  20
ATOM     20  O   LIG    1       27.886 -24.102  14.375  0.00  0.00    -0.507 OA
ATOM     21  H   LIG    1       28.307 -23.770  13.582  0.00  0.00    +0.292 HD
ENDBRANCH   9  20
TORSDOF 2
ENDMDL
