MODEL 1
REMARK VINA RESULT:      -5.7      0.000      0.000
REMARK  Name = *****
REMARK                            x       y       z     vdW  Elec       q    Type
REMARK                         _______ _______ _______ _____ _____    ______ ____
ROOT
ATOM      1  N   LIG    1       25.798 -17.353   3.071  0.00  0.00    -0.294 NA
ATOM      2  C   LIG    1       24.594 -16.769   3.715  0.00  0.00    +0.120 C 
ATOM      3  C   LIG    1       24.743 -15.278   3.878  0.00  0.00    -0.023 A 
ATOM      4  C   LIG    1       25.970 -14.647   3.859  0.00  0.00    -0.005 A 
ATOM      5  S   LIG    1       25.875 -12.972   4.113  0.00  0.00    -0.101 S 
ATOM      6  C   LIG    1       24.170 -13.046   4.252  0.00  0.00    +0.045 A 
ATOM      7  C   LIG    1       27.255 -15.358   3.610  0.00  0.00    +0.058 C 
ATOM      8  C   LIG    1       23.693 -14.333   4.105  0.00  0.00    +0.013 A 
ATOM      9  C   LIG    1       27.035 -16.879   3.746  0.00  0.00    +0.090 C 
ENDROOT
BRANCH   1  10
ATOM     10  C   LIG    1       25.762 -18.830   3.140  0.00  0.00    +0.121 C 
BRANCH  10  13
ATOM     11 CL   LIG    1       26.976 -20.225   5.706  0.00  0.00    -0.083 Cl
ATOM     12  C   LIG    1       25.294 -20.060   5.344  0.00  0.00    +0.045 A 
ATOM     13  C   LIG    1       24.832 -19.403   4.192  0.00  0.00    -0.015 A 
ATOM     14  C   LIG    1       23.441 -19.329   3.984  0.00  0.00    +0.006 A 
ATOM     15  C   LIG    1       22.544 -19.890   4.898  0.00  0.00    +0.000 A 
ATOM     16  C   LIG    1       23.020 -20.535   6.034  0.00  0.00    +0.001 A 
ATOM     17  C   LIG    1       24.393 -20.620   6.258  0.00  0.00    +0.020 A 
ENDBRANCH  10  13
ENDBRANCH   1  10
TORSDOF 2
ENDMDL
MODEL 2
REMARK VINA RESULT:      -5.5      2.936      5.973
REMARK  Name = *****
REMARK                            x       y       z     vdW  Elec       q    Type
REMARK                         _______ _______ _______ _____ _____    ______ ____
ROOT
ATOM      1  N   LIG    1       25.324 -17.695   3.915  0.00  0.00    -0.294 NA
ATOM      2  C   LIG    1       23.916 -18.089   3.653  0.00  0.00    +0.120 C 
ATOM      3  C   LIG    1       23.559 -19.340   4.416  0.00  0.00    -0.023 A 
ATOM      4  C   LIG    1       24.512 -20.216   4.895  0.00  0.00    -0.005 A 
ATOM      5  S   LIG    1       23.855 -21.572   5.675  0.00  0.00    -0.101 S 
ATOM      6  C   LIG    1       22.261 -21.016   5.393  0.00  0.00    +0.045 A 
ATOM      7  C   LIG    1       25.978 -19.982   4.770  0.00  0.00    +0.058 C 
ATOM      8  C   LIG    1       22.243 -19.814   4.714  0.00  0.00    +0.013 A 
ATOM      9  C   LIG    1       26.234 -18.859   3.745  0.00  0.00    +0.090 C 
ENDROOT
BRANCH   1  10
ATOM     10  C   LIG    1       25.747 -16.627   2.983  0.00  0.00    +0.121 C 
BRANCH  10  13
ATOM     11 CL   LIG    1       23.536 -14.676   4.129  0.00  0.00    -0.083 Cl
ATOM     12  C   LIG    1       25.242 -14.397   4.149  0.00  0.00    +0.045 A 
ATOM     13  C   LIG    1       26.164 -15.327   3.640  0.00  0.00    -0.015 A 
ATOM     14  C   LIG    1       27.533 -15.000   3.696  0.00  0.00    +0.006 A 
ATOM     15  C   LIG    1       27.964 -13.788   4.243  0.00  0.00    +0.000 A 
ATOM     16  C   LIG    1       27.037 -12.880   4.744  0.00  0.00    +0.001 A 
ATOM     17  C   LIG    1       25.677 -13.184   4.697  0.00  0.00    +0.020 A 
ENDBRANCH  10  13
ENDBRANCH   1  10
TORSDOF 2
ENDMDL
MODEL 3
REMARK VINA RESULT:      -5.2      1.090      2.026
REMARK  Name = *****
REMARK                            x       y       z     vdW  Elec       q    Type
REMARK                         _______ _______ _______ _____ _____    ______ ____
ROOT
ATOM      1  N   LIG    1       24.569 -17.404   4.053  0.00  0.00    -0.294 NA
ATOM      2  C   LIG    1       25.617 -16.867   3.148  0.00  0.00    +0.120 C 
ATOM      3  C   LIG    1       25.747 -15.373   3.306  0.00  0.00    -0.023 A 
ATOM      4  C   LIG    1       24.746 -14.593   3.849  0.00  0.00    -0.005 A 
ATOM      5  S   LIG    1       25.114 -12.938   3.870  0.00  0.00    -0.101 S 
ATOM      6  C   LIG    1       26.640 -13.222   3.149  0.00  0.00    +0.045 A 
ATOM      7  C   LIG    1       23.476 -15.150   4.395  0.00  0.00    +0.058 C 
ATOM      8  C   LIG    1       26.854 -14.563   2.901  0.00  0.00    +0.013 A 
ATOM      9  C   LIG    1       23.316 -16.612   3.932  0.00  0.00    +0.090 C 
ENDROOT
BRANCH   1  10
ATOM     10  C   LIG    1       24.268 -18.814   3.722  0.00  0.00    +0.121 C 
BRANCH  10  13
ATOM     11 CL   LIG    1       26.914 -19.863   5.101  0.00  0.00    -0.083 Cl
ATOM     12  C   LIG    1       25.300 -20.278   5.561  0.00  0.00    +0.045 A 
ATOM     13  C   LIG    1       24.172 -19.749   4.912  0.00  0.00    -0.015 A 
ATOM     14  C   LIG    1       22.900 -20.156   5.358  0.00  0.00    +0.006 A 
ATOM     15  C   LIG    1       22.761 -21.059   6.416  0.00  0.00    +0.000 A 
ATOM     16  C   LIG    1       23.889 -21.572   7.047  0.00  0.00    +0.001 A 
ATOM     17  C   LIG    1       25.158 -21.181   6.621  0.00  0.00    +0.020 A 
ENDBRANCH  10  13
ENDBRANCH   1  10
TORSDOF 2
ENDMDL
MODEL 4
REMARK VINA RESULT:      -5.1      1.625      2.590
REMARK  Name = *****
REMARK                            x       y       z     vdW  Elec       q    Type
REMARK                         _______ _______ _______ _____ _____    ______ ____
ROOT
ATOM      1  N   LIG    1       25.010 -17.539   3.957  0.00  0.00    -0.294 NA
ATOM      2  C   LIG    1       26.097 -16.916   3.159  0.00  0.00    +0.120 C 
ATOM      3  C   LIG    1       26.085 -15.417   3.316  0.00  0.00    -0.023 A 
ATOM      4  C   LIG    1       24.973 -14.723   3.747  0.00  0.00    -0.005 A 
ATOM      5  S   LIG    1       25.198 -13.042   3.791  0.00  0.00    -0.101 S 
ATOM      6  C   LIG    1       26.808 -13.199   3.232  0.00  0.00    +0.045 A 
ATOM      7  C   LIG    1       23.704 -15.383   4.165  0.00  0.00    +0.058 C 
ATOM      8  C   LIG    1       27.158 -14.518   3.019  0.00  0.00    +0.013 A 
ATOM      9  C   LIG    1       23.714 -16.854   3.701  0.00  0.00    +0.090 C 
ENDROOT
BRANCH   1  10
ATOM     10  C   LIG    1       24.862 -18.969   3.609  0.00  0.00    +0.121 C 
BRANCH  10  13
ATOM     11 CL   LIG    1       21.973 -19.589   4.740  0.00  0.00    -0.083 Cl
ATOM     12  C   LIG    1       23.461 -20.209   5.366  0.00  0.00    +0.045 A 
ATOM     13  C   LIG    1       24.706 -19.906   4.791  0.00  0.00    -0.015 A 
ATOM     14  C   LIG    1       25.860 -20.455   5.382  0.00  0.00    +0.006 A 
ATOM     15  C   LIG    1       25.771 -21.281   6.507  0.00  0.00    +0.000 A 
ATOM     16  C   LIG    1       24.529 -21.572   7.062  0.00  0.00    +0.001 A 
ATOM     17  C   LIG    1       23.375 -21.037   6.492  0.00  0.00    +0.020 A 
ENDBRANCH  10  13
ENDBRANCH   1  10
TORSDOF 2
ENDMDL
MODEL 5
REMARK VINA RESULT:      -4.8      2.713      5.725
REMARK  Name = *****
REMARK                            x       y       z     vdW  Elec       q    Type
REMARK                         _______ _______ _______ _____ _____    ______ ____
ROOT
ATOM      1  N   LIG    1       25.131 -17.467   3.840  0.00  0.00    -0.294 NA
ATOM      2  C   LIG    1       23.725 -17.922   3.696  0.00  0.00    +0.120 C 
ATOM      3  C   LIG    1       23.523 -19.256   4.368  0.00  0.00    -0.023 A 
ATOM      4  C   LIG    1       24.568 -20.111   4.654  0.00  0.00    -0.005 A 
ATOM      5  S   LIG    1       24.075 -21.570   5.366  0.00  0.00    -0.101 S 
ATOM      6  C   LIG    1       22.433 -21.091   5.314  0.00  0.00    +0.045 A 
ATOM      7  C   LIG    1       25.997 -19.777   4.394  0.00  0.00    +0.058 C 
ATOM      8  C   LIG    1       22.275 -19.836   4.761  0.00  0.00    +0.013 A 
ATOM      9  C   LIG    1       26.075 -18.552   3.460  0.00  0.00    +0.090 C 
ENDROOT
BRANCH   1  10
ATOM     10  C   LIG    1       25.390 -16.295   2.975  0.00  0.00    +0.121 C 
BRANCH  10  13
ATOM     11 CL   LIG    1       28.036 -15.024   4.155  0.00  0.00    -0.083 Cl
ATOM     12  C   LIG    1       26.453 -14.336   4.248  0.00  0.00    +0.045 A 
ATOM     13  C   LIG    1       25.328 -14.952   3.675  0.00  0.00    -0.015 A 
ATOM     14  C   LIG    1       24.080 -14.313   3.813  0.00  0.00    +0.006 A 
ATOM     15  C   LIG    1       23.963 -13.100   4.499  0.00  0.00    +0.000 A 
ATOM     16  C   LIG    1       25.088 -12.503   5.058  0.00  0.00    +0.001 A 
ATOM     17  C   LIG    1       26.332 -13.120   4.933  0.00  0.00    +0.020 A 
ENDBRANCH  10  13
ENDBRANCH   1  10
TORSDOF 2
ENDMDL
MODEL 6
REMARK VINA RESULT:      -4.5      1.641      2.751
REMARK  Name = *****
REMARK                            x       y       z     vdW  Elec       q    Type
REMARK                         _______ _______ _______ _____ _____    ______ ____
ROOT
ATOM      1  N   LIG    1       25.258 -17.563   3.998  0.00  0.00    -0.294 NA
ATOM      2  C   LIG    1       26.255 -16.862   3.149  0.00  0.00    +0.120 C 
ATOM      3  C   LIG    1       26.100 -15.367   3.266  0.00  0.00    -0.023 A 
ATOM      4  C   LIG    1       24.938 -14.772   3.714  0.00  0.00    -0.005 A 
ATOM      5  S   LIG    1       24.998 -13.077   3.706  0.00  0.00    -0.101 S 
ATOM      6  C   LIG    1       26.599 -13.092   3.100  0.00  0.00    +0.045 A 
ATOM      7  C   LIG    1       23.753 -15.541   4.189  0.00  0.00    +0.058 C 
ATOM      8  C   LIG    1       27.070 -14.376   2.911  0.00  0.00    +0.013 A 
ATOM      9  C   LIG    1       23.895 -17.017   3.765  0.00  0.00    +0.090 C 
ENDROOT
BRANCH   1  10
ATOM     10  C   LIG    1       25.242 -19.011   3.693  0.00  0.00    +0.121 C 
BRANCH  10  13
ATOM     11 CL   LIG    1       23.212 -20.986   5.102  0.00  0.00    -0.083 Cl
ATOM     12  C   LIG    1       24.882 -20.793   5.505  0.00  0.00    +0.045 A 
ATOM     13  C   LIG    1       25.727 -19.910   4.813  0.00  0.00    -0.015 A 
ATOM     14  C   LIG    1       27.071 -19.820   5.225  0.00  0.00    +0.006 A 
ATOM     15  C   LIG    1       27.552 -20.588   6.290  0.00  0.00    +0.000 A 
ATOM     16  C   LIG    1       26.701 -21.458   6.962  0.00  0.00    +0.001 A 
ATOM     17  C   LIG    1       25.368 -21.562   6.570  0.00  0.00    +0.020 A 
ENDBRANCH  10  13
ENDBRANCH   1  10
TORSDOF 2
ENDMDL
MODEL 7
REMARK VINA RESULT:      -4.1      2.959      5.871
REMARK  Name = *****
REMARK                            x       y       z     vdW  Elec       q    Type
REMARK                         _______ _______ _______ _____ _____    ______ ____
ROOT
ATOM      1  N   LIG    1       26.363 -17.382   4.078  0.00  0.00    -0.294 NA
ATOM      2  C   LIG    1       25.355 -18.189   3.343  0.00  0.00    +0.120 C 
ATOM      3  C   LIG    1       25.121 -19.509   4.031  0.00  0.00    -0.023 A 
ATOM      4  C   LIG    1       26.027 -20.057   4.918  0.00  0.00    -0.005 A 
ATOM      5  S   LIG    1       25.555 -21.571   5.519  0.00  0.00    -0.101 S 
ATOM      6  C   LIG    1       24.110 -21.535   4.602  0.00  0.00    +0.045 A 
ATOM      7  C   LIG    1       27.283 -19.373   5.335  0.00  0.00    +0.058 C 
ATOM      8  C   LIG    1       23.999 -20.380   3.854  0.00  0.00    +0.013 A 
ATOM      9  C   LIG    1       27.569 -18.198   4.378  0.00  0.00    +0.090 C 
ENDROOT
BRANCH   1  10
ATOM     10  C   LIG    1       26.775 -16.209   3.276  0.00  0.00    +0.121 C 
BRANCH  10  13
ATOM     11 CL   LIG    1       28.409 -13.521   3.606  0.00  0.00    -0.083 Cl
ATOM     12  C   LIG    1       26.698 -13.694   3.781  0.00  0.00    +0.045 A 
ATOM     13  C   LIG    1       26.042 -14.921   3.594  0.00  0.00    -0.015 A 
ATOM     14  C   LIG    1       24.644 -14.959   3.768  0.00  0.00    +0.006 A 
ATOM     15  C   LIG    1       23.930 -13.809   4.116  0.00  0.00    +0.000 A 
ATOM     16  C   LIG    1       24.597 -12.601   4.296  0.00  0.00    +0.001 A 
ATOM     17  C   LIG    1       25.979 -12.543   4.128  0.00  0.00    +0.020 A 
ENDBRANCH  10  13
ENDBRANCH   1  10
TORSDOF 2
ENDMDL
MODEL 8
REMARK VINA RESULT:      -3.6      2.796      6.061
REMARK  Name = *****
REMARK                            x       y       z     vdW  Elec       q    Type
REMARK                         _______ _______ _______ _____ _____    ______ ____
ROOT
ATOM      1  N   LIG    1       25.191 -16.543   3.163  0.00  0.00    -0.294 NA
ATOM      2  C   LIG    1       25.937 -17.778   3.515  0.00  0.00    +0.120 C 
ATOM      3  C   LIG    1       24.989 -18.919   3.780  0.00  0.00    -0.023 A 
ATOM      4  C   LIG    1       23.660 -18.724   4.097  0.00  0.00    -0.005 A 
ATOM      5  S   LIG    1       22.816 -20.165   4.399  0.00  0.00    -0.101 S 
ATOM      6  C   LIG    1       24.220 -21.100   4.106  0.00  0.00    +0.045 A 
ATOM      7  C   LIG    1       23.015 -17.381   4.141  0.00  0.00    +0.058 C 
ATOM      8  C   LIG    1       25.309 -20.314   3.785  0.00  0.00    +0.013 A 
ATOM      9  C   LIG    1       24.104 -16.289   4.146  0.00  0.00    +0.090 C 
ENDROOT
BRANCH   1  10
ATOM     10  C   LIG    1       26.096 -15.373   3.151  0.00  0.00    +0.121 C 
BRANCH  10  13
ATOM     11 CL   LIG    1       26.692 -13.855   5.861  0.00  0.00    -0.083 Cl
ATOM     12  C   LIG    1       25.622 -13.319   4.614  0.00  0.00    +0.045 A 
ATOM     13  C   LIG    1       25.429 -14.040   3.424  0.00  0.00    -0.015 A 
ATOM     14  C   LIG    1       24.529 -13.521   2.473  0.00  0.00    +0.006 A 
ATOM     15  C   LIG    1       23.847 -12.322   2.704  0.00  0.00    +0.000 A 
ATOM     16  C   LIG    1       24.052 -11.621   3.887  0.00  0.00    +0.001 A 
ATOM     17  C   LIG    1       24.939 -12.117   4.841  0.00  0.00    +0.020 A 
ENDBRANCH  10  13
ENDBRANCH   1  10
TORSDOF 2
ENDMDL
MODEL 9
REMARK VINA RESULT:      -3.2      3.052      6.033
REMARK  Name = *****
REMARK                            x       y       z     vdW  Elec       q    Type
REMARK                         _______ _______ _______ _____ _____    ______ ____
ROOT
ATOM      1  N   LIG    1       25.867 -18.340   3.438  0.00  0.00    -0.294 NA
ATOM      2  C   LIG    1       26.980 -18.205   4.412  0.00  0.00    +0.120 C 
ATOM      3  C   LIG    1       27.076 -19.428   5.288  0.00  0.00    -0.023 A 
ATOM      4  C   LIG    1       26.022 -20.303   5.462  0.00  0.00    -0.005 A 
ATOM      5  S   LIG    1       26.365 -21.572   6.534  0.00  0.00    -0.101 S 
ATOM      6  C   LIG    1       27.950 -20.981   6.796  0.00  0.00    +0.045 A 
ATOM      7  C   LIG    1       24.718 -20.168   4.753  0.00  0.00    +0.058 C 
ATOM      8  C   LIG    1       28.202 -19.834   6.071  0.00  0.00    +0.013 A 
ATOM      9  C   LIG    1       24.618 -18.763   4.126  0.00  0.00    +0.090 C 
ENDROOT
BRANCH   1  10
ATOM     10  C   LIG    1       25.614 -17.052   2.756  0.00  0.00    +0.121 C 
BRANCH  10  13
ATOM     11 CL   LIG    1       23.411 -15.253   4.140  0.00  0.00    -0.083 Cl
ATOM     12  C   LIG    1       25.113 -14.956   4.150  0.00  0.00    +0.045 A 
ATOM     13  C   LIG    1       26.033 -15.819   3.532  0.00  0.00    -0.015 A 
ATOM     14  C   LIG    1       27.400 -15.483   3.591  0.00  0.00    +0.006 A 
ATOM     15  C   LIG    1       27.830 -14.326   4.247  0.00  0.00    +0.000 A 
ATOM     16  C   LIG    1       26.906 -13.485   4.856  0.00  0.00    +0.001 A 
ATOM     17  C   LIG    1       25.549 -13.799   4.809  0.00  0.00    +0.020 A 
ENDBRANCH  10  13
ENDBRANCH   1  10
TORSDOF 2
ENDMDL
