MODEL 1
REMARK VINA RESULT:      -6.7      0.000      0.000
REMARK  Name = *****
REMARK                            x       y       z     vdW  Elec       q    Type
REMARK                         _______ _______ _______ _____ _____    ______ ____
ROOT
ATOM      1  C   LIG    1       25.731 -30.993   9.820  0.00  0.00    +0.383 C 
ATOM      2  C   LIG    1       24.269 -31.494   9.978  0.00  0.00    +0.284 C 
ATOM      3  O   LIG    1       23.702 -31.511  11.079  0.00  0.00    -0.269 OA
ATOM      4  N   LIG    1       23.640 -32.014   8.828  0.00  0.00    -0.269 N 
ATOM      5  C   LIG    1       22.379 -32.715   9.044  0.00  0.00    +0.138 C 
ATOM      6  C   LIG    1       24.239 -32.038   7.526  0.00  0.00    +0.045 A 
ATOM      7  C   LIG    1       25.165 -31.072   7.081  0.00  0.00    +0.023 A 
ATOM      8  C   LIG    1       25.839 -31.223   5.856  0.00  0.00    +0.032 A 
ATOM      9  C   LIG    1       25.507 -32.271   5.008  0.00  0.00    +0.042 A 
ATOM     10  C   LIG    1       24.520 -33.176   5.374  0.00  0.00    +0.022 A 
ATOM     11 CL   LIG    1       26.282 -32.420   3.482  0.00  0.00    -0.084 Cl
ATOM     12  C   LIG    1       25.381 -29.797   7.820  0.00  0.00    +0.079 C 
ATOM     13  C   LIG    1       23.904 -33.069   6.627  0.00  0.00    +0.025 A 
ATOM     14  N   LIG    1       25.661 -29.738   9.076  0.00  0.00    -0.232 NA
ENDROOT
BRANCH  12  15
ATOM     15  C   LIG    1       25.239 -28.495   7.083  0.00  0.00    +0.001 A 
ATOM     16  C   LIG    1       26.062 -27.417   7.441  0.00  0.00    +0.010 A 
ATOM     17  C   LIG    1       25.933 -26.188   6.794  0.00  0.00    +0.001 A 
ATOM     18  C   LIG    1       24.981 -26.024   5.789  0.00  0.00    +0.000 A 
ATOM     19  C   LIG    1       24.147 -27.084   5.439  0.00  0.00    +0.001 A 
ATOM     20  C   LIG    1       24.268 -28.315   6.089  0.00  0.00    +0.010 A 
ENDBRANCH  12  15
BRANCH   1  21
ATOM     21  O   LIG    1       26.262 -30.872  11.140  0.00  0.00    -0.416 OA
BRANCH  21  24
ATOM     22  C   LIG    1       25.233 -28.973  12.700  0.00  0.00    +0.135 C 
ATOM     23  N   LIG    1       26.514 -28.800  12.023  0.00  0.00    -0.274 N 
ATOM     24  C   LIG    1       27.120 -29.836  11.334  0.00  0.00    +0.405 C 
ATOM     25  O   LIG    1       28.287 -29.826  10.971  0.00  0.00    -0.226 OA
ATOM     26  C   LIG    1       27.315 -27.661  12.417  0.00  0.00    +0.135 C 
ENDBRANCH  21  24
ENDBRANCH   1  21
TORSDOF 3
ENDMDL
MODEL 2
REMARK VINA RESULT:      -6.5      3.343      5.418
REMARK  Name = *****
REMARK                            x       y       z     vdW  Elec       q    Type
REMARK                         _______ _______ _______ _____ _____    ______ ____
ROOT
ATOM      1  C   LIG    1       24.693 -28.265   6.469  0.00  0.00    +0.383 C 
ATOM      2  C   LIG    1       25.228 -29.466   5.641  0.00  0.00    +0.284 C 
ATOM      3  O   LIG    1       25.783 -29.306   4.545  0.00  0.00    -0.269 OA
ATOM      4  N   LIG    1       24.977 -30.758   6.146  0.00  0.00    -0.269 N 
ATOM      5  C   LIG    1       25.246 -31.869   5.241  0.00  0.00    +0.138 C 
ATOM      6  C   LIG    1       24.330 -31.019   7.399  0.00  0.00    +0.045 A 
ATOM      7  C   LIG    1       24.420 -30.158   8.512  0.00  0.00    +0.023 A 
ATOM      8  C   LIG    1       23.646 -30.378   9.665  0.00  0.00    +0.032 A 
ATOM      9  C   LIG    1       22.871 -31.525   9.769  0.00  0.00    +0.042 A 
ATOM     10  C   LIG    1       22.848 -32.446   8.730  0.00  0.00    +0.022 A 
ATOM     11 CL   LIG    1       21.976 -31.831  11.203  0.00  0.00    -0.084 Cl
ATOM     12  C   LIG    1       25.420 -29.054   8.568  0.00  0.00    +0.079 C 
ATOM     13  C   LIG    1       23.559 -32.188   7.552  0.00  0.00    +0.025 A 
ATOM     14  N   LIG    1       25.550 -28.162   7.648  0.00  0.00    -0.232 NA
ENDROOT
BRANCH  12  15
ATOM     15  C   LIG    1       26.356 -28.978   9.740  0.00  0.00    +0.001 A 
ATOM     16  C   LIG    1       27.191 -30.071  10.016  0.00  0.00    +0.010 A 
ATOM     17  C   LIG    1       28.051 -30.041  11.115  0.00  0.00    +0.001 A 
ATOM     18  C   LIG    1       28.080 -28.923  11.948  0.00  0.00    +0.000 A 
ATOM     19  C   LIG    1       27.241 -27.841  11.692  0.00  0.00    +0.001 A 
ATOM     20  C   LIG    1       26.374 -27.869  10.597  0.00  0.00    +0.010 A 
ENDBRANCH  12  15
BRANCH   1  21
ATOM     21  O   LIG    1       24.733 -27.129   5.605  0.00  0.00    -0.416 OA
BRANCH  21  24
ATOM     22  C   LIG    1       23.700 -24.859   6.543  0.00  0.00    +0.135 C 
ATOM     23  N   LIG    1       25.121 -24.988   6.242  0.00  0.00    -0.274 N 
ATOM     24  C   LIG    1       25.685 -26.204   5.896  0.00  0.00    +0.405 C 
ATOM     25  O   LIG    1       26.888 -26.421   5.881  0.00  0.00    -0.226 OA
ATOM     26  C   LIG    1       25.987 -23.920   6.693  0.00  0.00    +0.135 C 
ENDBRANCH  21  24
ENDBRANCH   1  21
TORSDOF 3
ENDMDL
MODEL 3
REMARK VINA RESULT:      -6.4      2.029      5.283
REMARK  Name = *****
REMARK                            x       y       z     vdW  Elec       q    Type
REMARK                         _______ _______ _______ _____ _____    ______ ____
ROOT
ATOM      1  C   LIG    1       23.452 -30.946   9.615  0.00  0.00    +0.383 C 
ATOM      2  C   LIG    1       24.871 -30.913  10.247  0.00  0.00    +0.284 C 
ATOM      3  O   LIG    1       25.142 -31.554  11.272  0.00  0.00    -0.269 OA
ATOM      4  N   LIG    1       25.819 -30.053   9.656  0.00  0.00    -0.269 N 
ATOM      5  C   LIG    1       27.049 -29.834  10.407  0.00  0.00    +0.138 C 
ATOM      6  C   LIG    1       25.571 -29.273   8.478  0.00  0.00    +0.045 A 
ATOM      7  C   LIG    1       24.693 -29.678   7.451  0.00  0.00    +0.023 A 
ATOM      8  C   LIG    1       24.367 -28.812   6.392  0.00  0.00    +0.032 A 
ATOM      9  C   LIG    1       25.007 -27.585   6.280  0.00  0.00    +0.042 A 
ATOM     10  C   LIG    1       25.957 -27.207   7.219  0.00  0.00    +0.022 A 
ATOM     11 CL   LIG    1       24.660 -26.553   4.950  0.00  0.00    -0.084 Cl
ATOM     12  C   LIG    1       24.169 -31.070   7.374  0.00  0.00    +0.079 C 
ATOM     13  C   LIG    1       26.225 -28.037   8.314  0.00  0.00    +0.025 A 
ATOM     14  N   LIG    1       23.579 -31.667   8.350  0.00  0.00    -0.232 NA
ENDROOT
BRANCH  12  15
ATOM     15  C   LIG    1       24.358 -31.849   6.103  0.00  0.00    +0.001 A 
ATOM     16  C   LIG    1       23.379 -32.777   5.722  0.00  0.00    +0.010 A 
ATOM     17  C   LIG    1       23.541 -33.536   4.561  0.00  0.00    +0.001 A 
ATOM     18  C   LIG    1       24.682 -33.376   3.776  0.00  0.00    +0.000 A 
ATOM     19  C   LIG    1       25.669 -32.469   4.157  0.00  0.00    +0.001 A 
ATOM     20  C   LIG    1       25.514 -31.713   5.322  0.00  0.00    +0.010 A 
ENDBRANCH  12  15
BRANCH   1  21
ATOM     21  O   LIG    1       22.597 -31.572  10.572  0.00  0.00    -0.416 OA
BRANCH  21  24
ATOM     22  C   LIG    1       20.613 -33.189   9.833  0.00  0.00    +0.135 C 
ATOM     23  N   LIG    1       20.372 -31.799  10.204  0.00  0.00    -0.274 N 
ATOM     24  C   LIG    1       21.374 -31.000  10.728  0.00  0.00    +0.405 C 
ATOM     25  O   LIG    1       21.176 -29.929  11.282  0.00  0.00    -0.226 OA
ATOM     26  C   LIG    1       18.993 -31.398  10.384  0.00  0.00    +0.135 C 
ENDBRANCH  21  24
ENDBRANCH   1  21
TORSDOF 3
ENDMDL
MODEL 4
REMARK VINA RESULT:      -6.3      3.356      5.531
REMARK  Name = *****
REMARK                            x       y       z     vdW  Elec       q    Type
REMARK                         _______ _______ _______ _____ _____    ______ ____
ROOT
ATOM      1  C   LIG    1       24.510 -28.887   6.731  0.00  0.00    +0.383 C 
ATOM      2  C   LIG    1       24.892 -30.263   6.117  0.00  0.00    +0.284 C 
ATOM      3  O   LIG    1       25.409 -30.354   4.996  0.00  0.00    -0.269 OA
ATOM      4  N   LIG    1       24.542 -31.414   6.852  0.00  0.00    -0.269 N 
ATOM      5  C   LIG    1       24.664 -32.687   6.153  0.00  0.00    +0.138 C 
ATOM      6  C   LIG    1       23.929 -31.384   8.148  0.00  0.00    +0.045 A 
ATOM      7  C   LIG    1       24.150 -30.354   9.086  0.00  0.00    +0.023 A 
ATOM      8  C   LIG    1       23.410 -30.290  10.281  0.00  0.00    +0.032 A 
ATOM      9  C   LIG    1       22.535 -31.317  10.608  0.00  0.00    +0.042 A 
ATOM     10  C   LIG    1       22.379 -32.399   9.752  0.00  0.00    +0.022 A 
ATOM     11 CL   LIG    1       21.680 -31.274  12.098  0.00  0.00    -0.084 Cl
ATOM     12  C   LIG    1       25.251 -29.365   8.917  0.00  0.00    +0.079 C 
ATOM     13  C   LIG    1       23.058 -32.424   8.528  0.00  0.00    +0.025 A 
ATOM     14  N   LIG    1       25.424 -28.666   7.849  0.00  0.00    -0.232 NA
ENDROOT
BRANCH  12  15
ATOM     15  C   LIG    1       26.241 -29.180  10.031  0.00  0.00    +0.001 A 
ATOM     16  C   LIG    1       27.256 -30.132  10.204  0.00  0.00    +0.010 A 
ATOM     17  C   LIG    1       28.173 -30.002  11.248  0.00  0.00    +0.001 A 
ATOM     18  C   LIG    1       28.082 -28.924  12.128  0.00  0.00    +0.000 A 
ATOM     19  C   LIG    1       27.065 -27.984  11.975  0.00  0.00    +0.001 A 
ATOM     20  C   LIG    1       26.141 -28.114  10.935  0.00  0.00    +0.010 A 
ENDBRANCH  12  15
BRANCH   1  21
ATOM     21  O   LIG    1       24.618 -27.929   5.677  0.00  0.00    -0.416 OA
BRANCH  21  24
ATOM     22  C   LIG    1       26.986 -26.737   5.413  0.00  0.00    +0.135 C 
ATOM     23  N   LIG    1       25.859 -26.071   6.056  0.00  0.00    -0.274 N 
ATOM     24  C   LIG    1       24.591 -26.627   6.064  0.00  0.00    +0.405 C 
ATOM     25  O   LIG    1       23.576 -26.013   6.357  0.00  0.00    -0.226 OA
ATOM     26  C   LIG    1       26.003 -24.657   6.331  0.00  0.00    +0.135 C 
ENDBRANCH  21  24
ENDBRANCH   1  21
TORSDOF 3
ENDMDL
MODEL 5
REMARK VINA RESULT:      -6.0      3.507      6.306
REMARK  Name = *****
REMARK                            x       y       z     vdW  Elec       q    Type
REMARK                         _______ _______ _______ _____ _____    ______ ____
ROOT
ATOM      1  C   LIG    1       24.438 -29.816   8.610  0.00  0.00    +0.383 C 
ATOM      2  C   LIG    1       23.947 -31.285   8.484  0.00  0.00    +0.284 C 
ATOM      3  O   LIG    1       24.349 -32.030   7.580  0.00  0.00    -0.269 OA
ATOM      4  N   LIG    1       22.956 -31.712   9.391  0.00  0.00    -0.269 N 
ATOM      5  C   LIG    1       22.321 -32.991   9.098  0.00  0.00    +0.138 C 
ATOM      6  C   LIG    1       22.435 -30.900  10.453  0.00  0.00    +0.045 A 
ATOM      7  C   LIG    1       23.192 -29.910  11.113  0.00  0.00    +0.023 A 
ATOM      8  C   LIG    1       22.594 -29.039  12.041  0.00  0.00    +0.032 A 
ATOM      9  C   LIG    1       21.269 -29.225  12.411  0.00  0.00    +0.042 A 
ATOM     10  C   LIG    1       20.530 -30.261  11.855  0.00  0.00    +0.022 A 
ATOM     11 CL   LIG    1       20.555 -28.203  13.593  0.00  0.00    -0.084 Cl
ATOM     12  C   LIG    1       24.671 -29.821  10.955  0.00  0.00    +0.079 C 
ATOM     13  C   LIG    1       21.104 -31.081  10.875  0.00  0.00    +0.025 A 
ATOM     14  N   LIG    1       25.264 -29.757   9.814  0.00  0.00    -0.232 NA
ENDROOT
BRANCH  12  15
ATOM     15  C   LIG    1       25.536 -29.833  12.183  0.00  0.00    +0.001 A 
ATOM     16  C   LIG    1       26.302 -28.699  12.487  0.00  0.00    +0.010 A 
ATOM     17  C   LIG    1       27.137 -28.692  13.605  0.00  0.00    +0.001 A 
ATOM     18  C   LIG    1       27.218 -29.817  14.424  0.00  0.00    +0.000 A 
ATOM     19  C   LIG    1       26.475 -30.956  14.119  0.00  0.00    +0.001 A 
ATOM     20  C   LIG    1       25.642 -30.969  12.996  0.00  0.00    +0.010 A 
ENDBRANCH  12  15
BRANCH   1  21
ATOM     21  O   LIG    1       25.132 -29.516   7.398  0.00  0.00    -0.416 OA
BRANCH  21  24
ATOM     22  C   LIG    1       26.077 -27.037   7.153  0.00  0.00    +0.135 C 
ATOM     23  N   LIG    1       24.850 -27.460   6.486  0.00  0.00    -0.274 N 
ATOM     24  C   LIG    1       24.436 -28.781   6.491  0.00  0.00    +0.405 C 
ATOM     25  O   LIG    1       23.571 -29.230   5.753  0.00  0.00    -0.226 OA
ATOM     26  C   LIG    1       24.295 -26.557   5.500  0.00  0.00    +0.135 C 
ENDBRANCH  21  24
ENDBRANCH   1  21
TORSDOF 3
ENDMDL
MODEL 6
REMARK VINA RESULT:      -6.0      3.742      7.187
REMARK  Name = *****
REMARK                            x       y       z     vdW  Elec       q    Type
REMARK                         _______ _______ _______ _____ _____    ______ ____
ROOT
ATOM      1  C   LIG    1       23.421 -30.292   9.863  0.00  0.00    +0.383 C 
ATOM      2  C   LIG    1       22.049 -30.789  10.397  0.00  0.00    +0.284 C 
ATOM      3  O   LIG    1       21.419 -31.693   9.831  0.00  0.00    -0.269 OA
ATOM      4  N   LIG    1       21.505 -30.108  11.504  0.00  0.00    -0.269 N 
ATOM      5  C   LIG    1       20.114 -30.406  11.826  0.00  0.00    +0.138 C 
ATOM      6  C   LIG    1       22.171 -29.045  12.200  0.00  0.00    +0.045 A 
ATOM      7  C   LIG    1       23.573 -28.954  12.315  0.00  0.00    +0.023 A 
ATOM      8  C   LIG    1       24.183 -27.816  12.874  0.00  0.00    +0.032 A 
ATOM      9  C   LIG    1       23.399 -26.816  13.434  0.00  0.00    +0.042 A 
ATOM     10  C   LIG    1       22.016 -26.932  13.431  0.00  0.00    +0.022 A 
ATOM     11 CL   LIG    1       24.143 -25.457  14.176  0.00  0.00    -0.084 Cl
ATOM     12  C   LIG    1       24.463 -30.097  11.968  0.00  0.00    +0.079 C 
ATOM     13  C   LIG    1       21.408 -28.028  12.807  0.00  0.00    +0.025 A 
ATOM     14  N   LIG    1       24.422 -30.716  10.839  0.00  0.00    -0.232 NA
ENDROOT
BRANCH  12  15
ATOM     15  C   LIG    1       25.448 -30.590  12.989  0.00  0.00    +0.001 A 
ATOM     16  C   LIG    1       25.051 -31.589  13.890  0.00  0.00    +0.010 A 
ATOM     17  C   LIG    1       25.935 -32.046  14.869  0.00  0.00    +0.001 A 
ATOM     18  C   LIG    1       27.218 -31.507  14.958  0.00  0.00    +0.000 A 
ATOM     19  C   LIG    1       27.614 -30.501  14.079  0.00  0.00    +0.001 A 
ATOM     20  C   LIG    1       26.730 -30.036  13.102  0.00  0.00    +0.010 A 
ENDBRANCH  12  15
BRANCH   1  21
ATOM     21  O   LIG    1       23.580 -30.862   8.563  0.00  0.00    -0.416 OA
BRANCH  21  24
ATOM     22  C   LIG    1       23.741 -31.996   6.157  0.00  0.00    +0.135 C 
ATOM     23  N   LIG    1       24.568 -30.852   6.523  0.00  0.00    -0.274 N 
ATOM     24  C   LIG    1       24.384 -30.170   7.714  0.00  0.00    +0.405 C 
ATOM     25  O   LIG    1       24.866 -29.073   7.956  0.00  0.00    -0.226 OA
ATOM     26  C   LIG    1       25.306 -30.208   5.457  0.00  0.00    +0.135 C 
ENDBRANCH  21  24
ENDBRANCH   1  21
TORSDOF 3
ENDMDL
MODEL 7
REMARK VINA RESULT:      -5.9      6.732      9.797
REMARK  Name = *****
REMARK                            x       y       z     vdW  Elec       q    Type
REMARK                         _______ _______ _______ _____ _____    ______ ____
ROOT
ATOM      1  C   LIG    1       25.939 -23.473   6.047  0.00  0.00    +0.383 C 
ATOM      2  C   LIG    1       24.679 -23.245   6.928  0.00  0.00    +0.284 C 
ATOM      3  O   LIG    1       24.259 -24.116   7.702  0.00  0.00    -0.269 OA
ATOM      4  N   LIG    1       23.978 -22.035   6.747  0.00  0.00    -0.269 N 
ATOM      5  C   LIG    1       22.667 -21.948   7.379  0.00  0.00    +0.138 C 
ATOM      6  C   LIG    1       24.398 -20.989   5.861  0.00  0.00    +0.045 A 
ATOM      7  C   LIG    1       25.750 -20.725   5.559  0.00  0.00    +0.023 A 
ATOM      8  C   LIG    1       26.103 -19.790   4.569  0.00  0.00    +0.032 A 
ATOM      9  C   LIG    1       25.119 -19.022   3.960  0.00  0.00    +0.042 A 
ATOM     10  C   LIG    1       23.788 -19.186   4.317  0.00  0.00    +0.022 A 
ATOM     11 CL   LIG    1       25.554 -17.833   2.798  0.00  0.00    -0.084 Cl
ATOM     12  C   LIG    1       26.860 -21.326   6.350  0.00  0.00    +0.079 C 
ATOM     13  C   LIG    1       23.430 -20.170   5.247  0.00  0.00    +0.025 A 
ATOM     14  N   LIG    1       26.976 -22.589   6.572  0.00  0.00    -0.232 NA
ENDROOT
BRANCH  12  15
ATOM     15  C   LIG    1       27.894 -20.420   6.957  0.00  0.00    +0.001 A 
ATOM     16  C   LIG    1       28.928 -19.930   6.147  0.00  0.00    +0.010 A 
ATOM     17  C   LIG    1       29.919 -19.110   6.690  0.00  0.00    +0.001 A 
ATOM     18  C   LIG    1       29.887 -18.779   8.044  0.00  0.00    +0.000 A 
ATOM     19  C   LIG    1       28.874 -19.277   8.860  0.00  0.00    +0.001 A 
ATOM     20  C   LIG    1       27.884 -20.104   8.322  0.00  0.00    +0.010 A 
ENDBRANCH  12  15
BRANCH   1  21
ATOM     21  O   LIG    1       26.245 -24.866   6.133  0.00  0.00    -0.416 OA
BRANCH  21  24
ATOM     22  C   LIG    1       25.865 -27.307   7.130  0.00  0.00    +0.135 C 
ATOM     23  N   LIG    1       25.492 -26.971   5.760  0.00  0.00    -0.274 N 
ATOM     24  C   LIG    1       25.552 -25.671   5.286  0.00  0.00    +0.405 C 
ATOM     25  O   LIG    1       25.023 -25.296   4.250  0.00  0.00    -0.226 OA
ATOM     26  C   LIG    1       24.694 -27.940   5.041  0.00  0.00    +0.135 C 
ENDBRANCH  21  24
ENDBRANCH   1  21
TORSDOF 3
ENDMDL
MODEL 8
REMARK VINA RESULT:      -5.9      6.147      9.174
REMARK  Name = *****
REMARK                            x       y       z     vdW  Elec       q    Type
REMARK                         _______ _______ _______ _____ _____    ______ ____
ROOT
ATOM      1  C   LIG    1       25.034 -24.096   5.395  0.00  0.00    +0.383 C 
ATOM      2  C   LIG    1       23.715 -23.927   6.200  0.00  0.00    +0.284 C 
ATOM      3  O   LIG    1       23.175 -24.883   6.773  0.00  0.00    -0.269 OA
ATOM      4  N   LIG    1       23.108 -22.655   6.180  0.00  0.00    -0.269 N 
ATOM      5  C   LIG    1       21.752 -22.578   6.711  0.00  0.00    +0.138 C 
ATOM      6  C   LIG    1       23.669 -21.507   5.528  0.00  0.00    +0.045 A 
ATOM      7  C   LIG    1       25.056 -21.298   5.385  0.00  0.00    +0.023 A 
ATOM      8  C   LIG    1       25.554 -20.238   4.607  0.00  0.00    +0.032 A 
ATOM      9  C   LIG    1       24.679 -19.306   4.067  0.00  0.00    +0.042 A 
ATOM     10  C   LIG    1       23.312 -19.428   4.282  0.00  0.00    +0.022 A 
ATOM     11 CL   LIG    1       25.289 -17.973   3.171  0.00  0.00    -0.084 Cl
ATOM     12  C   LIG    1       26.051 -22.107   6.145  0.00  0.00    +0.079 C 
ATOM     13  C   LIG    1       22.813 -20.525   4.993  0.00  0.00    +0.025 A 
ATOM     14  N   LIG    1       26.071 -23.395   6.149  0.00  0.00    -0.232 NA
ENDROOT
BRANCH  12  15
ATOM     15  C   LIG    1       27.078 -21.399   6.982  0.00  0.00    +0.001 A 
ATOM     16  C   LIG    1       26.650 -20.575   8.032  0.00  0.00    +0.010 A 
ATOM     17  C   LIG    1       27.580 -19.882   8.808  0.00  0.00    +0.001 A 
ATOM     18  C   LIG    1       28.942 -20.003   8.540  0.00  0.00    +0.000 A 
ATOM     19  C   LIG    1       29.376 -20.805   7.486  0.00  0.00    +0.001 A 
ATOM     20  C   LIG    1       28.448 -21.495   6.702  0.00  0.00    +0.010 A 
ENDBRANCH  12  15
BRANCH   1  21
ATOM     21  O   LIG    1       25.247 -25.502   5.259  0.00  0.00    -0.416 OA
BRANCH  21  24
ATOM     22  C   LIG    1       24.537 -28.070   5.218  0.00  0.00    +0.135 C 
ATOM     23  N   LIG    1       25.086 -27.444   6.416  0.00  0.00    -0.274 N 
ATOM     24  C   LIG    1       25.591 -26.155   6.400  0.00  0.00    +0.405 C 
ATOM     25  O   LIG    1       26.280 -25.679   7.290  0.00  0.00    -0.226 OA
ATOM     26  C   LIG    1       25.451 -28.323   7.507  0.00  0.00    +0.135 C 
ENDBRANCH  21  24
ENDBRANCH   1  21
TORSDOF 3
ENDMDL
MODEL 9
REMARK VINA RESULT:      -5.7      3.574      6.853
REMARK  Name = *****
REMARK                            x       y       z     vdW  Elec       q    Type
REMARK                         _______ _______ _______ _____ _____    ______ ____
ROOT
ATOM      1  C   LIG    1       25.283 -29.811  10.441  0.00  0.00    +0.383 C 
ATOM      2  C   LIG    1       25.306 -31.135  11.255  0.00  0.00    +0.284 C 
ATOM      3  O   LIG    1       25.921 -32.133  10.856  0.00  0.00    -0.269 OA
ATOM      4  N   LIG    1       24.523 -31.184  12.426  0.00  0.00    -0.269 N 
ATOM      5  C   LIG    1       24.345 -32.500  13.029  0.00  0.00    +0.138 C 
ATOM      6  C   LIG    1       23.776 -30.073  12.940  0.00  0.00    +0.045 A 
ATOM      7  C   LIG    1       24.169 -28.729  12.769  0.00  0.00    +0.023 A 
ATOM      8  C   LIG    1       23.326 -27.672  13.157  0.00  0.00    +0.032 A 
ATOM      9  C   LIG    1       22.143 -27.942  13.830  0.00  0.00    +0.042 A 
ATOM     10  C   LIG    1       21.783 -29.254  14.108  0.00  0.00    +0.022 A 
ATOM     11 CL   LIG    1       21.144 -26.650  14.364  0.00  0.00    -0.084 Cl
ATOM     12  C   LIG    1       25.532 -28.368  12.288  0.00  0.00    +0.079 C 
ATOM     13  C   LIG    1       22.585 -30.308  13.654  0.00  0.00    +0.025 A 
ATOM     14  N   LIG    1       26.057 -28.840  11.211  0.00  0.00    -0.232 NA
ENDROOT
BRANCH  12  15
ATOM     15  C   LIG    1       26.367 -27.426  13.108  0.00  0.00    +0.001 A 
ATOM     16  C   LIG    1       26.929 -27.884  14.308  0.00  0.00    +0.010 A 
ATOM     17  C   LIG    1       27.686 -27.023  15.104  0.00  0.00    +0.001 A 
ATOM     18  C   LIG    1       27.883 -25.700  14.712  0.00  0.00    +0.000 A 
ATOM     19  C   LIG    1       27.313 -25.232  13.530  0.00  0.00    +0.001 A 
ATOM     20  C   LIG    1       26.549 -26.088  12.733  0.00  0.00    +0.010 A 
ENDBRANCH  12  15
BRANCH   1  21
ATOM     21  O   LIG    1       25.823 -30.117   9.155  0.00  0.00    -0.416 OA
BRANCH  21  24
ATOM     22  C   LIG    1       26.553 -32.001   7.418  0.00  0.00    +0.135 C 
ATOM     23  N   LIG    1       25.376 -31.167   7.197  0.00  0.00    -0.274 N 
ATOM     24  C   LIG    1       24.911 -30.292   8.163  0.00  0.00    +0.405 C 
ATOM     25  O   LIG    1       23.809 -29.765   8.136  0.00  0.00    -0.226 OA
ATOM     26  C   LIG    1       24.488 -31.558   6.123  0.00  0.00    +0.135 C 
ENDBRANCH  21  24
ENDBRANCH   1  21
TORSDOF 3
ENDMDL
