MODEL 1
REMARK VINA RESULT:      -9.5      0.000      0.000
REMARK  Name = *****
REMARK                            x       y       z     vdW  Elec       q    Type
REMARK                         _______ _______ _______ _____ _____    ______ ____
ROOT
ATOM      1  N   LIG    1       27.164 -20.095   7.237  0.00  0.00    -0.313 N 
ATOM      2  H   LIG    1       26.379 -19.459   7.200  0.00  0.00    +0.146 HD
ATOM      3  H   LIG    1       27.926 -19.816   7.840  0.00  0.00    +0.146 HD
ATOM      4  C   LIG    1       26.907 -21.437   7.257  0.00  0.00    +0.308 C 
ATOM      5  N   LIG    1       25.734 -21.853   6.611  0.00  0.00    -0.224 N 
ATOM      6  C   LIG    1       25.370 -23.252   6.542  0.00  0.00    +0.053 A 
ATOM      7  C   LIG    1       24.045 -23.747   6.537  0.00  0.00    +0.040 A 
ATOM      8  C   LIG    1       23.813 -25.136   6.406  0.00  0.00    +0.013 A 
ATOM      9  C   LIG    1       24.863 -26.042   6.291  0.00  0.00    +0.001 A 
ATOM     10  C   LIG    1       26.165 -25.573   6.304  0.00  0.00    +0.002 A 
ATOM     11  C   LIG    1       22.813 -22.927   6.760  0.00  0.00    +0.169 C 
ATOM     12  O   LIG    1       21.706 -23.468   6.788  0.00  0.00    -0.292 OA
ATOM     13  C   LIG    1       22.934 -21.449   7.001  0.00  0.00    +0.116 C 
ATOM     14  C   LIG    1       23.655 -20.777   5.875  0.00  0.00    -0.018 A 
ATOM     15  C   LIG    1       22.976 -19.924   4.994  0.00  0.00    +0.006 A 
ATOM     16  C   LIG    1       23.660 -19.284   3.962  0.00  0.00    +0.000 A 
ATOM     17  C   LIG    1       25.027 -19.494   3.800  0.00  0.00    +0.002 A 
ATOM     18  C   LIG    1       25.707 -20.345   4.670  0.00  0.00    +0.024 A 
ATOM     19  C   LIG    1       26.410 -24.203   6.425  0.00  0.00    +0.024 A 
ATOM     20  C   LIG    1       25.026 -20.999   5.710  0.00  0.00    +0.046 A 
ATOM     21  O   LIG    1       27.683 -22.142   7.900  0.00  0.00    -0.252 OA
ENDROOT
TORSDOF 0
ENDMDL
MODEL 2
REMARK VINA RESULT:      -8.8      2.348      4.700
REMARK  Name = *****
REMARK                            x       y       z     vdW  Elec       q    Type
REMARK                         _______ _______ _______ _____ _____    ______ ____
ROOT
ATOM      1  N   LIG    1       23.969 -20.616   3.489  0.00  0.00    -0.313 N 
ATOM      2  H   LIG    1       23.251 -21.048   4.054  0.00  0.00    +0.146 HD
ATOM      3  H   LIG    1       23.639 -20.040   2.726  0.00  0.00    +0.146 HD
ATOM      4  C   LIG    1       25.075 -20.116   4.119  0.00  0.00    +0.308 C 
ATOM      5  N   LIG    1       25.449 -20.754   5.311  0.00  0.00    -0.224 N 
ATOM      6  C   LIG    1       26.618 -20.332   6.052  0.00  0.00    +0.053 A 
ATOM      7  C   LIG    1       26.751 -20.390   7.460  0.00  0.00    +0.040 A 
ATOM      8  C   LIG    1       27.967 -20.003   8.069  0.00  0.00    +0.013 A 
ATOM      9  C   LIG    1       29.048 -19.553   7.315  0.00  0.00    +0.001 A 
ATOM     10  C   LIG    1       28.929 -19.482   5.939  0.00  0.00    +0.002 A 
ATOM     11  C   LIG    1       25.658 -20.744   8.419  0.00  0.00    +0.169 C 
ATOM     12  O   LIG    1       25.867 -20.712   9.633  0.00  0.00    -0.292 OA
ATOM     13  C   LIG    1       24.291 -21.088   7.899  0.00  0.00    +0.116 C 
ATOM     14  C   LIG    1       24.353 -22.230   6.935  0.00  0.00    -0.018 A 
ATOM     15  C   LIG    1       23.833 -23.487   7.275  0.00  0.00    +0.006 A 
ATOM     16  C   LIG    1       23.874 -24.539   6.362  0.00  0.00    +0.000 A 
ATOM     17  C   LIG    1       24.437 -24.345   5.104  0.00  0.00    +0.002 A 
ATOM     18  C   LIG    1       24.962 -23.099   4.762  0.00  0.00    +0.024 A 
ATOM     19  C   LIG    1       27.736 -19.867   5.321  0.00  0.00    +0.024 A 
ATOM     20  C   LIG    1       24.930 -22.034   5.676  0.00  0.00    +0.046 A 
ATOM     21  O   LIG    1       25.590 -19.114   3.627  0.00  0.00    -0.252 OA
ENDROOT
TORSDOF 0
ENDMDL
MODEL 3
REMARK VINA RESULT:      -8.6      1.876      5.165
REMARK  Name = *****
REMARK                            x       y       z     vdW  Elec       q    Type
REMARK                         _______ _______ _______ _____ _____    ______ ____
ROOT
ATOM      1  N   LIG    1       22.565 -21.863   5.366  0.00  0.00    -0.313 N 
ATOM      2  H   LIG    1       22.556 -22.601   6.058  0.00  0.00    +0.146 HD
ATOM      3  H   LIG    1       21.676 -21.413   5.194  0.00  0.00    +0.146 HD
ATOM      4  C   LIG    1       23.630 -21.006   5.349  0.00  0.00    +0.308 C 
ATOM      5  N   LIG    1       24.854 -21.531   5.790  0.00  0.00    -0.224 N 
ATOM      6  C   LIG    1       26.058 -20.729   5.791  0.00  0.00    +0.053 A 
ATOM      7  C   LIG    1       27.112 -20.848   6.727  0.00  0.00    +0.040 A 
ATOM      8  C   LIG    1       28.268 -20.045   6.592  0.00  0.00    +0.013 A 
ATOM      9  C   LIG    1       28.398 -19.125   5.556  0.00  0.00    +0.001 A 
ATOM     10  C   LIG    1       27.372 -18.991   4.638  0.00  0.00    +0.002 A 
ATOM     11  C   LIG    1       27.087 -21.705   7.954  0.00  0.00    +0.169 C 
ATOM     12  O   LIG    1       28.041 -21.693   8.735  0.00  0.00    -0.292 OA
ATOM     13  C   LIG    1       25.875 -22.537   8.259  0.00  0.00    +0.116 C 
ATOM     14  C   LIG    1       25.560 -23.464   7.127  0.00  0.00    -0.018 A 
ATOM     15  C   LIG    1       25.746 -24.847   7.257  0.00  0.00    +0.006 A 
ATOM     16  C   LIG    1       25.428 -25.704   6.206  0.00  0.00    +0.000 A 
ATOM     17  C   LIG    1       24.924 -25.187   5.016  0.00  0.00    +0.002 A 
ATOM     18  C   LIG    1       24.742 -23.811   4.878  0.00  0.00    +0.024 A 
ATOM     19  C   LIG    1       26.225 -19.781   4.755  0.00  0.00    +0.024 A 
ATOM     20  C   LIG    1       25.064 -22.938   5.929  0.00  0.00    +0.046 A 
ATOM     21  O   LIG    1       23.403 -19.843   5.024  0.00  0.00    -0.252 OA
ENDROOT
TORSDOF 0
ENDMDL
MODEL 4
REMARK VINA RESULT:      -7.2      1.975      2.785
REMARK  Name = *****
REMARK                            x       y       z     vdW  Elec       q    Type
REMARK                         _______ _______ _______ _____ _____    ______ ____
ROOT
ATOM      1  N   LIG    1       26.230 -20.278   9.201  0.00  0.00    -0.313 N 
ATOM      2  H   LIG    1       26.167 -19.445   8.631  0.00  0.00    +0.146 HD
ATOM      3  H   LIG    1       25.990 -20.161  10.176  0.00  0.00    +0.146 HD
ATOM      4  C   LIG    1       25.803 -21.461   8.665  0.00  0.00    +0.308 C 
ATOM      5  N   LIG    1       25.918 -21.587   7.272  0.00  0.00    -0.224 N 
ATOM      6  C   LIG    1       25.525 -22.803   6.594  0.00  0.00    +0.053 A 
ATOM      7  C   LIG    1       24.985 -22.866   5.288  0.00  0.00    +0.040 A 
ATOM      8  C   LIG    1       24.693 -24.121   4.706  0.00  0.00    +0.013 A 
ATOM      9  C   LIG    1       24.915 -25.311   5.393  0.00  0.00    +0.001 A 
ATOM     10  C   LIG    1       25.434 -25.265   6.675  0.00  0.00    +0.002 A 
ATOM     11  C   LIG    1       24.586 -21.686   4.459  0.00  0.00    +0.169 C 
ATOM     12  O   LIG    1       24.073 -21.854   3.350  0.00  0.00    -0.292 OA
ATOM     13  C   LIG    1       24.762 -20.297   5.003  0.00  0.00    +0.116 C 
ATOM     14  C   LIG    1       26.187 -20.045   5.383  0.00  0.00    -0.018 A 
ATOM     15  C   LIG    1       26.984 -19.161   4.642  0.00  0.00    +0.006 A 
ATOM     16  C   LIG    1       28.303 -18.914   5.017  0.00  0.00    +0.000 A 
ATOM     17  C   LIG    1       28.838 -19.551   6.133  0.00  0.00    +0.002 A 
ATOM     18  C   LIG    1       28.053 -20.437   6.871  0.00  0.00    +0.024 A 
ATOM     19  C   LIG    1       25.735 -24.033   7.261  0.00  0.00    +0.024 A 
ATOM     20  C   LIG    1       26.724 -20.696   6.499  0.00  0.00    +0.046 A 
ATOM     21  O   LIG    1       25.292 -22.269   9.437  0.00  0.00    -0.252 OA
ENDROOT
TORSDOF 0
ENDMDL
MODEL 5
REMARK VINA RESULT:      -7.0      1.947      4.430
REMARK  Name = *****
REMARK                            x       y       z     vdW  Elec       q    Type
REMARK                         _______ _______ _______ _____ _____    ______ ____
ROOT
ATOM      1  N   LIG    1       24.161 -23.567   5.382  0.00  0.00    -0.313 N 
ATOM      2  H   LIG    1       23.820 -23.049   4.584  0.00  0.00    +0.146 HD
ATOM      3  H   LIG    1       24.088 -24.573   5.316  0.00  0.00    +0.146 HD
ATOM      4  C   LIG    1       25.307 -23.136   5.990  0.00  0.00    +0.308 C 
ATOM      5  N   LIG    1       25.565 -21.759   5.920  0.00  0.00    -0.224 N 
ATOM      6  C   LIG    1       26.733 -21.181   6.550  0.00  0.00    +0.053 A 
ATOM      7  C   LIG    1       27.443 -20.056   6.066  0.00  0.00    +0.040 A 
ATOM      8  C   LIG    1       28.537 -19.546   6.801  0.00  0.00    +0.013 A 
ATOM      9  C   LIG    1       28.947 -20.128   7.997  0.00  0.00    +0.001 A 
ATOM     10  C   LIG    1       28.267 -21.234   8.478  0.00  0.00    +0.002 A 
ATOM     11  C   LIG    1       27.204 -19.381   4.752  0.00  0.00    +0.169 C 
ATOM     12  O   LIG    1       27.918 -18.439   4.402  0.00  0.00    -0.292 OA
ATOM     13  C   LIG    1       26.126 -19.889   3.837  0.00  0.00    +0.116 C 
ATOM     14  C   LIG    1       24.796 -19.894   4.523  0.00  0.00    -0.018 A 
ATOM     15  C   LIG    1       23.791 -18.990   4.150  0.00  0.00    +0.006 A 
ATOM     16  C   LIG    1       22.548 -19.018   4.778  0.00  0.00    +0.000 A 
ATOM     17  C   LIG    1       22.299 -19.946   5.785  0.00  0.00    +0.002 A 
ATOM     18  C   LIG    1       23.297 -20.844   6.165  0.00  0.00    +0.024 A 
ATOM     19  C   LIG    1       27.180 -21.747   7.766  0.00  0.00    +0.024 A 
ATOM     20  C   LIG    1       24.555 -20.821   5.542  0.00  0.00    +0.046 A 
ATOM     21  O   LIG    1       26.039 -23.998   6.472  0.00  0.00    -0.252 OA
ENDROOT
TORSDOF 0
ENDMDL
