MODEL 1
REMARK VINA RESULT:      -5.8      0.000      0.000
REMARK  Name = *****
REMARK                            x       y       z     vdW  Elec       q    Type
REMARK                         _______ _______ _______ _____ _____    ______ ____
ROOT
ATOM      1  C   UNK A  0       25.961 -28.124  11.959  0.00  0.00    +0.246 C 
ATOM      2  N   UNK A  2       25.550 -29.320  11.406  0.00  0.00    -0.298 N 
ATOM      3  H   ACE A  1       24.683 -29.722  11.779  0.00  0.00    +0.150 HD
ATOM      4  O   UNK A  0       26.869 -27.446  11.473  0.00  0.00    -0.270 OA
ENDROOT
BRANCH   2   5
ATOM      5  C   UNK A  2       26.164 -29.914  10.184  0.00  0.00    +0.191 C 
ATOM      6  C   UNK A  2       25.530 -31.186   9.529  0.00  0.00    +0.169 C 
ATOM      7  N   UNK A  2       25.111 -30.330   8.433  0.00  0.00    -0.249 N 
ATOM      8  C   UNK A  2       24.443 -30.816   7.353  0.00  0.00    +0.119 C 
ATOM      9  C   UNK A  2       23.725 -31.947   7.481  0.00  0.00    +0.014 C 
ATOM     10  C   UNK A  2       23.474 -32.727   8.740  0.00  0.00    +0.100 C 
ATOM     11  S   UNK A  2       24.039 -31.904  10.264  0.00  0.00    -0.131 S 
ATOM     12  C   UNK A  2       25.774 -29.234   8.822  0.00  0.00    +0.244 C 
ATOM     13  O   UNK A  2       25.885 -28.157   8.254  0.00  0.00    -0.273 OA
BRANCH   8  14
ATOM     14  C   UNK A  2       24.462 -30.165   6.003  0.00  0.00    +0.351 C 
ATOM     15  O   UNK A  2       25.486 -30.077   5.336  0.00  0.00    -0.244 OA
BRANCH  14  16
ATOM     16  O   UNK A  2       23.290 -29.684   5.553  0.00  0.00    -0.476 OA
ATOM     17  H   UNK A  2       22.870 -30.165   4.806  0.00  0.00    +0.295 HD
ENDBRANCH  14  16
ENDBRANCH   8  14
ENDBRANCH   2   5
BRANCH   1  18
ATOM     18  C   UNK A  0       25.201 -27.654  13.188  0.00  0.00    +0.059 C 
ATOM     19  C   UNK A  0       25.866 -27.168  14.266  0.00  0.00    -0.001 C 
BRANCH  18  23
ATOM     20  C   UNK A  0       21.729 -28.335  12.685  0.00  0.00    +0.156 A 
ATOM     21  S   UNK A  0       21.365 -26.759  13.262  0.00  0.00    -0.060 S 
ATOM     22  C   UNK A  0       23.028 -26.481  13.514  0.00  0.00    +0.077 A 
ATOM     23  C   UNK A  0       23.756 -27.601  13.158  0.00  0.00    +0.085 A 
ATOM     24  N   UNK A  0       23.001 -28.664  12.686  0.00  0.00    -0.225 NA
BRANCH  20  25
ATOM     25  N   UNK A  0       20.748 -29.133  12.251  0.00  0.00    -0.338 N 
ATOM     26  H   UNK A  0       20.335 -29.812  12.879  0.00  0.00    +0.144 HD
ATOM     27  H   UNK A  0       20.645 -29.317  11.262  0.00  0.00    +0.144 HD
ENDBRANCH  20  25
ENDBRANCH  18  23
BRANCH  19  28
ATOM     28  C   UNK A  0       27.326 -26.939  14.531  0.00  0.00    +0.148 C 
BRANCH  28  29
ATOM     29  C   UNK A  0       27.679 -25.466  14.410  0.00  0.00    +0.308 C 
ATOM     30  O   UNK A  0       27.822 -24.717  15.367  0.00  0.00    -0.251 OA
BRANCH  29  31
ATOM     31  O   UNK A  0       27.782 -25.039  13.130  0.00  0.00    -0.480 OA
ATOM     32  H   UNK A  0       26.913 -24.799  12.731  0.00  0.00    +0.295 HD
ENDBRANCH  29  31
ENDBRANCH  28  29
ENDBRANCH  19  28
ENDBRANCH   1  18
TORSDOF 9
ENDMDL
MODEL 2
REMARK VINA RESULT:      -5.6      9.122     11.516
REMARK  Name = *****
REMARK                            x       y       z     vdW  Elec       q    Type
REMARK                         _______ _______ _______ _____ _____    ______ ____
ROOT
ATOM      1  C   UNK A  0       25.389 -21.815   7.064  0.00  0.00    +0.246 C 
ATOM      2  N   UNK A  2       26.670 -21.485   6.669  0.00  0.00    -0.298 N 
ATOM      3  H   ACE A  1       26.773 -21.109   5.721  0.00  0.00    +0.150 HD
ATOM      4  O   UNK A  0       25.106 -22.092   8.231  0.00  0.00    -0.270 OA
ENDROOT
BRANCH   2   5
ATOM      5  C   UNK A  2       27.831 -21.443   7.602  0.00  0.00    +0.191 C 
ATOM      6  C   UNK A  2       29.180 -20.796   7.143  0.00  0.00    +0.169 C 
ATOM      7  N   UNK A  2       28.895 -19.710   8.064  0.00  0.00    -0.249 N 
ATOM      8  C   UNK A  2       29.751 -18.667   8.236  0.00  0.00    +0.119 C 
ATOM      9  C   UNK A  2       30.600 -18.346   7.243  0.00  0.00    +0.014 C 
ATOM     10  C   UNK A  2       30.666 -18.953   5.871  0.00  0.00    +0.100 C 
ATOM     11  S   UNK A  2       29.297 -20.089   5.481  0.00  0.00    -0.131 S 
ATOM     12  C   UNK A  2       27.828 -20.269   8.647  0.00  0.00    +0.244 C 
ATOM     13  O   UNK A  2       27.162 -19.864   9.589  0.00  0.00    -0.273 OA
BRANCH   8  14
ATOM     14  C   UNK A  2       29.813 -17.842   9.486  0.00  0.00    +0.351 C 
ATOM     15  O   UNK A  2       29.800 -16.617   9.460  0.00  0.00    -0.244 OA
BRANCH  14  16
ATOM     16  O   UNK A  2       29.877 -18.517  10.647  0.00  0.00    -0.476 OA
ATOM     17  H   UNK A  2       29.325 -18.181  11.387  0.00  0.00    +0.295 HD
ENDBRANCH  14  16
ENDBRANCH   8  14
ENDBRANCH   2   5
BRANCH   1  18
ATOM     18  C   UNK A  0       24.321 -21.777   5.984  0.00  0.00    +0.059 C 
ATOM     19  C   UNK A  0       23.389 -22.761   5.900  0.00  0.00    -0.001 C 
BRANCH  18  23
ATOM     20  C   UNK A  0       24.981 -18.982   3.857  0.00  0.00    +0.156 A 
ATOM     21  S   UNK A  0       23.312 -18.580   3.916  0.00  0.00    -0.060 S 
ATOM     22  C   UNK A  0       23.032 -19.938   4.908  0.00  0.00    +0.077 A 
ATOM     23  C   UNK A  0       24.215 -20.620   5.123  0.00  0.00    +0.085 A 
ATOM     24  N   UNK A  0       25.330 -20.067   4.512  0.00  0.00    -0.225 NA
BRANCH  20  25
ATOM     25  N   UNK A  0       25.836 -18.200   3.192  0.00  0.00    -0.338 N 
ATOM     26  H   UNK A  0       26.834 -18.337   3.299  0.00  0.00    +0.144 HD
ATOM     27  H   UNK A  0       25.542 -17.288   2.869  0.00  0.00    +0.144 HD
ENDBRANCH  20  25
ENDBRANCH  18  23
BRANCH  19  28
ATOM     28  C   UNK A  0       23.134 -23.981   6.736  0.00  0.00    +0.148 C 
BRANCH  28  29
ATOM     29  C   UNK A  0       24.068 -25.116   6.348  0.00  0.00    +0.308 C 
ATOM     30  O   UNK A  0       25.193 -25.260   6.806  0.00  0.00    -0.251 OA
BRANCH  29  31
ATOM     31  O   UNK A  0       23.554 -25.939   5.406  0.00  0.00    -0.480 OA
ATOM     32  H   UNK A  0       24.245 -26.424   4.896  0.00  0.00    +0.295 HD
ENDBRANCH  29  31
ENDBRANCH  28  29
ENDBRANCH  19  28
ENDBRANCH   1  18
TORSDOF 9
ENDMDL
MODEL 3
REMARK VINA RESULT:      -5.6      3.473      7.898
REMARK  Name = *****
REMARK                            x       y       z     vdW  Elec       q    Type
REMARK                         _______ _______ _______ _____ _____    ______ ____
ROOT
ATOM      1  C   UNK A  0       24.315 -31.304   7.338  0.00  0.00    +0.246 C 
ATOM      2  N   UNK A  2       24.898 -30.876   8.513  0.00  0.00    -0.298 N 
ATOM      3  H   ACE A  1       25.640 -30.172   8.426  0.00  0.00    +0.150 HD
ATOM      4  O   UNK A  0       23.294 -31.993   7.317  0.00  0.00    -0.270 OA
ENDROOT
BRANCH   2   5
ATOM      5  C   UNK A  2       24.365 -31.212   9.864  0.00  0.00    +0.191 C 
ATOM      6  C   UNK A  2       24.860 -30.420  11.120  0.00  0.00    +0.169 C 
ATOM      7  N   UNK A  2       23.541 -29.814  11.174  0.00  0.00    -0.249 N 
ATOM      8  C   UNK A  2       23.195 -28.927  12.145  0.00  0.00    +0.119 C 
ATOM      9  C   UNK A  2       24.160 -28.216  12.758  0.00  0.00    +0.014 C 
ATOM     10  C   UNK A  2       25.625 -28.201  12.430  0.00  0.00    +0.100 C 
ATOM     11  S   UNK A  2       26.066 -29.088  10.901  0.00  0.00    -0.131 S 
ATOM     12  C   UNK A  2       22.975 -30.575  10.229  0.00  0.00    +0.244 C 
ATOM     13  O   UNK A  2       21.812 -30.601   9.854  0.00  0.00    -0.273 OA
BRANCH   8  14
ATOM     14  C   UNK A  2       21.783 -28.692  12.589  0.00  0.00    +0.351 C 
ATOM     15  O   UNK A  2       21.345 -27.567  12.803  0.00  0.00    -0.244 OA
BRANCH  14  16
ATOM     16  O   UNK A  2       21.010 -29.782  12.735  0.00  0.00    -0.476 OA
ATOM     17  H   UNK A  2       20.336 -29.757  13.450  0.00  0.00    +0.295 HD
ENDBRANCH  14  16
ENDBRANCH   8  14
ENDBRANCH   2   5
BRANCH   1  18
ATOM     18  C   UNK A  0       24.977 -30.840   6.050  0.00  0.00    +0.059 C 
ATOM     19  C   UNK A  0       24.957 -29.530   5.698  0.00  0.00    -0.001 C 
BRANCH  18  23
ATOM     20  C   UNK A  0       26.262 -32.933   3.454  0.00  0.00    +0.156 A 
ATOM     21  S   UNK A  0       27.344 -33.631   4.592  0.00  0.00    -0.060 S 
ATOM     22  C   UNK A  0       26.724 -32.597   5.797  0.00  0.00    +0.077 A 
ATOM     23  C   UNK A  0       25.746 -31.779   5.264  0.00  0.00    +0.085 A 
ATOM     24  N   UNK A  0       25.489 -31.975   3.915  0.00  0.00    -0.225 NA
BRANCH  20  25
ATOM     25  N   UNK A  0       26.229 -33.384   2.196  0.00  0.00    -0.338 N 
ATOM     26  H   UNK A  0       26.944 -33.097   1.539  0.00  0.00    +0.144 HD
ATOM     27  H   UNK A  0       25.359 -33.708   1.797  0.00  0.00    +0.144 HD
ENDBRANCH  20  25
ENDBRANCH  18  23
BRANCH  19  28
ATOM     28  C   UNK A  0       24.401 -28.311   6.375  0.00  0.00    +0.148 C 
BRANCH  28  29
ATOM     29  C   UNK A  0       24.679 -27.058   5.562  0.00  0.00    +0.308 C 
ATOM     30  O   UNK A  0       25.752 -26.815   5.028  0.00  0.00    -0.251 OA
BRANCH  29  31
ATOM     31  O   UNK A  0       23.632 -26.202   5.516  0.00  0.00    -0.480 OA
ATOM     32  H   UNK A  0       23.869 -25.285   5.790  0.00  0.00    +0.295 HD
ENDBRANCH  29  31
ENDBRANCH  28  29
ENDBRANCH  19  28
ENDBRANCH   1  18
TORSDOF 9
ENDMDL
MODEL 4
REMARK VINA RESULT:      -5.5      1.598      2.041
REMARK  Name = *****
REMARK                            x       y       z     vdW  Elec       q    Type
REMARK                         _______ _______ _______ _____ _____    ______ ____
ROOT
ATOM      1  C   UNK A  0       26.231 -28.531  11.754  0.00  0.00    +0.246 C 
ATOM      2  N   UNK A  2       25.969 -29.719  11.101  0.00  0.00    -0.298 N 
ATOM      3  H   ACE A  1       25.247 -30.318  11.515  0.00  0.00    +0.150 HD
ATOM      4  O   UNK A  0       26.928 -27.643  11.261  0.00  0.00    -0.270 OA
ENDROOT
BRANCH   2   5
ATOM      5  C   UNK A  2       26.509 -30.050   9.752  0.00  0.00    +0.191 C 
ATOM      6  C   UNK A  2       25.923 -31.260   8.950  0.00  0.00    +0.169 C 
ATOM      7  N   UNK A  2       25.331 -30.287   8.049  0.00  0.00    -0.249 N 
ATOM      8  C   UNK A  2       24.604 -30.661   6.961  0.00  0.00    +0.119 C 
ATOM      9  C   UNK A  2       23.999 -31.864   6.960  0.00  0.00    +0.014 C 
ATOM     10  C   UNK A  2       23.937 -32.852   8.089  0.00  0.00    +0.100 C 
ATOM     11  S   UNK A  2       24.576 -32.227   9.676  0.00  0.00    -0.131 S 
ATOM     12  C   UNK A  2       25.934 -29.206   8.558  0.00  0.00    +0.244 C 
ATOM     13  O   UNK A  2       25.899 -28.048   8.169  0.00  0.00    -0.273 OA
BRANCH   8  14
ATOM     14  C   UNK A  2       24.437 -29.807   5.741  0.00  0.00    +0.351 C 
ATOM     15  O   UNK A  2       25.395 -29.409   5.088  0.00  0.00    -0.244 OA
BRANCH  14  16
ATOM     16  O   UNK A  2       23.176 -29.503   5.390  0.00  0.00    -0.476 OA
ATOM     17  H   UNK A  2       22.492 -29.563   6.094  0.00  0.00    +0.295 HD
ENDBRANCH  14  16
ENDBRANCH   8  14
ENDBRANCH   2   5
BRANCH   1  18
ATOM     18  C   UNK A  0       25.571 -28.350  13.111  0.00  0.00    +0.059 C 
ATOM     19  C   UNK A  0       26.298 -28.460  14.252  0.00  0.00    -0.001 C 
BRANCH  18  23
ATOM     20  C   UNK A  0       22.017 -28.094  12.833  0.00  0.00    +0.156 A 
ATOM     21  S   UNK A  0       22.110 -26.505  13.480  0.00  0.00    -0.060 S 
ATOM     22  C   UNK A  0       23.800 -26.675  13.622  0.00  0.00    +0.077 A 
ATOM     23  C   UNK A  0       24.190 -27.927  13.184  0.00  0.00    +0.085 A 
ATOM     24  N   UNK A  0       23.159 -28.738  12.737  0.00  0.00    -0.225 NA
BRANCH  20  25
ATOM     25  N   UNK A  0       20.839 -28.593  12.448  0.00  0.00    -0.338 N 
ATOM     26  H   UNK A  0       20.003 -28.385  12.980  0.00  0.00    +0.144 HD
ATOM     27  H   UNK A  0       20.805 -29.422  11.869  0.00  0.00    +0.144 HD
ENDBRANCH  20  25
ENDBRANCH  18  23
BRANCH  19  28
ATOM     28  C   UNK A  0       27.757 -28.716  14.497  0.00  0.00    +0.148 C 
BRANCH  28  29
ATOM     29  C   UNK A  0       28.089 -30.190  14.333  0.00  0.00    +0.308 C 
ATOM     30  O   UNK A  0       27.318 -31.015  13.863  0.00  0.00    -0.251 OA
BRANCH  29  31
ATOM     31  O   UNK A  0       29.315 -30.522  14.800  0.00  0.00    -0.480 OA
ATOM     32  H   UNK A  0       29.710 -29.828  15.378  0.00  0.00    +0.295 HD
ENDBRANCH  29  31
ENDBRANCH  28  29
ENDBRANCH  19  28
ENDBRANCH   1  18
TORSDOF 9
ENDMDL
MODEL 5
REMARK VINA RESULT:      -5.5      9.157     10.500
REMARK  Name = *****
REMARK                            x       y       z     vdW  Elec       q    Type
REMARK                         _______ _______ _______ _____ _____    ______ ____
ROOT
ATOM      1  C   UNK A  0       28.478 -20.755   7.942  0.00  0.00    +0.246 C 
ATOM      2  N   UNK A  2       27.105 -20.777   7.804  0.00  0.00    -0.298 N 
ATOM      3  H   ACE A  1       26.692 -20.040   7.222  0.00  0.00    +0.150 HD
ATOM      4  O   UNK A  0       29.108 -21.684   8.448  0.00  0.00    -0.270 OA
ENDROOT
BRANCH   2   5
ATOM      5  C   UNK A  2       26.252 -21.911   8.261  0.00  0.00    +0.191 C 
ATOM      6  C   UNK A  2       24.718 -21.911   7.950  0.00  0.00    +0.169 C 
ATOM      7  N   UNK A  2       24.977 -22.989   7.012  0.00  0.00    -0.249 N 
ATOM      8  C   UNK A  2       23.980 -23.582   6.302  0.00  0.00    +0.119 C 
ATOM      9  C   UNK A  2       22.848 -22.893   6.061  0.00  0.00    +0.014 C 
ATOM     10  C   UNK A  2       22.567 -21.459   6.404  0.00  0.00    +0.100 C 
ATOM     11  S   UNK A  2       24.009 -20.531   7.017  0.00  0.00    -0.131 S 
ATOM     12  C   UNK A  2       26.259 -23.186   7.342  0.00  0.00    +0.244 C 
ATOM     13  O   UNK A  2       27.036 -24.040   6.941  0.00  0.00    -0.273 OA
BRANCH   8  14
ATOM     14  C   UNK A  2       24.059 -24.980   5.767  0.00  0.00    +0.351 C 
ATOM     15  O   UNK A  2       23.641 -25.944   6.398  0.00  0.00    -0.244 OA
BRANCH  14  16
ATOM     16  O   UNK A  2       24.610 -25.125   4.550  0.00  0.00    -0.476 OA
ATOM     17  H   UNK A  2       25.590 -25.195   4.510  0.00  0.00    +0.295 HD
ENDBRANCH  14  16
ENDBRANCH   8  14
ENDBRANCH   2   5
BRANCH   1  18
ATOM     18  C   UNK A  0       29.190 -19.530   7.391  0.00  0.00    +0.059 C 
ATOM     19  C   UNK A  0       28.895 -19.059   6.153  0.00  0.00    -0.001 C 
BRANCH  18  23
ATOM     20  C   UNK A  0       30.663 -17.602  10.015  0.00  0.00    +0.156 A 
ATOM     21  S   UNK A  0       32.096 -17.473   9.078  0.00  0.00    -0.060 S 
ATOM     22  C   UNK A  0       31.369 -18.418   7.859  0.00  0.00    +0.077 A 
ATOM     23  C   UNK A  0       30.092 -18.785   8.241  0.00  0.00    +0.085 A 
ATOM     24  N   UNK A  0       29.695 -18.315   9.484  0.00  0.00    -0.225 NA
BRANCH  20  25
ATOM     25  N   UNK A  0       30.576 -16.981  11.196  0.00  0.00    -0.338 N 
ATOM     26  H   UNK A  0       31.298 -17.118  11.893  0.00  0.00    +0.144 HD
ATOM     27  H   UNK A  0       29.677 -16.669  11.539  0.00  0.00    +0.144 HD
ENDBRANCH  20  25
ENDBRANCH  18  23
BRANCH  19  28
ATOM     28  C   UNK A  0       27.903 -19.500   5.116  0.00  0.00    +0.148 C 
BRANCH  28  29
ATOM     29  C   UNK A  0       27.385 -18.317   4.316  0.00  0.00    +0.308 C 
ATOM     30  O   UNK A  0       26.311 -18.306   3.731  0.00  0.00    -0.251 OA
BRANCH  29  31
ATOM     31  O   UNK A  0       28.250 -17.277   4.269  0.00  0.00    -0.480 OA
ATOM     32  H   UNK A  0       28.154 -16.730   3.455  0.00  0.00    +0.295 HD
ENDBRANCH  29  31
ENDBRANCH  28  29
ENDBRANCH  19  28
ENDBRANCH   1  18
TORSDOF 9
ENDMDL
MODEL 6
REMARK VINA RESULT:      -5.5      3.449      6.779
REMARK  Name = *****
REMARK                            x       y       z     vdW  Elec       q    Type
REMARK                         _______ _______ _______ _____ _____    ______ ____
ROOT
ATOM      1  C   UNK A  0       24.791 -30.071  10.905  0.00  0.00    +0.246 C 
ATOM      2  N   UNK A  2       23.979 -29.184  11.583  0.00  0.00    -0.298 N 
ATOM      3  H   ACE A  1       23.901 -28.242  11.187  0.00  0.00    +0.150 HD
ATOM      4  O   UNK A  0       24.818 -31.276  11.163  0.00  0.00    -0.270 OA
ENDROOT
BRANCH   2   5
ATOM      5  C   UNK A  2       23.072 -29.588  12.695  0.00  0.00    +0.191 C 
ATOM      6  C   UNK A  2       22.928 -28.673  13.957  0.00  0.00    +0.169 C 
ATOM      7  N   UNK A  2       21.587 -28.360  13.493  0.00  0.00    -0.249 N 
ATOM      8  C   UNK A  2       20.756 -27.540  14.190  0.00  0.00    +0.119 C 
ATOM      9  C   UNK A  2       21.286 -26.623  15.021  0.00  0.00    +0.014 C 
ATOM     10  C   UNK A  2       22.741 -26.307  15.217  0.00  0.00    +0.100 C 
ATOM     11  S   UNK A  2       23.858 -27.122  14.032  0.00  0.00    -0.131 S 
ATOM     12  C   UNK A  2       21.551 -29.250  12.493  0.00  0.00    +0.244 C 
ATOM     13  O   UNK A  2       20.626 -29.533  11.747  0.00  0.00    -0.273 OA
BRANCH   8  14
ATOM     14  C   UNK A  2       19.262 -27.597  14.095  0.00  0.00    +0.351 C 
ATOM     15  O   UNK A  2       18.565 -26.591  14.154  0.00  0.00    -0.244 OA
BRANCH  14  16
ATOM     16  O   UNK A  2       18.717 -28.816  13.934  0.00  0.00    -0.476 OA
ATOM     17  H   UNK A  2       18.964 -29.309  13.120  0.00  0.00    +0.295 HD
ENDBRANCH  14  16
ENDBRANCH   8  14
ENDBRANCH   2   5
BRANCH   1  18
ATOM     18  C   UNK A  0       25.629 -29.490   9.778  0.00  0.00    +0.059 C 
ATOM     19  C   UNK A  0       26.699 -28.702  10.050  0.00  0.00    -0.001 C 
BRANCH  18  23
ATOM     20  C   UNK A  0       24.421 -29.729   6.423  0.00  0.00    +0.156 A 
ATOM     21  S   UNK A  0       25.218 -31.243   6.274  0.00  0.00    -0.060 S 
ATOM     22  C   UNK A  0       25.797 -31.081   7.869  0.00  0.00    +0.077 A 
ATOM     23  C   UNK A  0       25.364 -29.886   8.412  0.00  0.00    +0.085 A 
ATOM     24  N   UNK A  0       24.577 -29.113   7.573  0.00  0.00    -0.225 NA
BRANCH  20  25
ATOM     25  N   UNK A  0       23.683 -29.257   5.413  0.00  0.00    -0.338 N 
ATOM     26  H   UNK A  0       23.854 -29.581   4.468  0.00  0.00    +0.144 HD
ATOM     27  H   UNK A  0       23.212 -28.367   5.502  0.00  0.00    +0.144 HD
ENDBRANCH  20  25
ENDBRANCH  18  23
BRANCH  19  28
ATOM     28  C   UNK A  0       27.321 -28.256  11.342  0.00  0.00    +0.148 C 
BRANCH  28  29
ATOM     29  C   UNK A  0       28.192 -29.351  11.936  0.00  0.00    +0.308 C 
ATOM     30  O   UNK A  0       27.774 -30.230  12.677  0.00  0.00    -0.251 OA
BRANCH  29  31
ATOM     31  O   UNK A  0       29.498 -29.242  11.602  0.00  0.00    -0.480 OA
ATOM     32  H   UNK A  0       30.087 -29.816  12.146  0.00  0.00    +0.295 HD
ENDBRANCH  29  31
ENDBRANCH  28  29
ENDBRANCH  19  28
ENDBRANCH   1  18
TORSDOF 9
ENDMDL
MODEL 7
REMARK VINA RESULT:      -5.4      8.345     10.381
REMARK  Name = *****
REMARK                            x       y       z     vdW  Elec       q    Type
REMARK                         _______ _______ _______ _____ _____    ______ ____
ROOT
ATOM      1  C   UNK A  0       24.642 -22.000   7.188  0.00  0.00    +0.246 C 
ATOM      2  N   UNK A  2       25.553 -21.292   6.430  0.00  0.00    -0.298 N 
ATOM      3  H   ACE A  1       25.561 -21.490   5.423  0.00  0.00    +0.150 HD
ATOM      4  O   UNK A  0       24.401 -21.721   8.364  0.00  0.00    -0.270 OA
ENDROOT
BRANCH   2   5
ATOM      5  C   UNK A  2       26.339 -20.140   6.955  0.00  0.00    +0.191 C 
ATOM      6  C   UNK A  2       27.516 -20.388   7.956  0.00  0.00    +0.169 C 
ATOM      7  N   UNK A  2       28.420 -20.017   6.882  0.00  0.00    -0.249 N 
ATOM      8  C   UNK A  2       29.768 -19.976   7.055  0.00  0.00    +0.119 C 
ATOM      9  C   UNK A  2       30.328 -20.733   8.017  0.00  0.00    +0.014 C 
ATOM     10  C   UNK A  2       29.642 -21.734   8.901  0.00  0.00    +0.100 C 
ATOM     11  S   UNK A  2       27.914 -22.085   8.446  0.00  0.00    -0.131 S 
ATOM     12  C   UNK A  2       27.483 -19.608   6.017  0.00  0.00    +0.244 C 
ATOM     13  O   UNK A  2       27.621 -19.094   4.917  0.00  0.00    -0.273 OA
BRANCH   8  14
ATOM     14  C   UNK A  2       30.685 -19.122   6.233  0.00  0.00    +0.351 C 
ATOM     15  O   UNK A  2       31.904 -19.244   6.277  0.00  0.00    -0.244 OA
BRANCH  14  16
ATOM     16  O   UNK A  2       30.101 -18.213   5.433  0.00  0.00    -0.476 OA
ATOM     17  H   UNK A  2       30.502 -18.079   4.545  0.00  0.00    +0.295 HD
ENDBRANCH  14  16
ENDBRANCH   8  14
ENDBRANCH   2   5
BRANCH   1  18
ATOM     18  C   UNK A  0       23.908 -23.126   6.481  0.00  0.00    +0.059 C 
ATOM     19  C   UNK A  0       22.758 -22.882   5.804  0.00  0.00    -0.001 C 
BRANCH  18  23
ATOM     20  C   UNK A  0       24.516 -26.634   6.165  0.00  0.00    +0.156 A 
ATOM     21  S   UNK A  0       26.140 -26.367   6.655  0.00  0.00    -0.060 S 
ATOM     22  C   UNK A  0       25.820 -24.697   6.768  0.00  0.00    +0.077 A 
ATOM     23  C   UNK A  0       24.507 -24.441   6.416  0.00  0.00    +0.085 A 
ATOM     24  N   UNK A  0       23.766 -25.559   6.066  0.00  0.00    -0.225 NA
BRANCH  20  25
ATOM     25  N   UNK A  0       24.082 -27.876   5.929  0.00  0.00    -0.338 N 
ATOM     26  H   UNK A  0       24.512 -28.432   5.201  0.00  0.00    +0.144 HD
ATOM     27  H   UNK A  0       23.147 -28.146   6.205  0.00  0.00    +0.144 HD
ENDBRANCH  20  25
ENDBRANCH  18  23
BRANCH  19  28
ATOM     28  C   UNK A  0       21.988 -21.619   5.546  0.00  0.00    +0.148 C 
BRANCH  28  29
ATOM     29  C   UNK A  0       22.765 -20.681   4.637  0.00  0.00    +0.308 C 
ATOM     30  O   UNK A  0       22.586 -19.471   4.590  0.00  0.00    -0.251 OA
BRANCH  29  31
ATOM     31  O   UNK A  0       23.656 -21.316   3.841  0.00  0.00    -0.480 OA
ATOM     32  H   UNK A  0       23.874 -20.810   3.024  0.00  0.00    +0.295 HD
ENDBRANCH  29  31
ENDBRANCH  28  29
ENDBRANCH  19  28
ENDBRANCH   1  18
TORSDOF 9
ENDMDL
MODEL 8
REMARK VINA RESULT:      -5.4      3.402      7.817
REMARK  Name = *****
REMARK                            x       y       z     vdW  Elec       q    Type
REMARK                         _______ _______ _______ _____ _____    ______ ____
ROOT
ATOM      1  C   UNK A  0       24.416 -30.814   7.554  0.00  0.00    +0.246 C 
ATOM      2  N   UNK A  2       24.868 -30.445   8.804  0.00  0.00    -0.298 N 
ATOM      3  H   ACE A  1       25.552 -29.682   8.836  0.00  0.00    +0.150 HD
ATOM      4  O   UNK A  0       23.461 -31.576   7.392  0.00  0.00    -0.270 OA
ENDROOT
BRANCH   2   5
ATOM      5  C   UNK A  2       24.263 -30.937  10.074  0.00  0.00    +0.191 C 
ATOM      6  C   UNK A  2       24.577 -30.209  11.424  0.00  0.00    +0.169 C 
ATOM      7  N   UNK A  2       23.205 -29.730  11.407  0.00  0.00    -0.249 N 
ATOM      8  C   UNK A  2       22.698 -28.960  12.406  0.00  0.00    +0.119 C 
ATOM      9  C   UNK A  2       23.537 -28.218  13.152  0.00  0.00    +0.014 C 
ATOM     10  C   UNK A  2       25.016 -28.045  12.956  0.00  0.00    +0.100 C 
ATOM     11  S   UNK A  2       25.663 -28.760  11.411  0.00  0.00    -0.131 S 
ATOM     12  C   UNK A  2       22.793 -30.459  10.362  0.00  0.00    +0.244 C 
ATOM     13  O   UNK A  2       21.672 -30.558   9.885  0.00  0.00    -0.273 OA
BRANCH   8  14
ATOM     14  C   UNK A  2       21.238 -28.889  12.740  0.00  0.00    +0.351 C 
ATOM     15  O   UNK A  2       20.624 -29.851  13.186  0.00  0.00    -0.244 OA
BRANCH  14  16
ATOM     16  O   UNK A  2       20.632 -27.708  12.531  0.00  0.00    -0.476 OA
ATOM     17  H   UNK A  2       21.211 -26.916  12.469  0.00  0.00    +0.295 HD
ENDBRANCH  14  16
ENDBRANCH   8  14
ENDBRANCH   2   5
BRANCH   1  18
ATOM     18  C   UNK A  0       25.133 -30.191   6.367  0.00  0.00    +0.059 C 
ATOM     19  C   UNK A  0       25.740 -30.974   5.440  0.00  0.00    -0.001 C 
BRANCH  18  23
ATOM     20  C   UNK A  0       25.434 -26.639   6.623  0.00  0.00    +0.156 A 
ATOM     21  S   UNK A  0       24.351 -26.481   5.300  0.00  0.00    -0.060 S 
ATOM     22  C   UNK A  0       24.253 -28.179   5.192  0.00  0.00    +0.077 A 
ATOM     23  C   UNK A  0       25.056 -28.763   6.154  0.00  0.00    +0.085 A 
ATOM     24  N   UNK A  0       25.735 -27.871   6.970  0.00  0.00    -0.225 NA
BRANCH  20  25
ATOM     25  N   UNK A  0       25.900 -25.550   7.242  0.00  0.00    -0.338 N 
ATOM     26  H   UNK A  0       26.094 -24.711   6.710  0.00  0.00    +0.144 HD
ATOM     27  H   UNK A  0       26.378 -25.638   8.130  0.00  0.00    +0.144 HD
ENDBRANCH  20  25
ENDBRANCH  18  23
BRANCH  19  28
ATOM     28  C   UNK A  0       25.845 -32.464   5.291  0.00  0.00    +0.148 C 
BRANCH  28  29
ATOM     29  C   UNK A  0       24.815 -32.990   4.305  0.00  0.00    +0.308 C 
ATOM     30  O   UNK A  0       25.084 -33.367   3.173  0.00  0.00    -0.251 OA
BRANCH  29  31
ATOM     31  O   UNK A  0       23.550 -32.964   4.782  0.00  0.00    -0.480 OA
ATOM     32  H   UNK A  0       22.871 -33.152   4.092  0.00  0.00    +0.295 HD
ENDBRANCH  29  31
ENDBRANCH  28  29
ENDBRANCH  19  28
ENDBRANCH   1  18
TORSDOF 9
ENDMDL
MODEL 9
REMARK VINA RESULT:      -5.4      3.791      7.011
REMARK  Name = *****
REMARK                            x       y       z     vdW  Elec       q    Type
REMARK                         _______ _______ _______ _____ _____    ______ ____
ROOT
ATOM      1  C   UNK A  0       24.965 -29.208   8.024  0.00  0.00    +0.246 C 
ATOM      2  N   UNK A  2       24.192 -29.846   8.973  0.00  0.00    -0.298 N 
ATOM      3  H   ACE A  1       23.494 -30.510   8.623  0.00  0.00    +0.150 HD
ATOM      4  O   UNK A  0       25.959 -28.541   8.317  0.00  0.00    -0.270 OA
ENDROOT
BRANCH   2   5
ATOM      5  C   UNK A  2       24.471 -29.782  10.436  0.00  0.00    +0.191 C 
ATOM      6  C   UNK A  2       23.409 -30.308  11.458  0.00  0.00    +0.169 C 
ATOM      7  N   UNK A  2       24.313 -31.412  11.727  0.00  0.00    -0.249 N 
ATOM      8  C   UNK A  2       24.024 -32.374  12.643  0.00  0.00    +0.119 C 
ATOM      9  C   UNK A  2       22.737 -32.622  12.949  0.00  0.00    +0.014 C 
ATOM     10  C   UNK A  2       21.519 -32.016  12.314  0.00  0.00    +0.100 C 
ATOM     11  S   UNK A  2       21.860 -31.008  10.836  0.00  0.00    -0.131 S 
ATOM     12  C   UNK A  2       25.350 -30.948  11.017  0.00  0.00    +0.244 C 
ATOM     13  O   UNK A  2       26.477 -31.408  10.907  0.00  0.00    -0.273 OA
BRANCH   8  14
ATOM     14  C   UNK A  2       25.067 -33.186  13.351  0.00  0.00    +0.351 C 
ATOM     15  O   UNK A  2       25.098 -33.285  14.572  0.00  0.00    -0.244 OA
BRANCH  14  16
ATOM     16  O   UNK A  2       25.969 -33.812  12.575  0.00  0.00    -0.476 OA
ATOM     17  H   UNK A  2       26.635 -33.247  12.124  0.00  0.00    +0.295 HD
ENDBRANCH  14  16
ENDBRANCH   8  14
ENDBRANCH   2   5
BRANCH   1  18
ATOM     18  C   UNK A  0       24.552 -29.408   6.575  0.00  0.00    +0.059 C 
ATOM     19  C   UNK A  0       24.318 -28.341   5.771  0.00  0.00    -0.001 C 
BRANCH  18  23
ATOM     20  C   UNK A  0       23.715 -32.755   5.643  0.00  0.00    +0.156 A 
ATOM     21  S   UNK A  0       25.264 -32.912   4.919  0.00  0.00    -0.060 S 
ATOM     22  C   UNK A  0       25.618 -31.302   5.357  0.00  0.00    +0.077 A 
ATOM     23  C   UNK A  0       24.537 -30.741   6.013  0.00  0.00    +0.085 A 
ATOM     24  N   UNK A  0       23.446 -31.581   6.169  0.00  0.00    -0.225 NA
BRANCH  20  25
ATOM     25  N   UNK A  0       22.876 -33.796   5.664  0.00  0.00    -0.338 N 
ATOM     26  H   UNK A  0       21.900 -33.663   5.432  0.00  0.00    +0.144 HD
ATOM     27  H   UNK A  0       23.097 -34.613   6.219  0.00  0.00    +0.144 HD
ENDBRANCH  20  25
ENDBRANCH  18  23
BRANCH  19  28
ATOM     28  C   UNK A  0       24.414 -26.861   6.005  0.00  0.00    +0.148 C 
BRANCH  28  29
ATOM     29  C   UNK A  0       25.815 -26.351   5.713  0.00  0.00    +0.308 C 
ATOM     30  O   UNK A  0       26.119 -25.166   5.688  0.00  0.00    -0.251 OA
BRANCH  29  31
ATOM     31  O   UNK A  0       26.701 -27.335   5.435  0.00  0.00    -0.480 OA
ATOM     32  H   UNK A  0       27.547 -27.247   5.933  0.00  0.00    +0.295 HD
ENDBRANCH  29  31
ENDBRANCH  28  29
ENDBRANCH  19  28
ENDBRANCH   1  18
TORSDOF 9
ENDMDL
