MODEL 1
REMARK VINA RESULT:      -6.8      0.000      0.000
REMARK  Name = *****
REMARK                            x       y       z     vdW  Elec       q    Type
REMARK                         _______ _______ _______ _____ _____    ______ ____
ROOT
ATOM      1  C   LIG    1       24.933 -17.854   3.492  0.00  0.00    +0.341 C 
ATOM      2  O   LIG    1       26.028 -18.066   2.976  0.00  0.00    -0.247 OA
ENDROOT
BRANCH   1   3
ATOM      3  O   LIG    1       24.516 -16.657   3.988  0.00  0.00    -0.459 OA
BRANCH   3  11
ATOM      4  C   LIG    1       28.455 -13.667   3.692  0.00  0.00    +0.007 C 
ATOM      5  C   LIG    1       27.010 -13.881   3.241  0.00  0.00    -0.010 C 
ATOM      6  C   LIG    1       26.115 -12.742   3.755  0.00  0.00    +0.010 C 
ATOM      7  C   LIG    1       24.630 -12.913   3.367  0.00  0.00    -0.031 C 
ATOM      8  C   LIG    1       23.795 -11.833   4.082  0.00  0.00    +0.011 C 
ATOM      9  C   LIG    1       24.437 -12.728   1.850  0.00  0.00    +0.011 C 
ATOM     10  C   LIG    1       24.135 -14.305   3.816  0.00  0.00    +0.051 C 
ATOM     11  C   LIG    1       25.018 -15.466   3.340  0.00  0.00    +0.177 C 
ATOM     12  C   LIG    1       26.486 -15.243   3.719  0.00  0.00    +0.048 C 
ENDBRANCH   3  11
ENDBRANCH   1   3
BRANCH   1  13
ATOM     13  C   LIG    1       23.865 -18.943   3.680  0.00  0.00    +0.253 C 
BRANCH  13  14
ATOM     14  C   LIG    1       24.121 -19.836   4.877  0.00  0.00    -0.008 A 
ATOM     15  C   LIG    1       23.114 -20.100   5.822  0.00  0.00    +0.007 A 
ATOM     16  C   LIG    1       23.360 -20.948   6.905  0.00  0.00    +0.000 A 
ATOM     17  C   LIG    1       24.612 -21.536   7.061  0.00  0.00    +0.000 A 
ATOM     18  C   LIG    1       25.621 -21.282   6.134  0.00  0.00    +0.000 A 
ATOM     19  C   LIG    1       25.375 -20.434   5.052  0.00  0.00    +0.007 A 
ENDBRANCH  13  14
BRANCH  13  20
ATOM     20  O   LIG    1       22.550 -18.398   3.817  0.00  0.00    -0.376 OA
ATOM     21  H   LIG    1       22.066 -18.652   3.008  0.00  0.00    +0.211 HD
ENDBRANCH  13  20
ENDBRANCH   1  13
TORSDOF 5
ENDMDL
MODEL 2
REMARK VINA RESULT:      -5.9      1.009      1.696
REMARK  Name = *****
REMARK                            x       y       z     vdW  Elec       q    Type
REMARK                         _______ _______ _______ _____ _____    ______ ____
ROOT
ATOM      1  C   LIG    1       25.379 -17.887   3.558  0.00  0.00    +0.341 C 
ATOM      2  O   LIG    1       24.264 -17.432   3.313  0.00  0.00    -0.247 OA
ENDROOT
BRANCH   1   3
ATOM      3  O   LIG    1       26.517 -17.153   3.693  0.00  0.00    -0.459 OA
BRANCH   3  11
ATOM      4  C   LIG    1       28.831 -12.789   4.067  0.00  0.00    +0.007 C 
ATOM      5  C   LIG    1       27.607 -13.512   3.506  0.00  0.00    -0.010 C 
ATOM      6  C   LIG    1       26.320 -12.945   4.126  0.00  0.00    +0.010 C 
ATOM      7  C   LIG    1       25.041 -13.655   3.631  0.00  0.00    -0.031 C 
ATOM      8  C   LIG    1       23.836 -13.148   4.446  0.00  0.00    +0.011 C 
ATOM      9  C   LIG    1       24.776 -13.333   2.148  0.00  0.00    +0.011 C 
ATOM     10  C   LIG    1       25.181 -15.179   3.843  0.00  0.00    +0.051 C 
ATOM     11  C   LIG    1       26.466 -15.776   3.256  0.00  0.00    +0.177 C 
ATOM     12  C   LIG    1       27.707 -15.024   3.749  0.00  0.00    +0.048 C 
ENDBRANCH   3  11
ENDBRANCH   1   3
BRANCH   1  13
ATOM     13  C   LIG    1       25.658 -19.390   3.721  0.00  0.00    +0.253 C 
BRANCH  13  14
ATOM     14  C   LIG    1       24.906 -20.019   4.876  0.00  0.00    -0.008 A 
ATOM     15  C   LIG    1       25.583 -20.541   5.992  0.00  0.00    +0.007 A 
ATOM     16  C   LIG    1       24.872 -21.092   7.061  0.00  0.00    +0.000 A 
ATOM     17  C   LIG    1       23.481 -21.136   7.027  0.00  0.00    +0.000 A 
ATOM     18  C   LIG    1       22.796 -20.625   5.926  0.00  0.00    +0.000 A 
ATOM     19  C   LIG    1       23.507 -20.074   4.857  0.00  0.00    +0.007 A 
ENDBRANCH  13  14
BRANCH  13  20
ATOM     20  O   LIG    1       25.344 -20.134   2.540  0.00  0.00    -0.376 OA
ATOM     21  H   LIG    1       26.114 -20.709   2.370  0.00  0.00    +0.211 HD
ENDBRANCH  13  20
ENDBRANCH   1  13
TORSDOF 5
ENDMDL
MODEL 3
REMARK VINA RESULT:      -5.8      1.139      2.551
REMARK  Name = *****
REMARK                            x       y       z     vdW  Elec       q    Type
REMARK                         _______ _______ _______ _____ _____    ______ ____
ROOT
ATOM      1  C   LIG    1       26.454 -18.139   3.734  0.00  0.00    +0.341 C 
ATOM      2  O   LIG    1       27.478 -18.100   4.411  0.00  0.00    -0.247 OA
ENDROOT
BRANCH   1   3
ATOM      3  O   LIG    1       25.885 -17.073   3.106  0.00  0.00    -0.459 OA
BRANCH   3  11
ATOM      4  C   LIG    1       23.775 -12.594   3.248  0.00  0.00    +0.007 C 
ATOM      5  C   LIG    1       24.868 -13.481   3.842  0.00  0.00    -0.010 C 
ATOM      6  C   LIG    1       26.255 -12.880   3.564  0.00  0.00    +0.010 C 
ATOM      7  C   LIG    1       27.413 -13.745   4.106  0.00  0.00    -0.031 C 
ATOM      8  C   LIG    1       28.752 -13.160   3.615  0.00  0.00    +0.011 C 
ATOM      9  C   LIG    1       27.431 -13.732   5.646  0.00  0.00    +0.011 C 
ATOM     10  C   LIG    1       27.274 -15.188   3.573  0.00  0.00    +0.051 C 
ATOM     11  C   LIG    1       25.894 -15.813   3.813  0.00  0.00    +0.177 C 
ATOM     12  C   LIG    1       24.773 -14.909   3.287  0.00  0.00    +0.048 C 
ENDBRANCH   3  11
ENDBRANCH   1   3
BRANCH   1  13
ATOM     13  C   LIG    1       25.636 -19.422   3.516  0.00  0.00    +0.253 C 
BRANCH  13  14
ATOM     14  C   LIG    1       24.909 -19.890   4.760  0.00  0.00    -0.008 A 
ATOM     15  C   LIG    1       23.511 -19.797   4.869  0.00  0.00    +0.007 A 
ATOM     16  C   LIG    1       22.855 -20.260   6.012  0.00  0.00    +0.000 A 
ATOM     17  C   LIG    1       23.584 -20.813   7.060  0.00  0.00    +0.000 A 
ATOM     18  C   LIG    1       24.972 -20.911   6.968  0.00  0.00    +0.000 A 
ATOM     19  C   LIG    1       25.627 -20.448   5.825  0.00  0.00    +0.007 A 
ENDBRANCH  13  14
BRANCH  13  20
ATOM     20  O   LIG    1       24.668 -19.279   2.472  0.00  0.00    -0.376 OA
ATOM     21  H   LIG    1       25.174 -19.216   1.640  0.00  0.00    +0.211 HD
ENDBRANCH  13  20
ENDBRANCH   1  13
TORSDOF 5
ENDMDL
MODEL 4
REMARK VINA RESULT:      -5.7      1.052      1.703
REMARK  Name = *****
REMARK                            x       y       z     vdW  Elec       q    Type
REMARK                         _______ _______ _______ _____ _____    ______ ____
ROOT
ATOM      1  C   LIG    1       25.328 -18.209   3.282  0.00  0.00    +0.341 C 
ATOM      2  O   LIG    1       26.050 -18.232   2.288  0.00  0.00    -0.247 OA
ENDROOT
BRANCH   1   3
ATOM      3  O   LIG    1       24.916 -17.084   3.929  0.00  0.00    -0.459 OA
BRANCH   3  11
ATOM      4  C   LIG    1       28.590 -13.770   3.687  0.00  0.00    +0.007 C 
ATOM      5  C   LIG    1       27.147 -14.071   3.281  0.00  0.00    -0.010 C 
ATOM      6  C   LIG    1       26.189 -13.046   3.909  0.00  0.00    +0.010 C 
ATOM      7  C   LIG    1       24.706 -13.311   3.570  0.00  0.00    -0.031 C 
ATOM      8  C   LIG    1       23.823 -12.353   4.392  0.00  0.00    +0.011 C 
ATOM      9  C   LIG    1       24.430 -13.041   2.078  0.00  0.00    +0.011 C 
ATOM     10  C   LIG    1       24.344 -14.766   3.939  0.00  0.00    +0.051 C 
ATOM     11  C   LIG    1       25.292 -15.816   3.347  0.00  0.00    +0.177 C 
ATOM     12  C   LIG    1       26.754 -15.499   3.682  0.00  0.00    +0.048 C 
ENDBRANCH   3  11
ENDBRANCH   1   3
BRANCH   1  13
ATOM     13  C   LIG    1       24.798 -19.478   3.968  0.00  0.00    +0.253 C 
BRANCH  13  14
ATOM     14  C   LIG    1       25.728 -20.018   5.035  0.00  0.00    -0.008 A 
ATOM     15  C   LIG    1       27.091 -19.675   5.060  0.00  0.00    +0.007 A 
ATOM     16  C   LIG    1       27.927 -20.161   6.068  0.00  0.00    +0.000 A 
ATOM     17  C   LIG    1       27.417 -20.997   7.057  0.00  0.00    +0.000 A 
ATOM     18  C   LIG    1       26.068 -21.347   7.045  0.00  0.00    +0.000 A 
ATOM     19  C   LIG    1       25.232 -20.862   6.037  0.00  0.00    +0.007 A 
ENDBRANCH  13  14
BRANCH  13  20
ATOM     20  O   LIG    1       23.515 -19.277   4.568  0.00  0.00    -0.376 OA
ATOM     21  H   LIG    1       23.138 -18.483   4.143  0.00  0.00    +0.211 HD
ENDBRANCH  13  20
ENDBRANCH   1  13
TORSDOF 5
ENDMDL
MODEL 5
REMARK VINA RESULT:      -5.5      1.301      1.747
REMARK  Name = *****
REMARK                            x       y       z     vdW  Elec       q    Type
REMARK                         _______ _______ _______ _____ _____    ______ ____
ROOT
ATOM      1  C   LIG    1       25.122 -17.895   3.656  0.00  0.00    +0.341 C 
ATOM      2  O   LIG    1       24.008 -17.377   3.677  0.00  0.00    -0.247 OA
ENDROOT
BRANCH   1   3
ATOM      3  O   LIG    1       26.304 -17.219   3.664  0.00  0.00    -0.459 OA
BRANCH   3  11
ATOM      4  C   LIG    1       28.793 -12.942   3.870  0.00  0.00    +0.007 C 
ATOM      5  C   LIG    1       27.513 -13.622   3.385  0.00  0.00    -0.010 C 
ATOM      6  C   LIG    1       26.285 -13.004   4.073  0.00  0.00    +0.010 C 
ATOM      7  C   LIG    1       24.955 -13.670   3.657  0.00  0.00    -0.031 C 
ATOM      8  C   LIG    1       23.818 -13.114   4.534  0.00  0.00    +0.011 C 
ATOM      9  C   LIG    1       24.618 -13.348   2.189  0.00  0.00    +0.011 C 
ATOM     10  C   LIG    1       25.052 -15.196   3.874  0.00  0.00    +0.051 C 
ATOM     11  C   LIG    1       26.278 -15.844   3.219  0.00  0.00    +0.177 C 
ATOM     12  C   LIG    1       27.572 -15.136   3.635  0.00  0.00    +0.048 C 
ENDBRANCH   3  11
ENDBRANCH   1   3
BRANCH   1  13
ATOM     13  C   LIG    1       25.344 -19.414   3.585  0.00  0.00    +0.253 C 
BRANCH  13  14
ATOM     14  C   LIG    1       26.024 -19.980   4.815  0.00  0.00    -0.008 A 
ATOM     15  C   LIG    1       25.342 -20.833   5.701  0.00  0.00    +0.007 A 
ATOM     16  C   LIG    1       25.994 -21.369   6.815  0.00  0.00    +0.000 A 
ATOM     17  C   LIG    1       27.327 -21.055   7.062  0.00  0.00    +0.000 A 
ATOM     18  C   LIG    1       28.016 -20.209   6.193  0.00  0.00    +0.000 A 
ATOM     19  C   LIG    1       27.364 -19.674   5.080  0.00  0.00    +0.007 A 
ENDBRANCH  13  14
BRANCH  13  20
ATOM     20  O   LIG    1       24.123 -20.134   3.392  0.00  0.00    -0.376 OA
ATOM     21  H   LIG    1       23.708 -19.755   2.593  0.00  0.00    +0.211 HD
ENDBRANCH  13  20
ENDBRANCH   1  13
TORSDOF 5
ENDMDL
MODEL 6
REMARK VINA RESULT:      -5.0      1.752      6.859
REMARK  Name = *****
REMARK                            x       y       z     vdW  Elec       q    Type
REMARK                         _______ _______ _______ _____ _____    ______ ____
ROOT
ATOM      1  C   LIG    1       26.741 -15.926   3.342  0.00  0.00    +0.341 C 
ATOM      2  O   LIG    1       27.449 -15.772   4.334  0.00  0.00    -0.247 OA
ENDROOT
BRANCH   1   3
ATOM      3  O   LIG    1       26.208 -17.109   2.932  0.00  0.00    -0.459 OA
BRANCH   3  11
ATOM      4  C   LIG    1       27.873 -20.540   6.094  0.00  0.00    +0.007 C 
ATOM      5  C   LIG    1       26.627 -19.853   5.536  0.00  0.00    -0.010 C 
ATOM      6  C   LIG    1       25.731 -20.873   4.815  0.00  0.00    +0.010 C 
ATOM      7  C   LIG    1       24.468 -20.240   4.191  0.00  0.00    -0.031 C 
ATOM      8  C   LIG    1       23.743 -21.299   3.338  0.00  0.00    +0.011 C 
ATOM      9  C   LIG    1       23.493 -19.772   5.288  0.00  0.00    +0.011 C 
ATOM     10  C   LIG    1       24.876 -19.061   3.281  0.00  0.00    +0.051 C 
ATOM     11  C   LIG    1       25.789 -18.033   3.962  0.00  0.00    +0.177 C 
ATOM     12  C   LIG    1       27.014 -18.705   4.592  0.00  0.00    +0.048 C 
ENDBRANCH   3  11
ENDBRANCH   1   3
BRANCH   1  13
ATOM     13  C   LIG    1       26.372 -14.782   2.384  0.00  0.00    +0.253 C 
BRANCH  13  14
ATOM     14  C   LIG    1       25.445 -13.755   3.002  0.00  0.00    -0.008 A 
ATOM     15  C   LIG    1       25.208 -13.723   4.387  0.00  0.00    +0.007 A 
ATOM     16  C   LIG    1       24.371 -12.751   4.942  0.00  0.00    +0.000 A 
ATOM     17  C   LIG    1       23.758 -11.807   4.124  0.00  0.00    +0.000 A 
ATOM     18  C   LIG    1       23.982 -11.828   2.748  0.00  0.00    +0.000 A 
ATOM     19  C   LIG    1       24.818 -12.799   2.194  0.00  0.00    +0.007 A 
ENDBRANCH  13  14
BRANCH  13  20
ATOM     20  O   LIG    1       27.524 -14.090   1.894  0.00  0.00    -0.376 OA
ATOM     21  H   LIG    1       27.434 -14.070   0.922  0.00  0.00    +0.211 HD
ENDBRANCH  13  20
ENDBRANCH   1  13
TORSDOF 5
ENDMDL
MODEL 7
REMARK VINA RESULT:      -4.9      1.789      6.432
REMARK  Name = *****
REMARK                            x       y       z     vdW  Elec       q    Type
REMARK                         _______ _______ _______ _____ _____    ______ ____
ROOT
ATOM      1  C   LIG    1       22.831 -15.295   4.808  0.00  0.00    +0.341 C 
ATOM      2  O   LIG    1       22.354 -15.280   5.940  0.00  0.00    -0.247 OA
ENDROOT
BRANCH   1   3
ATOM      3  O   LIG    1       22.825 -16.364   3.965  0.00  0.00    -0.459 OA
BRANCH   3  11
ATOM      4  C   LIG    1       26.012 -20.045   3.050  0.00  0.00    +0.007 C 
ATOM      5  C   LIG    1       24.909 -19.549   3.985  0.00  0.00    -0.010 C 
ATOM      6  C   LIG    1       23.707 -20.506   3.950  0.00  0.00    +0.010 C 
ATOM      7  C   LIG    1       22.536 -20.046   4.845  0.00  0.00    -0.031 C 
ATOM      8  C   LIG    1       21.322 -20.962   4.595  0.00  0.00    +0.011 C 
ATOM      9  C   LIG    1       22.910 -20.158   6.335  0.00  0.00    +0.011 C 
ATOM     10  C   LIG    1       22.149 -18.595   4.484  0.00  0.00    +0.051 C 
ATOM     11  C   LIG    1       23.328 -17.615   4.488  0.00  0.00    +0.177 C 
ATOM     12  C   LIG    1       24.479 -18.123   3.612  0.00  0.00    +0.048 C 
ENDBRANCH   3  11
ENDBRANCH   1   3
BRANCH   1  13
ATOM     13  C   LIG    1       23.543 -14.087   4.178  0.00  0.00    +0.253 C 
BRANCH  13  14
ATOM     14  C   LIG    1       25.054 -14.187   4.227  0.00  0.00    -0.008 A 
ATOM     15  C   LIG    1       25.762 -15.019   3.344  0.00  0.00    +0.007 A 
ATOM     16  C   LIG    1       27.158 -15.077   3.386  0.00  0.00    +0.000 A 
ATOM     17  C   LIG    1       27.861 -14.312   4.312  0.00  0.00    +0.000 A 
ATOM     18  C   LIG    1       27.172 -13.483   5.196  0.00  0.00    +0.000 A 
ATOM     19  C   LIG    1       25.778 -13.426   5.154  0.00  0.00    +0.007 A 
ENDBRANCH  13  14
BRANCH  13  20
ATOM     20  O   LIG    1       23.164 -13.883   2.813  0.00  0.00    -0.376 OA
ATOM     21  H   LIG    1       23.739 -14.467   2.282  0.00  0.00    +0.211 HD
ENDBRANCH  13  20
ENDBRANCH   1  13
TORSDOF 5
ENDMDL
MODEL 8
REMARK VINA RESULT:      -4.8      1.472      6.716
REMARK  Name = *****
REMARK                            x       y       z     vdW  Elec       q    Type
REMARK                         _______ _______ _______ _____ _____    ______ ____
ROOT
ATOM      1  C   LIG    1       26.854 -17.118   3.668  0.00  0.00    +0.341 C 
ATOM      2  O   LIG    1       27.460 -17.883   4.414  0.00  0.00    -0.247 OA
ENDROOT
BRANCH   1   3
ATOM      3  O   LIG    1       25.772 -17.450   2.912  0.00  0.00    -0.459 OA
BRANCH   3  11
ATOM      4  C   LIG    1       21.321 -18.902   4.531  0.00  0.00    +0.007 C 
ATOM      5  C   LIG    1       22.751 -19.352   4.230  0.00  0.00    -0.010 C 
ATOM      6  C   LIG    1       23.439 -19.842   5.513  0.00  0.00    +0.010 C 
ATOM      7  C   LIG    1       24.903 -20.279   5.290  0.00  0.00    -0.031 C 
ATOM      8  C   LIG    1       25.556 -20.570   6.655  0.00  0.00    +0.011 C 
ATOM      9  C   LIG    1       24.966 -21.571   4.454  0.00  0.00    +0.011 C 
ATOM     10  C   LIG    1       25.682 -19.140   4.597  0.00  0.00    +0.051 C 
ATOM     11  C   LIG    1       25.013 -18.609   3.323  0.00  0.00    +0.177 C 
ATOM     12  C   LIG    1       23.554 -18.215   3.582  0.00  0.00    +0.048 C 
ENDBRANCH   3  11
ENDBRANCH   1   3
BRANCH   1  13
ATOM     13  C   LIG    1       27.258 -15.651   3.456  0.00  0.00    +0.253 C 
BRANCH  13  14
ATOM     14  C   LIG    1       26.075 -14.712   3.336  0.00  0.00    -0.008 A 
ATOM     15  C   LIG    1       24.976 -14.804   4.208  0.00  0.00    +0.007 A 
ATOM     16  C   LIG    1       23.906 -13.911   4.101  0.00  0.00    +0.000 A 
ATOM     17  C   LIG    1       23.916 -12.924   3.120  0.00  0.00    +0.000 A 
ATOM     18  C   LIG    1       24.998 -12.821   2.246  0.00  0.00    +0.000 A 
ATOM     19  C   LIG    1       26.067 -13.714   2.354  0.00  0.00    +0.007 A 
ENDBRANCH  13  14
BRANCH  13  20
ATOM     20  O   LIG    1       28.098 -15.161   4.505  0.00  0.00    -0.376 OA
ATOM     21  H   LIG    1       27.989 -14.190   4.508  0.00  0.00    +0.211 HD
ENDBRANCH  13  20
ENDBRANCH   1  13
TORSDOF 5
ENDMDL
