MODEL 1
REMARK VINA RESULT:      -3.7      0.000      0.000
REMARK  Name = *****
REMARK                            x       y       z     vdW  Elec       q    Type
REMARK                         _______ _______ _______ _____ _____    ______ ____
ROOT
ATOM      1  O   LIG    1       32.040 -19.743   9.346  0.00  0.00    -0.251 OA
ATOM      2  C   LIG    1       31.344 -19.543   8.381  0.00  0.00    +0.310 C 
ATOM      3  O   LIG    1       31.675 -19.615   7.064  0.00  0.00    -0.464 OA
ATOM      4  C   LIG    1       30.390 -19.073   6.655  0.00  0.00    +0.243 C 
ATOM      5  C   LIG    1       29.882 -19.155   8.091  0.00  0.00    +0.161 C 
ENDROOT
TORSDOF 0
ENDMDL
MODEL 2
REMARK VINA RESULT:      -3.7      1.426      1.871
REMARK  Name = *****
REMARK                            x       y       z     vdW  Elec       q    Type
REMARK                         _______ _______ _______ _____ _____    ______ ____
ROOT
ATOM      1  O   LIG    1       31.925 -21.978   9.383  0.00  0.00    -0.251 OA
ATOM      2  C   LIG    1       31.525 -20.918   8.970  0.00  0.00    +0.310 C 
ATOM      3  O   LIG    1       32.031 -19.674   9.189  0.00  0.00    -0.464 OA
ATOM      4  C   LIG    1       30.903 -19.040   8.528  0.00  0.00    +0.243 C 
ATOM      5  C   LIG    1       30.384 -20.401   8.075  0.00  0.00    +0.161 C 
ENDROOT
TORSDOF 0
ENDMDL
MODEL 3
REMARK VINA RESULT:      -3.6      1.227      1.971
REMARK  Name = *****
REMARK                            x       y       z     vdW  Elec       q    Type
REMARK                         _______ _______ _______ _____ _____    ______ ____
ROOT
ATOM      1  O   LIG    1       32.006 -17.802   8.044  0.00  0.00    -0.251 OA
ATOM      2  C   LIG    1       31.573 -18.902   8.288  0.00  0.00    +0.310 C 
ATOM      3  O   LIG    1       31.997 -19.795   9.222  0.00  0.00    -0.464 OA
ATOM      4  C   LIG    1       31.106 -20.827   8.718  0.00  0.00    +0.243 C 
ATOM      5  C   LIG    1       30.444 -19.820   7.783  0.00  0.00    +0.161 C 
ENDROOT
TORSDOF 0
ENDMDL
MODEL 4
REMARK VINA RESULT:      -3.5      1.823      2.564
REMARK  Name = *****
REMARK                            x       y       z     vdW  Elec       q    Type
REMARK                         _______ _______ _______ _____ _____    ______ ____
ROOT
ATOM      1  O   LIG    1       32.009 -19.967   9.060  0.00  0.00    -0.251 OA
ATOM      2  C   LIG    1       31.533 -18.902   9.370  0.00  0.00    +0.310 C 
ATOM      3  O   LIG    1       31.963 -18.019  10.310  0.00  0.00    -0.464 OA
ATOM      4  C   LIG    1       30.782 -17.189  10.150  0.00  0.00    +0.243 C 
ATOM      5  C   LIG    1       30.340 -18.023   8.951  0.00  0.00    +0.161 C 
ENDROOT
TORSDOF 0
ENDMDL
MODEL 5
REMARK VINA RESULT:      -3.5      2.625      3.186
REMARK  Name = *****
REMARK                            x       y       z     vdW  Elec       q    Type
REMARK                         _______ _______ _______ _____ _____    ______ ____
ROOT
ATOM      1  O   LIG    1       30.286 -16.495  11.189  0.00  0.00    -0.251 OA
ATOM      2  C   LIG    1       30.678 -17.340  10.422  0.00  0.00    +0.310 C 
ATOM      3  O   LIG    1       31.841 -18.044  10.453  0.00  0.00    -0.464 OA
ATOM      4  C   LIG    1       31.581 -18.637   9.153  0.00  0.00    +0.243 C 
ATOM      5  C   LIG    1       30.177 -18.039   9.145  0.00  0.00    +0.161 C 
ENDROOT
TORSDOF 0
ENDMDL
MODEL 6
REMARK VINA RESULT:      -3.3      4.331      4.599
REMARK  Name = *****
REMARK                            x       y       z     vdW  Elec       q    Type
REMARK                         _______ _______ _______ _____ _____    ______ ____
ROOT
ATOM      1  O   LIG    1       25.853 -20.555   9.390  0.00  0.00    -0.251 OA
ATOM      2  C   LIG    1       26.489 -20.517   8.366  0.00  0.00    +0.310 C 
ATOM      3  O   LIG    1       27.835 -20.402   8.204  0.00  0.00    -0.464 OA
ATOM      4  C   LIG    1       27.704 -20.254   6.764  0.00  0.00    +0.243 C 
ATOM      5  C   LIG    1       26.215 -20.578   6.851  0.00  0.00    +0.161 C 
ENDROOT
TORSDOF 0
ENDMDL
MODEL 7
REMARK VINA RESULT:      -3.3      8.731      9.142
REMARK  Name = *****
REMARK                            x       y       z     vdW  Elec       q    Type
REMARK                         _______ _______ _______ _____ _____    ______ ____
ROOT
ATOM      1  O   LIG    1       23.837 -25.868   6.183  0.00  0.00    -0.251 OA
ATOM      2  C   LIG    1       23.713 -24.715   6.517  0.00  0.00    +0.310 C 
ATOM      3  O   LIG    1       22.572 -24.020   6.769  0.00  0.00    -0.464 OA
ATOM      4  C   LIG    1       23.297 -22.768   6.898  0.00  0.00    +0.243 C 
ATOM      5  C   LIG    1       24.627 -23.513   6.824  0.00  0.00    +0.161 C 
ENDROOT
TORSDOF 0
ENDMDL
MODEL 8
REMARK VINA RESULT:      -3.3      5.681      5.964
REMARK  Name = *****
REMARK                            x       y       z     vdW  Elec       q    Type
REMARK                         _______ _______ _______ _____ _____    ______ ____
ROOT
ATOM      1  O   LIG    1       25.952 -20.693   9.436  0.00  0.00    -0.251 OA
ATOM      2  C   LIG    1       25.607 -20.668   8.280  0.00  0.00    +0.310 C 
ATOM      3  O   LIG    1       24.350 -20.737   7.765  0.00  0.00    -0.464 OA
ATOM      4  C   LIG    1       24.852 -20.826   6.405  0.00  0.00    +0.243 C 
ATOM      5  C   LIG    1       26.271 -20.551   6.895  0.00  0.00    +0.161 C 
ENDROOT
TORSDOF 0
ENDMDL
MODEL 9
REMARK VINA RESULT:      -3.2      8.834      9.195
REMARK  Name = *****
REMARK                            x       y       z     vdW  Elec       q    Type
REMARK                         _______ _______ _______ _____ _____    ______ ____
ROOT
ATOM      1  O   LIG    1       22.675 -24.067   6.724  0.00  0.00    -0.251 OA
ATOM      2  C   LIG    1       23.722 -24.644   6.559  0.00  0.00    +0.310 C 
ATOM      3  O   LIG    1       23.932 -25.946   6.229  0.00  0.00    -0.464 OA
ATOM      4  C   LIG    1       25.367 -25.820   6.423  0.00  0.00    +0.243 C 
ATOM      5  C   LIG    1       25.225 -24.311   6.604  0.00  0.00    +0.161 C 
ENDROOT
TORSDOF 0
ENDMDL
