MODEL 1
REMARK VINA RESULT:      -3.6      0.000      0.000
REMARK  Name = *****
REMARK                            x       y       z     vdW  Elec       q    Type
REMARK                         _______ _______ _______ _____ _____    ______ ____
ROOT
ATOM      1  C   LIG    1       25.536 -15.578   3.834  0.00  0.00    -0.007 C 
ATOM      2  C   LIG    1       26.901 -15.910   4.018  0.00  0.00    -0.031 C 
ENDROOT
BRANCH   1   6
ATOM      3  C   LIG    1       22.523 -18.766   4.251  0.00  0.00    +0.121 A 
ATOM      4  C   LIG    1       22.272 -17.494   4.745  0.00  0.00    +0.046 A 
ATOM      5  C   LIG    1       23.149 -16.425   4.443  0.00  0.00    +0.012 A 
ATOM      6  C   LIG    1       24.437 -16.653   3.938  0.00  0.00    -0.017 A 
ATOM      7  C   LIG    1       24.655 -17.963   3.463  0.00  0.00    +0.012 A 
ATOM      8  C   LIG    1       23.678 -18.954   3.517  0.00  0.00    +0.046 A 
BRANCH   3   9
ATOM      9  O   LIG    1       21.609 -19.756   4.497  0.00  0.00    -0.490 OA
BRANCH   9  10
ATOM     10  C   LIG    1       22.160 -21.016   4.915  0.00  0.00    +0.257 C 
BRANCH  10  11
ATOM     11  C   LIG    1       22.898 -20.946   6.260  0.00  0.00    +0.197 C 
BRANCH  11  12
ATOM     12  O   LIG    1       24.301 -21.099   6.068  0.00  0.00    -0.392 OA
ATOM     13  H   LIG    1       24.582 -20.451   5.398  0.00  0.00    +0.209 HD
ENDBRANCH  11  12
ENDBRANCH  10  11
ENDBRANCH   9  10
ENDBRANCH   3   9
ENDBRANCH   1   6
BRANCH   1  14
ATOM     14  C   LIG    1       25.005 -14.137   3.418  0.00  0.00    -0.017 A 
ATOM     15  C   LIG    1       25.136 -13.513   2.195  0.00  0.00    +0.008 A 
ATOM     16  C   LIG    1       24.559 -12.296   1.812  0.00  0.00    +0.001 A 
ATOM     17  C   LIG    1       23.844 -11.565   2.767  0.00  0.00    +0.000 A 
ATOM     18  C   LIG    1       23.738 -12.075   4.020  0.00  0.00    +0.001 A 
ATOM     19  C   LIG    1       24.319 -13.311   4.365  0.00  0.00    +0.008 A 
ENDBRANCH   1  14
BRANCH   2  20
ATOM     20  C   LIG    1       27.552 -17.272   4.416  0.00  0.00    -0.021 A 
ATOM     21  C   LIG    1       26.975 -18.542   4.389  0.00  0.00    +0.008 A 
ATOM     22  C   LIG    1       27.513 -19.663   5.050  0.00  0.00    +0.001 A 
ATOM     23  C   LIG    1       28.740 -19.601   5.652  0.00  0.00    +0.000 A 
ATOM     24  C   LIG    1       29.464 -18.430   5.514  0.00  0.00    +0.001 A 
ATOM     25  C   LIG    1       28.879 -17.349   4.843  0.00  0.00    +0.008 A 
ENDBRANCH   2  20
BRANCH   2  26
ATOM     26  C   LIG    1       28.094 -14.915   3.753  0.00  0.00    +0.052 C 
BRANCH  26  27
ATOM     27  C   LIG    1       28.180 -13.463   4.341  0.00  0.00    +0.113 C 
ATOM     28 CL   LIG    1       27.351 -13.071   5.882  0.00  0.00    -0.125 Cl
ENDBRANCH  26  27
ENDBRANCH   2  26
TORSDOF 9
ENDMDL
MODEL 2
REMARK VINA RESULT:      -1.7      3.334      6.221
REMARK  Name = *****
REMARK                            x       y       z     vdW  Elec       q    Type
REMARK                         _______ _______ _______ _____ _____    ______ ____
ROOT
ATOM      1  C   LIG    1       24.364 -18.870   4.252  0.00  0.00    -0.007 C 
ATOM      2  C   LIG    1       25.295 -19.778   4.814  0.00  0.00    -0.031 C 
ENDROOT
BRANCH   1   6
ATOM      3  C   LIG    1       25.525 -14.682   3.525  0.00  0.00    +0.121 A 
ATOM      4  C   LIG    1       26.362 -15.719   3.137  0.00  0.00    +0.046 A 
ATOM      5  C   LIG    1       25.908 -17.059   3.192  0.00  0.00    +0.012 A 
ATOM      6  C   LIG    1       24.769 -17.419   3.926  0.00  0.00    -0.017 A 
ATOM      7  C   LIG    1       23.957 -16.334   4.316  0.00  0.00    +0.012 A 
ATOM      8  C   LIG    1       24.278 -15.011   4.017  0.00  0.00    +0.046 A 
BRANCH   3   9
ATOM      9  O   LIG    1       25.971 -13.394   3.383  0.00  0.00    -0.490 OA
BRANCH   9  10
ATOM     10  C   LIG    1       26.451 -12.769   4.584  0.00  0.00    +0.257 C 
BRANCH  10  11
ATOM     11  C   LIG    1       27.980 -12.802   4.724  0.00  0.00    +0.197 C 
BRANCH  11  12
ATOM     12  O   LIG    1       28.601 -12.607   3.456  0.00  0.00    -0.392 OA
ATOM     13  H   LIG    1       29.565 -12.647   3.589  0.00  0.00    +0.209 HD
ENDBRANCH  11  12
ENDBRANCH  10  11
ENDBRANCH   9  10
ENDBRANCH   3   9
ENDBRANCH   1   6
BRANCH   1  14
ATOM     14  C   LIG    1       22.829 -19.195   3.993  0.00  0.00    -0.017 A 
ATOM     15  C   LIG    1       22.170 -20.385   4.223  0.00  0.00    +0.008 A 
ATOM     16  C   LIG    1       20.794 -20.615   4.102  0.00  0.00    +0.001 A 
ATOM     17  C   LIG    1       19.983 -19.585   3.613  0.00  0.00    +0.000 A 
ATOM     18  C   LIG    1       20.570 -18.406   3.287  0.00  0.00    +0.001 A 
ATOM     19  C   LIG    1       21.957 -18.205   3.436  0.00  0.00    +0.008 A 
ENDBRANCH   1  14
BRANCH   2  20
ATOM     20  C   LIG    1       26.813 -19.587   5.125  0.00  0.00    -0.021 A 
ATOM     21  C   LIG    1       27.620 -20.348   5.971  0.00  0.00    +0.008 A 
ATOM     22  C   LIG    1       28.882 -19.931   6.436  0.00  0.00    +0.001 A 
ATOM     23  C   LIG    1       29.465 -18.790   5.956  0.00  0.00    +0.000 A 
ATOM     24  C   LIG    1       28.812 -18.113   4.941  0.00  0.00    +0.001 A 
ATOM     25  C   LIG    1       27.560 -18.576   4.517  0.00  0.00    +0.008 A 
ENDBRANCH   2  20
BRANCH   2  26
ATOM     26  C   LIG    1       24.916 -21.215   5.341  0.00  0.00    +0.052 C 
BRANCH  26  27
ATOM     27  C   LIG    1       24.356 -21.508   6.776  0.00  0.00    +0.113 C 
ATOM     28 CL   LIG    1       22.585 -21.563   7.052  0.00  0.00    -0.125 Cl
ENDBRANCH  26  27
ENDBRANCH   2  26
TORSDOF 9
ENDMDL
MODEL 3
REMARK VINA RESULT:      -1.4      3.210      6.268
REMARK  Name = *****
REMARK                            x       y       z     vdW  Elec       q    Type
REMARK                         _______ _______ _______ _____ _____    ______ ____
ROOT
ATOM      1  C   LIG    1       24.397 -18.893   4.341  0.00  0.00    -0.007 C 
ATOM      2  C   LIG    1       25.291 -19.826   4.922  0.00  0.00    -0.031 C 
ENDROOT
BRANCH   1   6
ATOM      3  C   LIG    1       25.691 -14.746   3.606  0.00  0.00    +0.121 A 
ATOM      4  C   LIG    1       26.514 -15.809   3.261  0.00  0.00    +0.046 A 
ATOM      5  C   LIG    1       26.024 -17.136   3.316  0.00  0.00    +0.012 A 
ATOM      6  C   LIG    1       24.850 -17.457   4.012  0.00  0.00    -0.017 A 
ATOM      7  C   LIG    1       24.054 -16.347   4.359  0.00  0.00    +0.012 A 
ATOM      8  C   LIG    1       24.419 -15.037   4.056  0.00  0.00    +0.046 A 
BRANCH   3   9
ATOM      9  O   LIG    1       26.175 -13.472   3.464  0.00  0.00    -0.490 OA
BRANCH   9  10
ATOM     10  C   LIG    1       25.192 -12.427   3.530  0.00  0.00    +0.257 C 
BRANCH  10  11
ATOM     11  C   LIG    1       24.713 -11.948   2.151  0.00  0.00    +0.197 C 
BRANCH  11  12
ATOM     12  O   LIG    1       23.359 -11.511   2.216  0.00  0.00    -0.392 OA
ATOM     13  H   LIG    1       23.283 -10.696   1.689  0.00  0.00    +0.209 HD
ENDBRANCH  11  12
ENDBRANCH  10  11
ENDBRANCH   9  10
ENDBRANCH   3   9
ENDBRANCH   1   6
BRANCH   1  14
ATOM     14  C   LIG    1       22.856 -19.173   4.061  0.00  0.00    -0.017 A 
ATOM     15  C   LIG    1       22.192 -20.379   4.143  0.00  0.00    +0.008 A 
ATOM     16  C   LIG    1       20.812 -20.584   4.010  0.00  0.00    +0.001 A 
ATOM     17  C   LIG    1       20.004 -19.494   3.670  0.00  0.00    +0.000 A 
ATOM     18  C   LIG    1       20.595 -18.285   3.492  0.00  0.00    +0.001 A 
ATOM     19  C   LIG    1       21.985 -18.114   3.649  0.00  0.00    +0.008 A 
ENDBRANCH   1  14
BRANCH   2  20
ATOM     20  C   LIG    1       26.809 -19.679   5.254  0.00  0.00    -0.021 A 
ATOM     21  C   LIG    1       27.573 -20.437   6.144  0.00  0.00    +0.008 A 
ATOM     22  C   LIG    1       28.841 -20.049   6.616  0.00  0.00    +0.001 A 
ATOM     23  C   LIG    1       29.475 -18.950   6.105  0.00  0.00    +0.000 A 
ATOM     24  C   LIG    1       28.865 -18.288   5.053  0.00  0.00    +0.001 A 
ATOM     25  C   LIG    1       27.604 -18.720   4.623  0.00  0.00    +0.008 A 
ENDBRANCH   2  20
BRANCH   2  26
ATOM     26  C   LIG    1       24.861 -21.247   5.452  0.00  0.00    +0.052 C 
BRANCH  26  27
ATOM     27  C   LIG    1       24.227 -21.507   6.863  0.00  0.00    +0.113 C 
ATOM     28 CL   LIG    1       22.446 -21.490   7.062  0.00  0.00    -0.125 Cl
ENDBRANCH  26  27
ENDBRANCH   2  26
TORSDOF 9
ENDMDL
