MODEL 1
REMARK VINA RESULT:      -4.1      0.000      0.000
REMARK  Name = *****
REMARK                            x       y       z     vdW  Elec       q    Type
REMARK                         _______ _______ _______ _____ _____    ______ ____
ROOT
ATOM      1  N   LIG    1       27.374 -13.866   3.820  0.00  0.00    +0.239 N 
ATOM      2  C   LIG    1       28.776 -13.199   3.661  0.00  0.00    +0.192 C 
ATOM      3  C   LIG    1       26.983 -13.485   5.193  0.00  0.00    +0.192 C 
ENDROOT
BRANCH   1   4
ATOM      4  C   LIG    1       27.600 -15.424   3.703  0.00  0.00    +0.132 C 
BRANCH   4   5
ATOM      5  C   LIG    1       26.434 -16.388   3.401  0.00  0.00    +0.051 C 
BRANCH   5   6
ATOM      6  C   LIG    1       26.272 -17.763   4.072  0.00  0.00    +0.005 C 
BRANCH   6   7
ATOM      7  C   LIG    1       25.903 -19.050   3.300  0.00  0.00    +0.000 C 
BRANCH   7   8
ATOM      8  C   LIG    1       25.660 -20.351   4.072  0.00  0.00    -0.000 C 
BRANCH   8   9
ATOM      9  C   LIG    1       25.699 -20.227   5.594  0.00  0.00    -0.000 C 
BRANCH   9  10
ATOM     10  C   LIG    1       26.642 -20.812   6.609  0.00  0.00    -0.000 C 
BRANCH  10  11
ATOM     11  C   LIG    1       27.906 -20.078   6.991  0.00  0.00    -0.000 C 
BRANCH  11  13
ATOM     12  C   LIG    1       29.469 -18.450   5.755  0.00  0.00    +0.004 C 
ATOM     13  C   LIG    1       28.978 -19.884   5.919  0.00  0.00    -0.003 C 
ENDBRANCH  11  13
ENDBRANCH  10  11
ENDBRANCH   9  10
ENDBRANCH   8   9
ENDBRANCH   7   8
ENDBRANCH   6   7
ENDBRANCH   5   6
ENDBRANCH   4   5
ENDBRANCH   1   4
BRANCH   1  14
ATOM     14  C   LIG    1       26.351 -13.286   2.830  0.00  0.00    +0.132 C 
BRANCH  14  15
ATOM     15  C   LIG    1       24.999 -14.031   2.956  0.00  0.00    +0.051 C 
BRANCH  15  16
ATOM     16  C   LIG    1       24.093 -13.606   4.093  0.00  0.00    +0.005 C 
BRANCH  16  17
ATOM     17  C   LIG    1       23.438 -14.707   4.939  0.00  0.00    +0.000 C 
BRANCH  17  18
ATOM     18  C   LIG    1       22.628 -15.841   4.269  0.00  0.00    -0.000 C 
BRANCH  18  19
ATOM     19  C   LIG    1       23.064 -17.343   4.245  0.00  0.00    -0.000 C 
BRANCH  19  20
ATOM     20  C   LIG    1       22.390 -18.465   5.108  0.00  0.00    -0.000 C 
BRANCH  20  21
ATOM     21  C   LIG    1       22.090 -19.785   4.277  0.00  0.00    -0.000 C 
BRANCH  21  22
ATOM     22  C   LIG    1       22.041 -21.130   5.063  0.00  0.00    -0.003 C 
ATOM     23  C   LIG    1       22.808 -21.166   6.404  0.00  0.00    +0.004 C 
ENDBRANCH  21  22
ENDBRANCH  20  21
ENDBRANCH  19  20
ENDBRANCH  18  19
ENDBRANCH  17  18
ENDBRANCH  16  17
ENDBRANCH  15  16
ENDBRANCH  14  15
ENDBRANCH   1  14
TORSDOF 18
ENDMDL
MODEL 2
REMARK VINA RESULT:      -4.1      1.336      2.932
REMARK  Name = *****
REMARK                            x       y       z     vdW  Elec       q    Type
REMARK                         _______ _______ _______ _____ _____    ______ ____
ROOT
ATOM      1  N   LIG    1       27.655 -13.464   3.727  0.00  0.00    +0.239 N 
ATOM      2  C   LIG    1       29.140 -13.002   3.866  0.00  0.00    +0.192 C 
ATOM      3  C   LIG    1       27.141 -13.332   5.107  0.00  0.00    +0.192 C 
ENDROOT
BRANCH   1   4
ATOM      4  C   LIG    1       27.694 -14.976   3.276  0.00  0.00    +0.132 C 
BRANCH   4   5
ATOM      5  C   LIG    1       26.410 -15.829   3.202  0.00  0.00    +0.051 C 
BRANCH   5   6
ATOM      6  C   LIG    1       26.265 -17.207   3.870  0.00  0.00    +0.005 C 
BRANCH   6   7
ATOM      7  C   LIG    1       25.679 -18.444   3.153  0.00  0.00    +0.000 C 
BRANCH   7   8
ATOM      8  C   LIG    1       25.192 -19.638   3.982  0.00  0.00    -0.000 C 
BRANCH   8   9
ATOM      9  C   LIG    1       26.238 -20.270   4.898  0.00  0.00    -0.000 C 
BRANCH   9  10
ATOM     10  C   LIG    1       26.231 -20.515   6.382  0.00  0.00    -0.000 C 
BRANCH  10  11
ATOM     11  C   LIG    1       24.994 -21.056   7.062  0.00  0.00    -0.000 C 
BRANCH  11  13
ATOM     12  C   LIG    1       22.771 -21.496   5.845  0.00  0.00    +0.004 C 
ATOM     13  C   LIG    1       23.635 -20.511   6.624  0.00  0.00    -0.003 C 
ENDBRANCH  11  13
ENDBRANCH  10  11
ENDBRANCH   9  10
ENDBRANCH   8   9
ENDBRANCH   7   8
ENDBRANCH   6   7
ENDBRANCH   5   6
ENDBRANCH   4   5
ENDBRANCH   1   4
BRANCH   1  14
ATOM     14  C   LIG    1       26.853 -12.534   2.803  0.00  0.00    +0.132 C 
BRANCH  14  15
ATOM     15  C   LIG    1       25.752 -13.333   2.061  0.00  0.00    +0.051 C 
BRANCH  15  16
ATOM     16  C   LIG    1       24.407 -12.654   1.907  0.00  0.00    +0.005 C 
BRANCH  16  17
ATOM     17  C   LIG    1       23.873 -11.841   3.095  0.00  0.00    +0.000 C 
BRANCH  17  18
ATOM     18  C   LIG    1       23.653 -12.506   4.473  0.00  0.00    -0.000 C 
BRANCH  18  19
ATOM     19  C   LIG    1       23.864 -14.029   4.762  0.00  0.00    -0.000 C 
BRANCH  19  20
ATOM     20  C   LIG    1       23.084 -15.176   4.031  0.00  0.00    -0.000 C 
BRANCH  20  21
ATOM     21  C   LIG    1       22.309 -16.132   5.035  0.00  0.00    -0.000 C 
BRANCH  21  22
ATOM     22  C   LIG    1       22.398 -17.667   4.776  0.00  0.00    -0.003 C 
ATOM     23  C   LIG    1       21.463 -18.229   3.682  0.00  0.00    +0.004 C 
ENDBRANCH  21  22
ENDBRANCH  20  21
ENDBRANCH  19  20
ENDBRANCH  18  19
ENDBRANCH  17  18
ENDBRANCH  16  17
ENDBRANCH  15  16
ENDBRANCH  14  15
ENDBRANCH   1  14
TORSDOF 18
ENDMDL
MODEL 3
REMARK VINA RESULT:      -3.9      1.200      2.100
REMARK  Name = *****
REMARK                            x       y       z     vdW  Elec       q    Type
REMARK                         _______ _______ _______ _____ _____    ______ ____
ROOT
ATOM      1  N   LIG    1       27.585 -13.522   3.859  0.00  0.00    +0.239 N 
ATOM      2  C   LIG    1       29.011 -12.941   4.116  0.00  0.00    +0.192 C 
ATOM      3  C   LIG    1       26.889 -13.262   5.136  0.00  0.00    +0.192 C 
ENDROOT
BRANCH   1   4
ATOM      4  C   LIG    1       27.767 -15.071   3.615  0.00  0.00    +0.132 C 
BRANCH   4   5
ATOM      5  C   LIG    1       26.553 -16.015   3.477  0.00  0.00    +0.051 C 
BRANCH   5   6
ATOM      6  C   LIG    1       26.631 -17.536   3.693  0.00  0.00    +0.005 C 
BRANCH   6   7
ATOM      7  C   LIG    1       25.547 -18.522   3.201  0.00  0.00    +0.000 C 
BRANCH   7   8
ATOM      8  C   LIG    1       24.788 -19.378   4.221  0.00  0.00    -0.000 C 
BRANCH   8   9
ATOM      9  C   LIG    1       25.524 -20.624   4.709  0.00  0.00    -0.000 C 
BRANCH   9  10
ATOM     10  C   LIG    1       26.126 -20.954   6.048  0.00  0.00    -0.000 C 
BRANCH  10  11
ATOM     11  C   LIG    1       27.251 -20.115   6.608  0.00  0.00    -0.000 C 
BRANCH  11  13
ATOM     12  C   LIG    1       29.413 -18.797   6.153  0.00  0.00    +0.004 C 
ATOM     13  C   LIG    1       28.532 -19.985   5.785  0.00  0.00    -0.003 C 
ENDBRANCH  11  13
ENDBRANCH  10  11
ENDBRANCH   9  10
ENDBRANCH   8   9
ENDBRANCH   7   8
ENDBRANCH   6   7
ENDBRANCH   5   6
ENDBRANCH   4   5
ENDBRANCH   1   4
BRANCH   1  14
ATOM     14  C   LIG    1       26.858 -12.772   2.731  0.00  0.00    +0.132 C 
BRANCH  14  15
ATOM     15  C   LIG    1       25.672 -13.615   2.202  0.00  0.00    +0.051 C 
BRANCH  15  16
ATOM     16  C   LIG    1       24.323 -12.929   2.146  0.00  0.00    +0.005 C 
BRANCH  16  17
ATOM     17  C   LIG    1       23.952 -11.978   3.293  0.00  0.00    +0.000 C 
BRANCH  17  18
ATOM     18  C   LIG    1       23.740 -12.516   4.727  0.00  0.00    -0.000 C 
BRANCH  18  19
ATOM     19  C   LIG    1       23.714 -14.033   5.107  0.00  0.00    -0.000 C 
BRANCH  19  20
ATOM     20  C   LIG    1       23.198 -15.166   4.154  0.00  0.00    -0.000 C 
BRANCH  20  21
ATOM     21  C   LIG    1       22.171 -16.148   4.863  0.00  0.00    -0.000 C 
BRANCH  21  22
ATOM     22  C   LIG    1       22.371 -17.678   4.639  0.00  0.00    -0.003 C 
ATOM     23  C   LIG    1       21.207 -18.425   3.950  0.00  0.00    +0.004 C 
ENDBRANCH  21  22
ENDBRANCH  20  21
ENDBRANCH  19  20
ENDBRANCH  18  19
ENDBRANCH  17  18
ENDBRANCH  16  17
ENDBRANCH  15  16
ENDBRANCH  14  15
ENDBRANCH   1  14
TORSDOF 18
ENDMDL
MODEL 4
REMARK VINA RESULT:      -3.6      2.158      7.662
REMARK  Name = *****
REMARK                            x       y       z     vdW  Elec       q    Type
REMARK                         _______ _______ _______ _____ _____    ______ ____
ROOT
ATOM      1  N   LIG    1       23.299 -20.552   5.001  0.00  0.00    +0.239 N 
ATOM      2  C   LIG    1       22.120 -21.550   4.776  0.00  0.00    +0.192 C 
ATOM      3  C   LIG    1       23.254 -20.317   6.459  0.00  0.00    +0.192 C 
ENDROOT
BRANCH   1   4
ATOM      4  C   LIG    1       22.937 -19.240   4.201  0.00  0.00    +0.132 C 
BRANCH   4   5
ATOM      5  C   LIG    1       21.939 -18.204   4.761  0.00  0.00    +0.051 C 
BRANCH   5   6
ATOM      6  C   LIG    1       21.982 -16.707   4.408  0.00  0.00    +0.005 C 
BRANCH   6   7
ATOM      7  C   LIG    1       22.698 -15.648   5.277  0.00  0.00    +0.000 C 
BRANCH   7   8
ATOM      8  C   LIG    1       23.747 -14.732   4.638  0.00  0.00    -0.000 C 
BRANCH   8   9
ATOM      9  C   LIG    1       23.370 -14.151   3.277  0.00  0.00    -0.000 C 
BRANCH   9  10
ATOM     10  C   LIG    1       23.921 -12.975   2.518  0.00  0.00    -0.000 C 
BRANCH  10  11
ATOM     11  C   LIG    1       23.931 -11.599   3.142  0.00  0.00    -0.000 C 
BRANCH  11  13
ATOM     12  C   LIG    1       24.524 -11.447   5.641  0.00  0.00    +0.004 C 
ATOM     13  C   LIG    1       23.430 -11.456   4.579  0.00  0.00    -0.003 C 
ENDBRANCH  11  13
ENDBRANCH  10  11
ENDBRANCH   9  10
ENDBRANCH   8   9
ENDBRANCH   7   8
ENDBRANCH   6   7
ENDBRANCH   5   6
ENDBRANCH   4   5
ENDBRANCH   1   4
BRANCH   1  14
ATOM     14  C   LIG    1       24.654 -21.179   4.636  0.00  0.00    +0.132 C 
BRANCH  14  15
ATOM     15  C   LIG    1       25.794 -20.497   5.434  0.00  0.00    +0.051 C 
BRANCH  15  16
ATOM     16  C   LIG    1       26.661 -19.515   4.675  0.00  0.00    +0.005 C 
BRANCH  16  17
ATOM     17  C   LIG    1       26.074 -18.864   3.414  0.00  0.00    +0.000 C 
BRANCH  17  18
ATOM     18  C   LIG    1       25.765 -17.350   3.379  0.00  0.00    -0.000 C 
BRANCH  18  19
ATOM     19  C   LIG    1       26.824 -16.225   3.626  0.00  0.00    -0.000 C 
BRANCH  19  20
ATOM     20  C   LIG    1       26.896 -14.893   2.801  0.00  0.00    -0.000 C 
BRANCH  20  21
ATOM     21  C   LIG    1       27.249 -13.631   3.699  0.00  0.00    -0.000 C 
BRANCH  21  22
ATOM     22  C   LIG    1       28.754 -13.253   3.843  0.00  0.00    -0.003 C 
ATOM     23  C   LIG    1       29.056 -11.902   4.527  0.00  0.00    +0.004 C 
ENDBRANCH  21  22
ENDBRANCH  20  21
ENDBRANCH  19  20
ENDBRANCH  18  19
ENDBRANCH  17  18
ENDBRANCH  16  17
ENDBRANCH  15  16
ENDBRANCH  14  15
ENDBRANCH   1  14
TORSDOF 18
ENDMDL
MODEL 5
REMARK VINA RESULT:      -3.5      1.337      2.756
REMARK  Name = *****
REMARK                            x       y       z     vdW  Elec       q    Type
REMARK                         _______ _______ _______ _____ _____    ______ ____
ROOT
ATOM      1  N   LIG    1       24.619 -12.996   3.285  0.00  0.00    +0.239 N 
ATOM      2  C   LIG    1       23.942 -13.583   2.006  0.00  0.00    +0.192 C 
ATOM      3  C   LIG    1       24.018 -11.650   3.385  0.00  0.00    +0.192 C 
ENDROOT
BRANCH   1   4
ATOM      4  C   LIG    1       26.165 -12.908   2.975  0.00  0.00    +0.132 C 
BRANCH   4   5
ATOM      5  C   LIG    1       27.022 -14.177   2.782  0.00  0.00    +0.051 C 
BRANCH   5   6
ATOM      6  C   LIG    1       27.599 -14.998   3.948  0.00  0.00    +0.005 C 
BRANCH   6   7
ATOM      7  C   LIG    1       27.644 -16.543   3.962  0.00  0.00    +0.000 C 
BRANCH   7   8
ATOM      8  C   LIG    1       26.426 -17.337   3.478  0.00  0.00    -0.000 C 
BRANCH   8   9
ATOM      9  C   LIG    1       26.428 -18.823   3.834  0.00  0.00    -0.000 C 
BRANCH   9  10
ATOM     10  C   LIG    1       27.177 -19.582   4.894  0.00  0.00    -0.000 C 
BRANCH  10  11
ATOM     11  C   LIG    1       28.437 -19.008   5.501  0.00  0.00    -0.000 C 
BRANCH  11  13
ATOM     12  C   LIG    1       28.534 -21.051   7.062  0.00  0.00    +0.004 C 
ATOM     13  C   LIG    1       29.294 -19.920   6.378  0.00  0.00    -0.003 C 
ENDBRANCH  11  13
ENDBRANCH  10  11
ENDBRANCH   9  10
ENDBRANCH   8   9
ENDBRANCH   7   8
ENDBRANCH   6   7
ENDBRANCH   5   6
ENDBRANCH   4   5
ENDBRANCH   1   4
BRANCH   1  14
ATOM     14  C   LIG    1       24.257 -13.801   4.543  0.00  0.00    +0.132 C 
BRANCH  14  15
ATOM     15  C   LIG    1       23.778 -15.222   4.152  0.00  0.00    +0.051 C 
BRANCH  15  16
ATOM     16  C   LIG    1       22.372 -15.602   4.567  0.00  0.00    +0.005 C 
BRANCH  16  17
ATOM     17  C   LIG    1       22.043 -17.095   4.707  0.00  0.00    +0.000 C 
BRANCH  17  18
ATOM     18  C   LIG    1       23.170 -18.152   4.741  0.00  0.00    -0.000 C 
BRANCH  18  19
ATOM     19  C   LIG    1       23.250 -19.389   3.786  0.00  0.00    -0.000 C 
BRANCH  19  20
ATOM     20  C   LIG    1       23.374 -20.871   4.281  0.00  0.00    -0.000 C 
BRANCH  20  21
ATOM     21  C   LIG    1       22.472 -21.174   5.553  0.00  0.00    -0.000 C 
BRANCH  21  22
ATOM     22  C   LIG    1       23.189 -21.269   6.934  0.00  0.00    -0.003 C 
ATOM     23  C   LIG    1       24.646 -20.759   6.982  0.00  0.00    +0.004 C 
ENDBRANCH  21  22
ENDBRANCH  20  21
ENDBRANCH  19  20
ENDBRANCH  18  19
ENDBRANCH  17  18
ENDBRANCH  16  17
ENDBRANCH  15  16
ENDBRANCH  14  15
ENDBRANCH   1  14
TORSDOF 18
ENDMDL
MODEL 6
REMARK VINA RESULT:      -3.5      1.304      3.556
REMARK  Name = *****
REMARK                            x       y       z     vdW  Elec       q    Type
REMARK                         _______ _______ _______ _____ _____    ______ ____
ROOT
ATOM      1  N   LIG    1       24.273 -13.045   4.477  0.00  0.00    +0.239 N 
ATOM      2  C   LIG    1       23.670 -11.612   4.620  0.00  0.00    +0.192 C 
ATOM      3  C   LIG    1       25.561 -12.931   5.191  0.00  0.00    +0.192 C 
ENDROOT
BRANCH   1   4
ATOM      4  C   LIG    1       24.496 -13.288   2.933  0.00  0.00    +0.132 C 
BRANCH   4   5
ATOM      5  C   LIG    1       25.896 -13.597   2.360  0.00  0.00    +0.051 C 
BRANCH   5   6
ATOM      6  C   LIG    1       26.723 -14.832   2.758  0.00  0.00    +0.005 C 
BRANCH   6   7
ATOM      7  C   LIG    1       27.911 -14.779   3.744  0.00  0.00    +0.000 C 
BRANCH   7   8
ATOM      8  C   LIG    1       27.955 -15.753   4.926  0.00  0.00    -0.000 C 
BRANCH   8   9
ATOM      9  C   LIG    1       28.248 -17.209   4.567  0.00  0.00    -0.000 C 
BRANCH   9  10
ATOM     10  C   LIG    1       29.347 -18.134   5.013  0.00  0.00    -0.000 C 
BRANCH  10  11
ATOM     11  C   LIG    1       29.473 -18.525   6.468  0.00  0.00    -0.000 C 
BRANCH  11  13
ATOM     12  C   LIG    1       27.685 -20.322   6.905  0.00  0.00    +0.004 C 
ATOM     13  C   LIG    1       29.168 -19.971   6.854  0.00  0.00    -0.003 C 
ENDBRANCH  11  13
ENDBRANCH  10  11
ENDBRANCH   9  10
ENDBRANCH   8   9
ENDBRANCH   7   8
ENDBRANCH   6   7
ENDBRANCH   5   6
ENDBRANCH   4   5
ENDBRANCH   1   4
BRANCH   1  14
ATOM     14  C   LIG    1       23.403 -14.101   5.178  0.00  0.00    +0.132 C 
BRANCH  14  15
ATOM     15  C   LIG    1       23.319 -15.386   4.316  0.00  0.00    +0.051 C 
BRANCH  15  16
ATOM     16  C   LIG    1       22.404 -16.482   4.819  0.00  0.00    +0.005 C 
BRANCH  16  17
ATOM     17  C   LIG    1       22.364 -17.802   4.036  0.00  0.00    +0.000 C 
BRANCH  17  18
ATOM     18  C   LIG    1       21.655 -19.046   4.619  0.00  0.00    -0.000 C 
BRANCH  18  19
ATOM     19  C   LIG    1       22.395 -20.261   5.269  0.00  0.00    -0.000 C 
BRANCH  19  20
ATOM     20  C   LIG    1       23.881 -20.217   5.768  0.00  0.00    -0.000 C 
BRANCH  20  21
ATOM     21  C   LIG    1       24.904 -20.817   4.712  0.00  0.00    -0.000 C 
BRANCH  21  22
ATOM     22  C   LIG    1       25.035 -20.082   3.343  0.00  0.00    -0.003 C 
ATOM     23  C   LIG    1       25.452 -18.596   3.404  0.00  0.00    +0.004 C 
ENDBRANCH  21  22
ENDBRANCH  20  21
ENDBRANCH  19  20
ENDBRANCH  18  19
ENDBRANCH  17  18
ENDBRANCH  16  17
ENDBRANCH  15  16
ENDBRANCH  14  15
ENDBRANCH   1  14
TORSDOF 18
ENDMDL
MODEL 7
REMARK VINA RESULT:      -3.3      1.882      6.284
REMARK  Name = *****
REMARK                            x       y       z     vdW  Elec       q    Type
REMARK                         _______ _______ _______ _____ _____    ______ ____
ROOT
ATOM      1  N   LIG    1       28.312 -19.820   6.268  0.00  0.00    +0.239 N 
ATOM      2  C   LIG    1       29.389 -18.939   6.976  0.00  0.00    +0.192 C 
ATOM      3  C   LIG    1       28.925 -21.164   6.286  0.00  0.00    +0.192 C 
ENDROOT
BRANCH   1   4
ATOM      4  C   LIG    1       28.181 -19.273   4.793  0.00  0.00    +0.132 C 
BRANCH   4   5
ATOM      5  C   LIG    1       28.326 -17.770   4.474  0.00  0.00    +0.051 C 
BRANCH   5   6
ATOM      6  C   LIG    1       27.138 -16.794   4.418  0.00  0.00    +0.005 C 
BRANCH   6   7
ATOM      7  C   LIG    1       26.979 -15.707   3.331  0.00  0.00    +0.000 C 
BRANCH   7   8
ATOM      8  C   LIG    1       27.619 -14.331   3.541  0.00  0.00    -0.000 C 
BRANCH   8   9
ATOM      9  C   LIG    1       26.968 -13.182   2.774  0.00  0.00    -0.000 C 
BRANCH   9  10
ATOM     10  C   LIG    1       25.584 -13.034   2.203  0.00  0.00    -0.000 C 
BRANCH  10  11
ATOM     11  C   LIG    1       24.517 -12.283   2.966  0.00  0.00    -0.000 C 
BRANCH  11  13
ATOM     12  C   LIG    1       23.995 -14.507   4.149  0.00  0.00    +0.004 C 
ATOM     13  C   LIG    1       23.541 -13.089   3.821  0.00  0.00    -0.003 C 
ENDBRANCH  11  13
ENDBRANCH  10  11
ENDBRANCH   9  10
ENDBRANCH   8   9
ENDBRANCH   7   8
ENDBRANCH   6   7
ENDBRANCH   5   6
ENDBRANCH   4   5
ENDBRANCH   1   4
BRANCH   1  14
ATOM     14  C   LIG    1       26.996 -19.859   7.062  0.00  0.00    +0.132 C 
BRANCH  14  15
ATOM     15  C   LIG    1       26.217 -21.160   6.747  0.00  0.00    +0.051 C 
BRANCH  15  16
ATOM     16  C   LIG    1       24.728 -21.143   7.022  0.00  0.00    +0.005 C 
BRANCH  16  17
ATOM     17  C   LIG    1       23.777 -21.422   5.849  0.00  0.00    +0.000 C 
BRANCH  17  18
ATOM     18  C   LIG    1       24.321 -21.572   4.410  0.00  0.00    -0.000 C 
BRANCH  18  19
ATOM     19  C   LIG    1       24.329 -20.426   3.345  0.00  0.00    -0.000 C 
BRANCH  19  20
ATOM     20  C   LIG    1       24.462 -18.904   3.696  0.00  0.00    -0.000 C 
BRANCH  20  21
ATOM     21  C   LIG    1       23.165 -18.318   4.402  0.00  0.00    -0.000 C 
BRANCH  21  22
ATOM     22  C   LIG    1       21.834 -19.110   4.225  0.00  0.00    -0.003 C 
ATOM     23  C   LIG    1       20.725 -18.407   3.411  0.00  0.00    +0.004 C 
ENDBRANCH  21  22
ENDBRANCH  20  21
ENDBRANCH  19  20
ENDBRANCH  18  19
ENDBRANCH  17  18
ENDBRANCH  16  17
ENDBRANCH  15  16
ENDBRANCH  14  15
ENDBRANCH   1  14
TORSDOF 18
ENDMDL
MODEL 8
REMARK VINA RESULT:      -3.3      1.400      3.710
REMARK  Name = *****
REMARK                            x       y       z     vdW  Elec       q    Type
REMARK                         _______ _______ _______ _____ _____    ______ ____
ROOT
ATOM      1  N   LIG    1       24.334 -13.182   4.425  0.00  0.00    +0.239 N 
ATOM      2  C   LIG    1       25.634 -12.830   5.215  0.00  0.00    +0.192 C 
ATOM      3  C   LIG    1       23.518 -11.959   4.576  0.00  0.00    +0.192 C 
ENDROOT
BRANCH   1   4
ATOM      4  C   LIG    1       23.670 -14.405   5.172  0.00  0.00    +0.132 C 
BRANCH   4   5
ATOM      5  C   LIG    1       22.727 -15.381   4.438  0.00  0.00    +0.051 C 
BRANCH   5   6
ATOM      6  C   LIG    1       22.355 -16.772   4.981  0.00  0.00    +0.005 C 
BRANCH   6   7
ATOM      7  C   LIG    1       22.414 -18.062   4.131  0.00  0.00    +0.000 C 
BRANCH   7   8
ATOM      8  C   LIG    1       21.996 -19.397   4.756  0.00  0.00    -0.000 C 
BRANCH   8   9
ATOM      9  C   LIG    1       22.667 -19.739   6.084  0.00  0.00    -0.000 C 
BRANCH   9  10
ATOM     10  C   LIG    1       23.150 -21.052   6.638  0.00  0.00    -0.000 C 
BRANCH  10  11
ATOM     11  C   LIG    1       24.591 -21.220   7.061  0.00  0.00    -0.000 C 
BRANCH  11  13
ATOM     12  C   LIG    1       27.072 -20.565   6.879  0.00  0.00    +0.004 C 
ATOM     13  C   LIG    1       25.650 -20.365   6.366  0.00  0.00    -0.003 C 
ENDBRANCH  11  13
ENDBRANCH  10  11
ENDBRANCH   9  10
ENDBRANCH   8   9
ENDBRANCH   7   8
ENDBRANCH   6   7
ENDBRANCH   5   6
ENDBRANCH   4   5
ENDBRANCH   1   4
BRANCH   1  14
ATOM     14  C   LIG    1       24.619 -13.413   2.933  0.00  0.00    +0.132 C 
BRANCH  14  15
ATOM     15  C   LIG    1       25.999 -12.822   2.551  0.00  0.00    +0.051 C 
BRANCH  15  16
ATOM     16  C   LIG    1       27.138 -13.807   2.389  0.00  0.00    +0.005 C 
BRANCH  16  17
ATOM     17  C   LIG    1       27.916 -14.221   3.646  0.00  0.00    +0.000 C 
BRANCH  17  18
ATOM     18  C   LIG    1       27.688 -15.605   4.295  0.00  0.00    -0.000 C 
BRANCH  18  19
ATOM     19  C   LIG    1       27.148 -16.860   3.533  0.00  0.00    -0.000 C 
BRANCH  19  20
ATOM     20  C   LIG    1       25.626 -17.194   3.363  0.00  0.00    -0.000 C 
BRANCH  20  21
ATOM     21  C   LIG    1       25.376 -18.591   2.650  0.00  0.00    -0.000 C 
BRANCH  21  22
ATOM     22  C   LIG    1       25.517 -19.875   3.522  0.00  0.00    -0.003 C 
ATOM     23  C   LIG    1       24.510 -21.010   3.232  0.00  0.00    +0.004 C 
ENDBRANCH  21  22
ENDBRANCH  20  21
ENDBRANCH  19  20
ENDBRANCH  18  19
ENDBRANCH  17  18
ENDBRANCH  16  17
ENDBRANCH  15  16
ENDBRANCH  14  15
ENDBRANCH   1  14
TORSDOF 18
ENDMDL
MODEL 9
REMARK VINA RESULT:      -3.2      1.872      6.246
REMARK  Name = *****
REMARK                            x       y       z     vdW  Elec       q    Type
REMARK                         _______ _______ _______ _____ _____    ______ ____
ROOT
ATOM      1  N   LIG    1       27.771 -20.100   6.014  0.00  0.00    +0.239 N 
ATOM      2  C   LIG    1       28.966 -19.208   6.476  0.00  0.00    +0.192 C 
ATOM      3  C   LIG    1       28.383 -21.442   5.917  0.00  0.00    +0.192 C 
ENDROOT
BRANCH   1   4
ATOM      4  C   LIG    1       27.336 -19.569   4.592  0.00  0.00    +0.132 C 
BRANCH   4   5
ATOM      5  C   LIG    1       27.537 -18.093   4.187  0.00  0.00    +0.051 C 
BRANCH   5   6
ATOM      6  C   LIG    1       26.513 -17.290   3.367  0.00  0.00    +0.005 C 
BRANCH   6   7
ATOM      7  C   LIG    1       26.540 -15.750   3.243  0.00  0.00    +0.000 C 
BRANCH   7   8
ATOM      8  C   LIG    1       27.635 -14.954   3.961  0.00  0.00    -0.000 C 
BRANCH   8   9
ATOM      9  C   LIG    1       27.139 -13.908   4.957  0.00  0.00    -0.000 C 
BRANCH   9  10
ATOM     10  C   LIG    1       25.747 -13.461   5.308  0.00  0.00    -0.000 C 
BRANCH  10  11
ATOM     11  C   LIG    1       24.947 -12.621   4.338  0.00  0.00    -0.000 C 
BRANCH  11  13
ATOM     12  C   LIG    1       24.470 -12.106   1.863  0.00  0.00    +0.004 C 
ATOM     13  C   LIG    1       24.722 -13.167   2.928  0.00  0.00    -0.003 C 
ENDBRANCH  11  13
ENDBRANCH  10  11
ENDBRANCH   9  10
ENDBRANCH   8   9
ENDBRANCH   7   8
ENDBRANCH   6   7
ENDBRANCH   5   6
ENDBRANCH   4   5
ENDBRANCH   1   4
BRANCH   1  14
ATOM     14  C   LIG    1       26.648 -20.137   7.062  0.00  0.00    +0.132 C 
BRANCH  14  15
ATOM     15  C   LIG    1       25.869 -21.473   6.968  0.00  0.00    +0.051 C 
BRANCH  15  16
ATOM     16  C   LIG    1       24.359 -21.384   7.035  0.00  0.00    +0.005 C 
BRANCH  16  17
ATOM     17  C   LIG    1       23.569 -21.568   5.732  0.00  0.00    +0.000 C 
BRANCH  17  18
ATOM     18  C   LIG    1       24.168 -21.126   4.377  0.00  0.00    -0.000 C 
BRANCH  18  19
ATOM     19  C   LIG    1       23.442 -20.193   3.352  0.00  0.00    -0.000 C 
BRANCH  19  20
ATOM     20  C   LIG    1       23.371 -18.633   3.486  0.00  0.00    -0.000 C 
BRANCH  20  21
ATOM     21  C   LIG    1       22.094 -18.139   4.291  0.00  0.00    -0.000 C 
BRANCH  21  22
ATOM     22  C   LIG    1       22.243 -16.845   5.147  0.00  0.00    -0.003 C 
ATOM     23  C   LIG    1       22.886 -15.631   4.442  0.00  0.00    +0.004 C 
ENDBRANCH  21  22
ENDBRANCH  20  21
ENDBRANCH  19  20
ENDBRANCH  18  19
ENDBRANCH  17  18
ENDBRANCH  16  17
ENDBRANCH  15  16
ENDBRANCH  14  15
ENDBRANCH   1  14
TORSDOF 18
ENDMDL
