MODEL 1
REMARK VINA RESULT:      -7.8      0.000      0.000
REMARK  Name = *****
REMARK                            x       y       z     vdW  Elec       q    Type
REMARK                         _______ _______ _______ _____ _____    ______ ____
ROOT
ATOM      1  C   LIG    1       27.058 -21.591   7.496  0.00  0.00    +0.056 A 
ATOM      2  C   LIG    1       26.829 -20.659   6.459  0.00  0.00    +0.043 A 
ATOM      3  C   LIG    1       28.040 -20.045   6.051  0.00  0.00    +0.129 A 
ATOM      4  N   LIG    1       29.255 -20.290   6.561  0.00  0.00    -0.200 NA
ATOM      5  C   LIG    1       29.337 -21.159   7.558  0.00  0.00    +0.214 A 
ATOM      6  N   LIG    1       28.289 -21.826   8.027  0.00  0.00    -0.219 NA
ENDROOT
BRANCH   2   7
ATOM      7  C   LIG    1       25.492 -20.346   5.830  0.00  0.00    -0.013 A 
ATOM      8  C   LIG    1       24.268 -20.445   6.519  0.00  0.00    +0.010 A 
ATOM      9  C   LIG    1       23.024 -20.171   5.924  0.00  0.00    +0.020 A 
ATOM     10  C   LIG    1       22.967 -19.719   4.617  0.00  0.00    +0.041 A 
ATOM     11 CL   LIG    1       21.451 -19.333   3.903  0.00  0.00    -0.084 Cl
ATOM     12  C   LIG    1       24.143 -19.566   3.900  0.00  0.00    +0.020 A 
ATOM     13  C   LIG    1       25.378 -19.893   4.493  0.00  0.00    +0.010 A 
ENDBRANCH   2   7
BRANCH   3  14
ATOM     14  N   LIG    1       28.113 -19.068   5.049  0.00  0.00    -0.343 N 
ATOM     15  H   LIG    1       27.404 -18.359   5.187  0.00  0.00    +0.144 HD
ATOM     16  H   LIG    1       29.046 -18.661   5.147  0.00  0.00    +0.144 HD
ENDBRANCH   3  14
BRANCH   5  17
ATOM     17  N   LIG    1       30.565 -21.415   8.106  0.00  0.00    -0.327 N 
ATOM     18  H   LIG    1       31.237 -21.590   7.372  0.00  0.00    +0.145 HD
ATOM     19  H   LIG    1       30.473 -22.121   8.824  0.00  0.00    +0.145 HD
ENDBRANCH   5  17
BRANCH   1  21
ATOM     20  C   LIG    1       25.764 -23.755   7.331  0.00  0.00    +0.010 C 
ATOM     21  C   LIG    1       26.041 -22.500   8.139  0.00  0.00    +0.053 C 
ENDBRANCH   1  21
TORSDOF 4
ENDMDL
MODEL 2
REMARK VINA RESULT:      -7.3      1.283      3.024
REMARK  Name = *****
REMARK                            x       y       z     vdW  Elec       q    Type
REMARK                         _______ _______ _______ _____ _____    ______ ____
ROOT
ATOM      1  C   LIG    1       28.217 -20.004   6.254  0.00  0.00    +0.056 A 
ATOM      2  C   LIG    1       27.138 -20.760   6.763  0.00  0.00    +0.043 A 
ATOM      3  C   LIG    1       27.544 -21.541   7.874  0.00  0.00    +0.129 A 
ATOM      4  N   LIG    1       28.779 -21.583   8.396  0.00  0.00    -0.200 NA
ATOM      5  C   LIG    1       29.717 -20.857   7.805  0.00  0.00    +0.214 A 
ATOM      6  N   LIG    1       29.475 -20.061   6.771  0.00  0.00    -0.219 NA
ENDROOT
BRANCH   2   7
ATOM      7  C   LIG    1       25.723 -20.749   6.236  0.00  0.00    -0.013 A 
ATOM      8  C   LIG    1       25.404 -20.820   4.866  0.00  0.00    +0.010 A 
ATOM      9  C   LIG    1       24.087 -20.791   4.378  0.00  0.00    +0.020 A 
ATOM     10  C   LIG    1       23.022 -20.753   5.262  0.00  0.00    +0.041 A 
ATOM     11 CL   LIG    1       21.408 -20.770   4.670  0.00  0.00    -0.084 Cl
ATOM     12  C   LIG    1       23.273 -20.719   6.624  0.00  0.00    +0.020 A 
ATOM     13  C   LIG    1       24.599 -20.698   7.098  0.00  0.00    +0.010 A 
ENDBRANCH   2   7
BRANCH   3  14
ATOM     14  N   LIG    1       26.685 -22.401   8.571  0.00  0.00    -0.343 N 
ATOM     15  H   LIG    1       26.007 -22.816   7.945  0.00  0.00    +0.144 HD
ATOM     16  H   LIG    1       27.296 -23.123   8.961  0.00  0.00    +0.144 HD
ENDBRANCH   3  14
BRANCH   5  17
ATOM     17  N   LIG    1       30.989 -20.895   8.309  0.00  0.00    -0.327 N 
ATOM     18  H   LIG    1       31.141 -21.771   8.788  0.00  0.00    +0.145 HD
ATOM     19  H   LIG    1       31.171 -20.047   8.830  0.00  0.00    +0.145 HD
ENDBRANCH   5  17
BRANCH   1  21
ATOM     20  C   LIG    1       29.326 -18.013   5.164  0.00  0.00    +0.010 C 
ATOM     21  C   LIG    1       28.170 -18.996   5.133  0.00  0.00    +0.053 C 
ENDBRANCH   1  21
TORSDOF 4
ENDMDL
MODEL 3
REMARK VINA RESULT:      -7.2      3.652      5.416
REMARK  Name = *****
REMARK                            x       y       z     vdW  Elec       q    Type
REMARK                         _______ _______ _______ _____ _____    ______ ____
ROOT
ATOM      1  C   LIG    1       24.967 -21.585   6.434  0.00  0.00    +0.056 A 
ATOM      2  C   LIG    1       25.784 -20.644   5.770  0.00  0.00    +0.043 A 
ATOM      3  C   LIG    1       25.078 -20.015   4.713  0.00  0.00    +0.129 A 
ATOM      4  N   LIG    1       23.807 -20.259   4.363  0.00  0.00    -0.200 NA
ATOM      5  C   LIG    1       23.155 -21.195   5.039  0.00  0.00    +0.214 A 
ATOM      6  N   LIG    1       23.683 -21.848   6.067  0.00  0.00    -0.219 NA
ENDROOT
BRANCH   2   7
ATOM      7  C   LIG    1       27.214 -20.309   6.120  0.00  0.00    -0.013 A 
ATOM      8  C   LIG    1       27.981 -19.355   5.423  0.00  0.00    +0.010 A 
ATOM      9  C   LIG    1       29.318 -19.059   5.740  0.00  0.00    +0.020 A 
ATOM     10  C   LIG    1       29.924 -19.672   6.823  0.00  0.00    +0.041 A 
ATOM     11 CL   LIG    1       31.542 -19.274   7.245  0.00  0.00    -0.084 Cl
ATOM     12  C   LIG    1       29.206 -20.594   7.570  0.00  0.00    +0.020 A 
ATOM     13  C   LIG    1       27.884 -20.917   7.210  0.00  0.00    +0.010 A 
ENDBRANCH   2   7
BRANCH   3  14
ATOM     14  N   LIG    1       25.643 -19.047   3.872  0.00  0.00    -0.343 N 
ATOM     15  H   LIG    1       25.687 -19.383   2.918  0.00  0.00    +0.144 HD
ATOM     16  H   LIG    1       25.015 -18.243   3.937  0.00  0.00    +0.144 HD
ENDBRANCH   3  14
BRANCH   5  17
ATOM     17  N   LIG    1       21.861 -21.474   4.690  0.00  0.00    -0.327 N 
ATOM     18  H   LIG    1       21.327 -21.705   5.516  0.00  0.00    +0.145 HD
ATOM     19  H   LIG    1       21.853 -22.144   3.933  0.00  0.00    +0.145 HD
ENDBRANCH   5  17
BRANCH   1  21
ATOM     20  C   LIG    1       25.730 -23.823   7.326  0.00  0.00    +0.010 C 
ATOM     21  C   LIG    1       25.326 -22.397   7.654  0.00  0.00    +0.053 C 
ENDBRANCH   1  21
TORSDOF 4
ENDMDL
MODEL 4
REMARK VINA RESULT:      -7.1      3.632      5.781
REMARK  Name = *****
REMARK                            x       y       z     vdW  Elec       q    Type
REMARK                         _______ _______ _______ _____ _____    ______ ____
ROOT
ATOM      1  C   LIG    1       25.051 -20.844   5.264  0.00  0.00    +0.056 A 
ATOM      2  C   LIG    1       25.862 -21.126   6.385  0.00  0.00    +0.043 A 
ATOM      3  C   LIG    1       25.176 -21.951   7.312  0.00  0.00    +0.129 A 
ATOM      4  N   LIG    1       23.926 -22.417   7.175  0.00  0.00    -0.200 NA
ATOM      5  C   LIG    1       23.252 -22.050   6.094  0.00  0.00    +0.214 A 
ATOM      6  N   LIG    1       23.775 -21.300   5.132  0.00  0.00    -0.219 NA
ENDROOT
BRANCH   2   7
ATOM      7  C   LIG    1       27.279 -20.648   6.597  0.00  0.00    -0.013 A 
ATOM      8  C   LIG    1       28.177 -21.258   7.494  0.00  0.00    +0.010 A 
ATOM      9  C   LIG    1       29.489 -20.800   7.701  0.00  0.00    +0.020 A 
ATOM     10  C   LIG    1       29.977 -19.737   6.960  0.00  0.00    +0.041 A 
ATOM     11 CL   LIG    1       31.598 -19.207   7.175  0.00  0.00    -0.084 Cl
ATOM     12  C   LIG    1       29.149 -19.120   6.035  0.00  0.00    +0.020 A 
ATOM     13  C   LIG    1       27.821 -19.558   5.873  0.00  0.00    +0.010 A 
ENDBRANCH   2   7
BRANCH   3  14
ATOM     14  N   LIG    1       25.731 -22.379   8.525  0.00  0.00    -0.343 N 
ATOM     15  H   LIG    1       26.739 -22.279   8.515  0.00  0.00    +0.144 HD
ATOM     16  H   LIG    1       25.321 -21.765   9.233  0.00  0.00    +0.144 HD
ENDBRANCH   3  14
BRANCH   5  17
ATOM     17  N   LIG    1       21.968 -22.500   5.939  0.00  0.00    -0.327 N 
ATOM     18  H   LIG    1       21.836 -23.348   6.471  0.00  0.00    +0.145 HD
ATOM     19  H   LIG    1       21.741 -22.534   4.954  0.00  0.00    +0.145 HD
ENDBRANCH   5  17
BRANCH   1  21
ATOM     20  C   LIG    1       24.408 -19.045   3.609  0.00  0.00    +0.010 C 
ATOM     21  C   LIG    1       25.446 -20.069   4.031  0.00  0.00    +0.053 C 
ENDBRANCH   1  21
TORSDOF 4
ENDMDL
MODEL 5
REMARK VINA RESULT:      -7.0      3.951      6.006
REMARK  Name = *****
REMARK                            x       y       z     vdW  Elec       q    Type
REMARK                         _______ _______ _______ _____ _____    ______ ____
ROOT
ATOM      1  C   LIG    1       24.710 -20.409   4.928  0.00  0.00    +0.056 A 
ATOM      2  C   LIG    1       24.009 -21.570   5.319  0.00  0.00    +0.043 A 
ATOM      3  C   LIG    1       22.609 -21.345   5.311  0.00  0.00    +0.129 A 
ATOM      4  N   LIG    1       22.000 -20.195   4.985  0.00  0.00    -0.200 NA
ATOM      5  C   LIG    1       22.770 -19.163   4.672  0.00  0.00    +0.214 A 
ATOM      6  N   LIG    1       24.094 -19.236   4.615  0.00  0.00    -0.219 NA
ENDROOT
BRANCH   2   7
ATOM      7  C   LIG    1       24.628 -22.898   5.684  0.00  0.00    -0.013 A 
ATOM      8  C   LIG    1       25.141 -23.190   6.963  0.00  0.00    +0.010 A 
ATOM      9  C   LIG    1       25.733 -24.421   7.293  0.00  0.00    +0.020 A 
ATOM     10  C   LIG    1       25.777 -25.442   6.359  0.00  0.00    +0.041 A 
ATOM     11 CL   LIG    1       26.454 -26.965   6.776  0.00  0.00    -0.084 Cl
ATOM     12  C   LIG    1       25.254 -25.225   5.094  0.00  0.00    +0.020 A 
ATOM     13  C   LIG    1       24.708 -23.970   4.761  0.00  0.00    +0.010 A 
ENDBRANCH   2   7
BRANCH   3  14
ATOM     14  N   LIG    1       21.666 -22.317   5.670  0.00  0.00    -0.343 N 
ATOM     15  H   LIG    1       21.829 -23.179   5.164  0.00  0.00    +0.144 HD
ATOM     16  H   LIG    1       21.806 -22.462   6.672  0.00  0.00    +0.144 HD
ENDBRANCH   3  14
BRANCH   5  17
ATOM     17  N   LIG    1       22.173 -17.974   4.350  0.00  0.00    -0.327 N 
ATOM     18  H   LIG    1       21.844 -17.519   5.189  0.00  0.00    +0.145 HD
ATOM     19  H   LIG    1       21.497 -18.125   3.613  0.00  0.00    +0.145 HD
ENDBRANCH   5  17
BRANCH   1  21
ATOM     20  C   LIG    1       26.966 -20.175   6.043  0.00  0.00    +0.010 C 
ATOM     21  C   LIG    1       26.200 -20.271   4.735  0.00  0.00    +0.053 C 
ENDBRANCH   1  21
TORSDOF 4
ENDMDL
MODEL 6
REMARK VINA RESULT:      -7.0      2.965      3.890
REMARK  Name = *****
REMARK                            x       y       z     vdW  Elec       q    Type
REMARK                         _______ _______ _______ _____ _____    ______ ____
ROOT
ATOM      1  C   LIG    1       25.453 -23.397   7.148  0.00  0.00    +0.056 A 
ATOM      2  C   LIG    1       24.931 -23.098   5.870  0.00  0.00    +0.043 A 
ATOM      3  C   LIG    1       25.010 -24.225   5.014  0.00  0.00    +0.129 A 
ATOM      4  N   LIG    1       25.508 -25.427   5.340  0.00  0.00    -0.200 NA
ATOM      5  C   LIG    1       26.004 -25.572   6.561  0.00  0.00    +0.214 A 
ATOM      6  N   LIG    1       25.977 -24.610   7.475  0.00  0.00    -0.219 NA
ENDROOT
BRANCH   2   7
ATOM      7  C   LIG    1       24.342 -21.776   5.441  0.00  0.00    -0.013 A 
ATOM      8  C   LIG    1       24.991 -20.885   4.564  0.00  0.00    +0.010 A 
ATOM      9  C   LIG    1       24.448 -19.647   4.181  0.00  0.00    +0.020 A 
ATOM     10  C   LIG    1       23.187 -19.279   4.620  0.00  0.00    +0.041 A 
ATOM     11 CL   LIG    1       22.498 -17.788   4.112  0.00  0.00    -0.084 Cl
ATOM     12  C   LIG    1       22.485 -20.132   5.456  0.00  0.00    +0.020 A 
ATOM     13  C   LIG    1       23.062 -21.347   5.872  0.00  0.00    +0.010 A 
ENDBRANCH   2   7
BRANCH   3  14
ATOM     14  N   LIG    1       24.579 -24.217   3.681  0.00  0.00    -0.343 N 
ATOM     15  H   LIG    1       25.126 -24.860   3.123  0.00  0.00    +0.144 HD
ATOM     16  H   LIG    1       23.603 -24.520   3.717  0.00  0.00    +0.144 HD
ENDBRANCH   3  14
BRANCH   5  17
ATOM     17  N   LIG    1       26.534 -26.785   6.913  0.00  0.00    -0.327 N 
ATOM     18  H   LIG    1       27.142 -26.673   7.712  0.00  0.00    +0.145 HD
ATOM     19  H   LIG    1       26.926 -27.232   6.095  0.00  0.00    +0.145 HD
ENDBRANCH   5  17
BRANCH   1  21
ATOM     20  C   LIG    1       26.552 -21.424   8.281  0.00  0.00    +0.010 C 
ATOM     21  C   LIG    1       25.474 -22.490   8.354  0.00  0.00    +0.053 C 
ENDBRANCH   1  21
TORSDOF 4
ENDMDL
MODEL 7
REMARK VINA RESULT:      -6.6      3.615      5.643
REMARK  Name = *****
REMARK                            x       y       z     vdW  Elec       q    Type
REMARK                         _______ _______ _______ _____ _____    ______ ____
ROOT
ATOM      1  C   LIG    1       23.727 -20.513   6.060  0.00  0.00    +0.056 A 
ATOM      2  C   LIG    1       25.002 -20.145   5.578  0.00  0.00    +0.043 A 
ATOM      3  C   LIG    1       24.894 -19.365   4.399  0.00  0.00    +0.129 A 
ATOM      4  N   LIG    1       23.751 -19.010   3.794  0.00  0.00    -0.200 NA
ATOM      5  C   LIG    1       22.618 -19.450   4.322  0.00  0.00    +0.214 A 
ATOM      6  N   LIG    1       22.567 -20.169   5.437  0.00  0.00    -0.219 NA
ENDROOT
BRANCH   2   7
ATOM      7  C   LIG    1       26.326 -20.496   6.215  0.00  0.00    -0.013 A 
ATOM      8  C   LIG    1       27.566 -20.032   5.735  0.00  0.00    +0.010 A 
ATOM      9  C   LIG    1       28.797 -20.376   6.320  0.00  0.00    +0.020 A 
ATOM     10  C   LIG    1       28.826 -21.159   7.462  0.00  0.00    +0.041 A 
ATOM     11 CL   LIG    1       30.326 -21.538   8.209  0.00  0.00    -0.084 Cl
ATOM     12  C   LIG    1       27.633 -21.615   8.001  0.00  0.00    +0.020 A 
ATOM     13  C   LIG    1       26.410 -21.304   7.376  0.00  0.00    +0.010 A 
ENDBRANCH   2   7
BRANCH   3  14
ATOM     14  N   LIG    1       25.999 -18.872   3.692  0.00  0.00    -0.343 N 
ATOM     15  H   LIG    1       26.786 -19.504   3.769  0.00  0.00    +0.144 HD
ATOM     16  H   LIG    1       25.685 -18.814   2.720  0.00  0.00    +0.144 HD
ENDBRANCH   3  14
BRANCH   5  17
ATOM     17  N   LIG    1       21.438 -19.114   3.714  0.00  0.00    -0.327 N 
ATOM     18  H   LIG    1       21.599 -18.384   3.035  0.00  0.00    +0.145 HD
ATOM     19  H   LIG    1       20.733 -18.940   4.419  0.00  0.00    +0.145 HD
ENDBRANCH   5  17
BRANCH   1  21
ATOM     20  C   LIG    1       23.021 -22.714   7.080  0.00  0.00    +0.010 C 
ATOM     21  C   LIG    1       23.421 -21.270   7.328  0.00  0.00    +0.053 C 
ENDBRANCH   1  21
TORSDOF 4
ENDMDL
MODEL 8
REMARK VINA RESULT:      -6.5      3.904      5.466
REMARK  Name = *****
REMARK                            x       y       z     vdW  Elec       q    Type
REMARK                         _______ _______ _______ _____ _____    ______ ____
ROOT
ATOM      1  C   LIG    1       25.337 -23.469   6.540  0.00  0.00    +0.056 A 
ATOM      2  C   LIG    1       25.589 -22.135   6.930  0.00  0.00    +0.043 A 
ATOM      3  C   LIG    1       24.386 -21.472   7.280  0.00  0.00    +0.129 A 
ATOM      4  N   LIG    1       23.157 -22.007   7.252  0.00  0.00    -0.200 NA
ATOM      5  C   LIG    1       23.045 -23.259   6.830  0.00  0.00    +0.214 A 
ATOM      6  N   LIG    1       24.088 -24.008   6.493  0.00  0.00    -0.219 NA
ENDROOT
BRANCH   2   7
ATOM      7  C   LIG    1       26.945 -21.474   6.999  0.00  0.00    -0.013 A 
ATOM      8  C   LIG    1       27.924 -21.809   7.955  0.00  0.00    +0.010 A 
ATOM      9  C   LIG    1       29.178 -21.178   8.027  0.00  0.00    +0.020 A 
ATOM     10  C   LIG    1       29.526 -20.219   7.091  0.00  0.00    +0.041 A 
ATOM     11 CL   LIG    1       31.079 -19.484   7.146  0.00  0.00    -0.084 Cl
ATOM     12  C   LIG    1       28.617 -19.875   6.104  0.00  0.00    +0.020 A 
ATOM     13  C   LIG    1       27.345 -20.479   6.073  0.00  0.00    +0.010 A 
ENDBRANCH   2   7
BRANCH   3  14
ATOM     14  N   LIG    1       24.331 -20.134   7.691  0.00  0.00    -0.343 N 
ATOM     15  H   LIG    1       24.123 -19.526   6.909  0.00  0.00    +0.144 HD
ATOM     16  H   LIG    1       23.573 -20.100   8.377  0.00  0.00    +0.144 HD
ENDBRANCH   3  14
BRANCH   5  17
ATOM     17  N   LIG    1       21.799 -23.823   6.778  0.00  0.00    -0.327 N 
ATOM     18  H   LIG    1       21.773 -24.529   6.056  0.00  0.00    +0.145 HD
ATOM     19  H   LIG    1       21.100 -23.094   6.734  0.00  0.00    +0.145 HD
ENDBRANCH   5  17
BRANCH   1  21
ATOM     20  C   LIG    1       25.951 -25.919   6.586  0.00  0.00    +0.010 C 
ATOM     21  C   LIG    1       26.359 -24.516   6.176  0.00  0.00    +0.053 C 
ENDBRANCH   1  21
TORSDOF 4
ENDMDL
MODEL 9
REMARK VINA RESULT:      -6.5      6.222      8.220
REMARK  Name = *****
REMARK                            x       y       z     vdW  Elec       q    Type
REMARK                         _______ _______ _______ _____ _____    ______ ____
ROOT
ATOM      1  C   LIG    1       25.553 -29.038   8.024  0.00  0.00    +0.056 A 
ATOM      2  C   LIG    1       24.953 -28.371   6.934  0.00  0.00    +0.043 A 
ATOM      3  C   LIG    1       24.233 -29.279   6.117  0.00  0.00    +0.129 A 
ATOM      4  N   LIG    1       24.119 -30.599   6.322  0.00  0.00    -0.200 NA
ATOM      5  C   LIG    1       24.761 -31.115   7.361  0.00  0.00    +0.214 A 
ATOM      6  N   LIG    1       25.454 -30.381   8.223  0.00  0.00    -0.219 NA
ENDROOT
BRANCH   2   7
ATOM      7  C   LIG    1       25.028 -26.889   6.652  0.00  0.00    -0.013 A 
ATOM      8  C   LIG    1       26.239 -26.178   6.551  0.00  0.00    +0.010 A 
ATOM      9  C   LIG    1       26.304 -24.796   6.307  0.00  0.00    +0.020 A 
ATOM     10  C   LIG    1       25.141 -24.076   6.089  0.00  0.00    +0.041 A 
ATOM     11 CL   LIG    1       25.221 -22.395   5.738  0.00  0.00    -0.084 Cl
ATOM     12  C   LIG    1       23.920 -24.730   6.139  0.00  0.00    +0.020 A 
ATOM     13  C   LIG    1       23.867 -26.106   6.434  0.00  0.00    +0.010 A 
ENDBRANCH   2   7
BRANCH   3  14
ATOM     14  N   LIG    1       23.548 -28.900   4.955  0.00  0.00    -0.343 N 
ATOM     15  H   LIG    1       22.689 -29.428   4.857  0.00  0.00    +0.144 HD
ATOM     16  H   LIG    1       23.341 -27.907   5.084  0.00  0.00    +0.144 HD
ENDBRANCH   3  14
BRANCH   5  17
ATOM     17  N   LIG    1       24.673 -32.463   7.582  0.00  0.00    -0.327 N 
ATOM     18  H   LIG    1       24.768 -32.960   6.708  0.00  0.00    +0.145 HD
ATOM     19  H   LIG    1       23.851 -32.660   8.138  0.00  0.00    +0.145 HD
ENDBRANCH   5  17
BRANCH   1  21
ATOM     20  C   LIG    1       27.024 -29.429  10.041  0.00  0.00    +0.010 C 
ATOM     21  C   LIG    1       26.331 -28.410   9.154  0.00  0.00    +0.053 C 
ENDBRANCH   1  21
TORSDOF 4
ENDMDL
