MODEL 1
REMARK VINA RESULT:       8.3      0.000      0.000
REMARK  Name = *****
REMARK                            x       y       z     vdW  Elec       q    Type
REMARK                         _______ _______ _______ _____ _____    ______ ____
ROOT
ATOM      1  C   LIG    1       26.173 -15.833   5.713  0.00  0.00    +0.014 C 
ATOM      2  C   LIG    1       26.359 -15.484   4.228  0.00  0.00    +0.000 C 
ATOM      3  C   LIG    1       27.010 -14.068   4.027  0.00  0.00    +0.072 C 
ATOM      4  C   LIG    1       26.673 -13.764   2.557  0.00  0.00    +0.035 C 
ATOM      5  C   LIG    1       25.341 -14.454   2.272  0.00  0.00    +0.007 C 
ATOM      6  C   LIG    1       25.005 -15.293   3.522  0.00  0.00    +0.005 C 
ATOM      7  C   LIG    1       24.197 -16.565   3.194  0.00  0.00    +0.019 C 
ATOM      8  C   LIG    1       23.110 -16.804   4.198  0.00  0.00    -0.023 C 
ATOM      9  C   LIG    1       22.713 -18.003   4.624  0.00  0.00    +0.000 C 
ATOM     10  C   LIG    1       23.327 -19.248   4.212  0.00  0.00    -0.038 C 
ATOM     11  C   LIG    1       24.733 -19.178   3.607  0.00  0.00    -0.003 C 
ATOM     12  C   LIG    1       24.866 -20.311   2.536  0.00  0.00    +0.016 C 
ATOM     13  C   LIG    1       25.731 -19.524   4.767  0.00  0.00    +0.019 C 
ATOM     14  C   LIG    1       25.096 -19.684   6.163  0.00  0.00    +0.080 C 
ATOM     15  C   LIG    1       23.804 -20.481   6.119  0.00  0.00    +0.156 C 
ATOM     16  O   LIG    1       23.435 -21.200   7.042  0.00  0.00    -0.293 OA
ATOM     17  C   LIG    1       22.949 -20.358   4.880  0.00  0.00    +0.050 C 
ATOM     18  C   LIG    1       25.026 -17.823   2.825  0.00  0.00    +0.006 C 
ATOM     19  C   LIG    1       26.510 -17.514   2.567  0.00  0.00    +0.005 C 
ATOM     20  C   LIG    1       27.221 -16.594   3.559  0.00  0.00    +0.010 C 
ENDROOT
BRANCH   3  21
ATOM     21  O   LIG    1       28.421 -14.140   4.158  0.00  0.00    -0.388 OA
ATOM     22  H   LIG    1       28.686 -13.658   4.965  0.00  0.00    +0.210 HD
ENDBRANCH   3  21
BRANCH   3  23
ATOM     23  C   LIG    1       26.504 -12.953   4.979  0.00  0.00    +0.046 C 
BRANCH  23  24
ATOM     24  C   LIG    1       25.039 -13.072   5.419  0.00  0.00    +0.123 C 
BRANCH  24  25
ATOM     25  C   LIG    1       24.104 -12.064   4.809  0.00  0.00    +0.305 C 
ATOM     26  O   LIG    1       24.097 -11.803   3.611  0.00  0.00    -0.251 OA
BRANCH  25  27
ATOM     27  O   LIG    1       23.287 -11.455   5.683  0.00  0.00    -0.481 OA
ATOM     28  H   LIG    1       22.444 -11.166   5.268  0.00  0.00    +0.295 HD
ENDBRANCH  25  27
ENDBRANCH  24  25
ENDBRANCH  23  24
ENDBRANCH   3  23
TORSDOF 5
ENDMDL
MODEL 2
REMARK VINA RESULT:       9.4      1.763      1.964
REMARK  Name = *****
REMARK                            x       y       z     vdW  Elec       q    Type
REMARK                         _______ _______ _______ _____ _____    ______ ____
ROOT
ATOM      1  C   LIG    1       26.172 -16.302   5.684  0.00  0.00    +0.014 C 
ATOM      2  C   LIG    1       26.257 -15.905   4.202  0.00  0.00    +0.000 C 
ATOM      3  C   LIG    1       26.997 -14.535   3.995  0.00  0.00    +0.072 C 
ATOM      4  C   LIG    1       26.561 -14.144   2.572  0.00  0.00    +0.035 C 
ATOM      5  C   LIG    1       25.159 -14.719   2.382  0.00  0.00    +0.007 C 
ATOM      6  C   LIG    1       24.867 -15.583   3.627  0.00  0.00    +0.005 C 
ATOM      7  C   LIG    1       23.936 -16.774   3.326  0.00  0.00    +0.019 C 
ATOM      8  C   LIG    1       22.923 -16.974   4.413  0.00  0.00    -0.023 C 
ATOM      9  C   LIG    1       22.470 -18.156   4.829  0.00  0.00    +0.000 C 
ATOM     10  C   LIG    1       22.947 -19.425   4.320  0.00  0.00    -0.038 C 
ATOM     11  C   LIG    1       24.297 -19.435   3.596  0.00  0.00    -0.003 C 
ATOM     12  C   LIG    1       24.248 -20.528   2.477  0.00  0.00    +0.016 C 
ATOM     13  C   LIG    1       25.361 -19.905   4.649  0.00  0.00    +0.019 C 
ATOM     14  C   LIG    1       24.837 -20.077   6.089  0.00  0.00    +0.080 C 
ATOM     15  C   LIG    1       23.487 -20.771   6.132  0.00  0.00    +0.156 C 
ATOM     16  O   LIG    1       23.143 -21.499   7.057  0.00  0.00    -0.293 OA
ATOM     17  C   LIG    1       22.541 -20.531   4.978  0.00  0.00    +0.050 C 
ATOM     18  C   LIG    1       24.627 -18.075   2.840  0.00  0.00    +0.006 C 
ATOM     19  C   LIG    1       26.104 -17.867   2.462  0.00  0.00    +0.005 C 
ATOM     20  C   LIG    1       26.968 -17.047   3.420  0.00  0.00    +0.010 C 
ENDROOT
BRANCH   3  21
ATOM     21  O   LIG    1       28.405 -14.718   3.998  0.00  0.00    -0.388 OA
ATOM     22  H   LIG    1       28.613 -15.543   4.477  0.00  0.00    +0.210 HD
ENDBRANCH   3  21
BRANCH   3  23
ATOM     23  C   LIG    1       26.665 -13.427   5.028  0.00  0.00    +0.046 C 
BRANCH  23  24
ATOM     24  C   LIG    1       27.315 -12.062   4.768  0.00  0.00    +0.123 C 
BRANCH  24  25
ATOM     25  C   LIG    1       28.818 -12.061   4.754  0.00  0.00    +0.305 C 
ATOM     26  O   LIG    1       29.473 -12.338   3.755  0.00  0.00    -0.251 OA
BRANCH  25  27
ATOM     27  O   LIG    1       29.392 -11.752   5.928  0.00  0.00    -0.481 OA
ATOM     28  H   LIG    1       28.764 -11.822   6.681  0.00  0.00    +0.295 HD
ENDBRANCH  25  27
ENDBRANCH  24  25
ENDBRANCH  23  24
ENDBRANCH   3  23
TORSDOF 5
ENDMDL
MODEL 3
REMARK VINA RESULT:       9.5      1.946      6.609
REMARK  Name = *****
REMARK                            x       y       z     vdW  Elec       q    Type
REMARK                         _______ _______ _______ _____ _____    ______ ____
ROOT
ATOM      1  C   LIG    1       25.029 -18.603   6.288  0.00  0.00    +0.014 C 
ATOM      2  C   LIG    1       24.170 -19.260   5.197  0.00  0.00    +0.000 C 
ATOM      3  C   LIG    1       23.968 -20.798   5.444  0.00  0.00    +0.072 C 
ATOM      4  C   LIG    1       23.511 -21.291   4.060  0.00  0.00    +0.035 C 
ATOM      5  C   LIG    1       24.192 -20.384   3.037  0.00  0.00    +0.007 C 
ATOM      6  C   LIG    1       24.896 -19.269   3.840  0.00  0.00    +0.005 C 
ATOM      7  C   LIG    1       24.972 -17.934   3.073  0.00  0.00    +0.019 C 
ATOM      8  C   LIG    1       26.304 -17.269   3.251  0.00  0.00    -0.023 C 
ATOM      9  C   LIG    1       26.496 -15.953   3.339  0.00  0.00    +0.000 C 
ATOM     10  C   LIG    1       25.423 -14.980   3.332  0.00  0.00    -0.038 C 
ATOM     11  C   LIG    1       24.013 -15.480   3.658  0.00  0.00    -0.003 C 
ATOM     12  C   LIG    1       22.985 -14.631   2.838  0.00  0.00    +0.016 C 
ATOM     13  C   LIG    1       23.768 -15.156   5.174  0.00  0.00    +0.019 C 
ATOM     14  C   LIG    1       24.985 -14.594   5.937  0.00  0.00    +0.080 C 
ATOM     15  C   LIG    1       25.737 -13.549   5.131  0.00  0.00    +0.156 C 
ATOM     16  O   LIG    1       26.321 -12.603   5.651  0.00  0.00    -0.293 OA
ATOM     17  C   LIG    1       25.759 -13.707   3.629  0.00  0.00    +0.050 C 
ATOM     18  C   LIG    1       23.752 -16.989   3.225  0.00  0.00    +0.006 C 
ATOM     19  C   LIG    1       22.540 -17.670   3.885  0.00  0.00    +0.005 C 
ATOM     20  C   LIG    1       22.801 -18.521   5.127  0.00  0.00    +0.010 C 
ENDROOT
BRANCH   3  21
ATOM     21  O   LIG    1       22.915 -21.024   6.370  0.00  0.00    -0.388 OA
ATOM     22  H   LIG    1       23.040 -21.902   6.778  0.00  0.00    +0.210 HD
ENDBRANCH   3  21
BRANCH   3  23
ATOM     23  C   LIG    1       25.215 -21.568   5.951  0.00  0.00    +0.046 C 
BRANCH  23  24
ATOM     24  C   LIG    1       26.193 -20.754   6.808  0.00  0.00    +0.123 C 
BRANCH  24  25
ATOM     25  C   LIG    1       27.633 -20.832   6.382  0.00  0.00    +0.305 C 
ATOM     26  O   LIG    1       28.498 -21.377   7.059  0.00  0.00    -0.251 OA
BRANCH  25  27
ATOM     27  O   LIG    1       27.905 -20.240   5.208  0.00  0.00    -0.481 OA
ATOM     28  H   LIG    1       27.220 -20.426   4.528  0.00  0.00    +0.295 HD
ENDBRANCH  25  27
ENDBRANCH  24  25
ENDBRANCH  23  24
ENDBRANCH   3  23
TORSDOF 5
ENDMDL
MODEL 4
REMARK VINA RESULT:      10.0      2.115      6.752
REMARK  Name = *****
REMARK                            x       y       z     vdW  Elec       q    Type
REMARK                         _______ _______ _______ _____ _____    ______ ____
ROOT
ATOM      1  C   LIG    1       25.006 -17.356   4.232  0.00  0.00    +0.014 C 
ATOM      2  C   LIG    1       23.512 -17.021   4.366  0.00  0.00    +0.000 C 
ATOM      3  C   LIG    1       22.611 -18.308   4.362  0.00  0.00    +0.072 C 
ATOM      4  C   LIG    1       21.221 -17.729   4.042  0.00  0.00    +0.035 C 
ATOM      5  C   LIG    1       21.461 -16.506   3.159  0.00  0.00    +0.007 C 
ATOM      6  C   LIG    1       22.988 -16.287   3.118  0.00  0.00    +0.005 C 
ATOM      7  C   LIG    1       23.378 -14.804   2.959  0.00  0.00    +0.019 C 
ATOM      8  C   LIG    1       24.520 -14.632   2.004  0.00  0.00    -0.023 C 
ATOM      9  C   LIG    1       25.488 -13.723   2.125  0.00  0.00    +0.000 C 
ATOM     10  C   LIG    1       25.598 -12.808   3.242  0.00  0.00    -0.038 C 
ATOM     11  C   LIG    1       24.840 -13.163   4.525  0.00  0.00    -0.003 C 
ATOM     12  C   LIG    1       24.383 -11.833   5.211  0.00  0.00    +0.016 C 
ATOM     13  C   LIG    1       25.883 -13.837   5.483  0.00  0.00    +0.019 C 
ATOM     14  C   LIG    1       27.276 -14.096   4.872  0.00  0.00    +0.080 C 
ATOM     15  C   LIG    1       27.770 -12.917   4.050  0.00  0.00    +0.156 C 
ATOM     16  O   LIG    1       28.959 -12.627   3.955  0.00  0.00    -0.293 OA
ATOM     17  C   LIG    1       26.737 -12.089   3.324  0.00  0.00    +0.050 C 
ATOM     18  C   LIG    1       23.502 -13.986   4.271  0.00  0.00    +0.006 C 
ATOM     19  C   LIG    1       22.932 -14.721   5.496  0.00  0.00    +0.005 C 
ATOM     20  C   LIG    1       23.300 -16.195   5.668  0.00  0.00    +0.010 C 
ENDROOT
BRANCH   3  21
ATOM     21  O   LIG    1       22.566 -18.893   5.655  0.00  0.00    -0.388 OA
ATOM     22  H   LIG    1       22.192 -18.243   6.280  0.00  0.00    +0.210 HD
ENDBRANCH   3  21
BRANCH   3  23
ATOM     23  C   LIG    1       23.022 -19.415   3.357  0.00  0.00    +0.046 C 
BRANCH  23  24
ATOM     24  C   LIG    1       23.481 -20.739   3.981  0.00  0.00    +0.123 C 
BRANCH  24  25
ATOM     25  C   LIG    1       24.813 -20.691   4.676  0.00  0.00    +0.305 C 
ATOM     26  O   LIG    1       24.933 -20.795   5.892  0.00  0.00    -0.251 OA
BRANCH  25  27
ATOM     27  O   LIG    1       25.866 -20.506   3.862  0.00  0.00    -0.481 OA
ATOM     28  H   LIG    1       26.653 -20.166   4.342  0.00  0.00    +0.295 HD
ENDBRANCH  25  27
ENDBRANCH  24  25
ENDBRANCH  23  24
ENDBRANCH   3  23
TORSDOF 5
ENDMDL
MODEL 5
REMARK VINA RESULT:      10.8      2.056      6.630
REMARK  Name = *****
REMARK                            x       y       z     vdW  Elec       q    Type
REMARK                         _______ _______ _______ _____ _____    ______ ____
ROOT
ATOM      1  C   LIG    1       23.993 -16.242   5.941  0.00  0.00    +0.014 C 
ATOM      2  C   LIG    1       23.425 -16.627   4.567  0.00  0.00    +0.000 C 
ATOM      3  C   LIG    1       22.301 -17.721   4.673  0.00  0.00    +0.072 C 
ATOM      4  C   LIG    1       22.232 -18.255   3.231  0.00  0.00    +0.035 C 
ATOM      5  C   LIG    1       23.642 -18.125   2.660  0.00  0.00    +0.007 C 
ATOM      6  C   LIG    1       24.473 -17.360   3.711  0.00  0.00    +0.005 C 
ATOM      7  C   LIG    1       25.593 -16.504   3.085  0.00  0.00    +0.019 C 
ATOM      8  C   LIG    1       26.864 -16.591   3.876  0.00  0.00    -0.023 C 
ATOM      9  C   LIG    1       27.721 -15.587   4.058  0.00  0.00    +0.000 C 
ATOM     10  C   LIG    1       27.507 -14.245   3.557  0.00  0.00    -0.038 C 
ATOM     11  C   LIG    1       26.077 -13.851   3.177  0.00  0.00    -0.003 C 
ATOM     12  C   LIG    1       26.143 -12.846   1.979  0.00  0.00    +0.016 C 
ATOM     13  C   LIG    1       25.493 -13.064   4.403  0.00  0.00    +0.019 C 
ATOM     14  C   LIG    1       26.393 -13.024   5.655  0.00  0.00    +0.080 C 
ATOM     15  C   LIG    1       27.849 -12.761   5.308  0.00  0.00    +0.156 C 
ATOM     16  O   LIG    1       28.607 -12.147   6.052  0.00  0.00    -0.293 OA
ATOM     17  C   LIG    1       28.361 -13.295   3.992  0.00  0.00    +0.050 C 
ATOM     18  C   LIG    1       25.195 -15.068   2.655  0.00  0.00    +0.006 C 
ATOM     19  C   LIG    1       23.674 -14.837   2.660  0.00  0.00    +0.005 C 
ATOM     20  C   LIG    1       22.888 -15.343   3.870  0.00  0.00    +0.010 C 
ENDROOT
BRANCH   3  21
ATOM     21  O   LIG    1       21.051 -17.128   4.992  0.00  0.00    -0.388 OA
ATOM     22  H   LIG    1       21.145 -16.158   4.948  0.00  0.00    +0.210 HD
ENDBRANCH   3  21
BRANCH   3  23
ATOM     23  C   LIG    1       22.561 -18.855   5.698  0.00  0.00    +0.046 C 
BRANCH  23  24
ATOM     24  C   LIG    1       22.413 -20.284   5.158  0.00  0.00    +0.123 C 
BRANCH  24  25
ATOM     25  C   LIG    1       23.700 -21.046   5.006  0.00  0.00    +0.305 C 
ATOM     26  O   LIG    1       24.511 -21.171   5.916  0.00  0.00    -0.251 OA
BRANCH  25  27
ATOM     27  O   LIG    1       23.903 -21.568   3.785  0.00  0.00    -0.481 OA
ATOM     28  H   LIG    1       24.844 -21.516   3.508  0.00  0.00    +0.295 HD
ENDBRANCH  25  27
ENDBRANCH  24  25
ENDBRANCH  23  24
ENDBRANCH   3  23
TORSDOF 5
ENDMDL
