MODEL 1
REMARK VINA RESULT:      -5.4      0.000      0.000
REMARK  Name = *****
REMARK                            x       y       z     vdW  Elec       q    Type
REMARK                         _______ _______ _______ _____ _____    ______ ____
ROOT
ATOM      1  N   LIG    1       27.253 -19.998   4.780  0.00  0.00    -0.341 N 
ATOM      2  H   LIG    1       27.447 -20.347   3.848  0.00  0.00    +0.146 HD
ENDROOT
BRANCH   1   3
ATOM      3  C   LIG    1       26.036 -20.417   5.339  0.00  0.00    +0.038 A 
ATOM      4  C   LIG    1       24.781 -19.874   4.902  0.00  0.00    +0.021 A 
ATOM      5  C   LIG    1       23.605 -20.246   5.611  0.00  0.00    +0.074 A 
ATOM      6  C   LIG    1       22.357 -19.776   5.229  0.00  0.00    +0.048 A 
ATOM      7  C   LIG    1       22.223 -18.942   4.129  0.00  0.00    +0.043 A 
ATOM      8  C   LIG    1       23.342 -18.544   3.412  0.00  0.00    +0.021 A 
ATOM      9 CL   LIG    1       20.658 -18.411   3.640  0.00  0.00    -0.084 Cl
ATOM     10  N   LIG    1       23.611 -21.067   6.670  0.00  0.00    -0.255 NA
ATOM     11  C   LIG    1       24.793 -21.572   7.049  0.00  0.00    +0.113 A 
ATOM     12  C   LIG    1       24.615 -18.993   3.800  0.00  0.00    +0.013 A 
ATOM     13  C   LIG    1       25.999 -21.292   6.430  0.00  0.00    +0.043 A 
ENDBRANCH   1   3
BRANCH   1  14
ATOM     14  C   LIG    1       28.444 -19.612   5.554  0.00  0.00    +0.067 C 
ATOM     15  C   LIG    1       28.134 -19.723   7.056  0.00  0.00    +0.027 C 
BRANCH  14  16
ATOM     16  C   LIG    1       28.888 -18.174   5.197  0.00  0.00    +0.023 C 
BRANCH  16  17
ATOM     17  C   LIG    1       27.779 -17.416   4.447  0.00  0.00    +0.017 C 
BRANCH  17  18
ATOM     18  C   LIG    1       28.041 -15.914   4.272  0.00  0.00    +0.084 C 
BRANCH  18  19
ATOM     19  N   LIG    1       27.058 -15.221   3.393  0.00  0.00    -0.303 NA
BRANCH  19  21
ATOM     20  C   LIG    1       24.613 -14.562   3.627  0.00  0.00    +0.020 C 
ATOM     21  C   LIG    1       25.678 -15.661   3.703  0.00  0.00    +0.081 C 
ENDBRANCH  19  21
BRANCH  19  22
ATOM     22  C   LIG    1       27.171 -13.746   3.501  0.00  0.00    +0.081 C 
ATOM     23  C   LIG    1       28.550 -13.210   3.883  0.00  0.00    +0.020 C 
ENDBRANCH  19  22
ENDBRANCH  18  19
ENDBRANCH  17  18
ENDBRANCH  16  17
ENDBRANCH  14  16
ENDBRANCH   1  14
TORSDOF 8
ENDMDL
MODEL 2
REMARK VINA RESULT:      -4.8      2.596      4.454
REMARK  Name = *****
REMARK                            x       y       z     vdW  Elec       q    Type
REMARK                         _______ _______ _______ _____ _____    ______ ____
ROOT
ATOM      1  N   LIG    1       23.186 -18.962   4.056  0.00  0.00    -0.341 N 
ATOM      2  H   LIG    1       23.716 -19.011   3.193  0.00  0.00    +0.146 HD
ENDROOT
BRANCH   1   3
ATOM      3  C   LIG    1       23.674 -19.751   5.109  0.00  0.00    +0.038 A 
ATOM      4  C   LIG    1       25.081 -19.903   5.346  0.00  0.00    +0.021 A 
ATOM      5  C   LIG    1       25.498 -20.829   6.342  0.00  0.00    +0.074 A 
ATOM      6  C   LIG    1       26.842 -21.009   6.638  0.00  0.00    +0.048 A 
ATOM      7  C   LIG    1       27.814 -20.274   5.978  0.00  0.00    +0.043 A 
ATOM      8  C   LIG    1       27.457 -19.366   4.992  0.00  0.00    +0.021 A 
ATOM      9 CL   LIG    1       29.474 -20.475   6.397  0.00  0.00    -0.084 Cl
ATOM     10  N   LIG    1       24.646 -21.572   7.062  0.00  0.00    -0.255 NA
ATOM     11  C   LIG    1       23.337 -21.401   6.832  0.00  0.00    +0.113 A 
ATOM     12  C   LIG    1       26.103 -19.189   4.665  0.00  0.00    +0.013 A 
ATOM     13  C   LIG    1       22.814 -20.522   5.898  0.00  0.00    +0.043 A 
ENDBRANCH   1   3
BRANCH   1  14
ATOM     14  C   LIG    1       22.397 -17.731   4.225  0.00  0.00    +0.067 C 
ATOM     15  C   LIG    1       21.057 -17.879   3.484  0.00  0.00    +0.027 C 
BRANCH  14  16
ATOM     16  C   LIG    1       23.176 -16.503   3.696  0.00  0.00    +0.023 C 
BRANCH  16  17
ATOM     17  C   LIG    1       23.029 -15.298   4.641  0.00  0.00    +0.017 C 
BRANCH  17  18
ATOM     18  C   LIG    1       23.913 -14.096   4.280  0.00  0.00    +0.084 C 
BRANCH  18  19
ATOM     19  N   LIG    1       25.059 -14.426   3.390  0.00  0.00    -0.303 NA
BRANCH  19  21
ATOM     20  C   LIG    1       24.526 -12.085   2.547  0.00  0.00    +0.020 C 
ATOM     21  C   LIG    1       25.148 -13.458   2.271  0.00  0.00    +0.081 C 
ENDBRANCH  19  21
BRANCH  19  22
ATOM     22  C   LIG    1       26.339 -14.475   4.138  0.00  0.00    +0.081 C 
ATOM     23  C   LIG    1       26.501 -13.439   5.249  0.00  0.00    +0.020 C 
ENDBRANCH  19  22
ENDBRANCH  18  19
ENDBRANCH  17  18
ENDBRANCH  16  17
ENDBRANCH  14  16
ENDBRANCH   1  14
TORSDOF 8
ENDMDL
MODEL 3
REMARK VINA RESULT:      -4.6      0.973      1.850
REMARK  Name = *****
REMARK                            x       y       z     vdW  Elec       q    Type
REMARK                         _______ _______ _______ _____ _____    ______ ____
ROOT
ATOM      1  N   LIG    1       27.881 -19.397   4.483  0.00  0.00    -0.341 N 
ATOM      2  H   LIG    1       28.271 -19.918   3.706  0.00  0.00    +0.146 HD
ENDROOT
BRANCH   1   3
ATOM      3  C   LIG    1       26.860 -20.047   5.192  0.00  0.00    +0.038 A 
ATOM      4  C   LIG    1       25.474 -19.813   4.901  0.00  0.00    +0.021 A 
ATOM      5  C   LIG    1       24.499 -20.401   5.753  0.00  0.00    +0.074 A 
ATOM      6  C   LIG    1       23.142 -20.234   5.517  0.00  0.00    +0.048 A 
ATOM      7  C   LIG    1       22.702 -19.499   4.427  0.00  0.00    +0.043 A 
ATOM      8  C   LIG    1       23.614 -18.898   3.572  0.00  0.00    +0.021 A 
ATOM      9 CL   LIG    1       21.012 -19.347   4.120  0.00  0.00    -0.084 Cl
ATOM     10  N   LIG    1       24.809 -21.153   6.819  0.00  0.00    -0.255 NA
ATOM     11  C   LIG    1       26.109 -21.369   7.061  0.00  0.00    +0.113 A 
ATOM     12  C   LIG    1       24.991 -19.040   3.812  0.00  0.00    +0.013 A 
ATOM     13  C   LIG    1       27.143 -20.860   6.295  0.00  0.00    +0.043 A 
ENDBRANCH   1   3
BRANCH   1  14
ATOM     14  C   LIG    1       28.773 -18.370   5.047  0.00  0.00    +0.067 C 
ATOM     15  C   LIG    1       29.057 -18.696   6.522  0.00  0.00    +0.027 C 
BRANCH  14  16
ATOM     16  C   LIG    1       28.143 -16.963   4.914  0.00  0.00    +0.023 C 
BRANCH  16  17
ATOM     17  C   LIG    1       27.290 -16.851   3.639  0.00  0.00    +0.017 C 
BRANCH  17  18
ATOM     18  C   LIG    1       26.801 -15.431   3.323  0.00  0.00    +0.084 C 
BRANCH  18  19
ATOM     19  N   LIG    1       27.248 -14.400   4.300  0.00  0.00    -0.303 NA
BRANCH  19  21
ATOM     20  C   LIG    1       28.758 -12.372   4.589  0.00  0.00    +0.020 C 
ATOM     21  C   LIG    1       28.308 -13.547   3.713  0.00  0.00    +0.081 C 
ENDBRANCH  19  21
BRANCH  19  22
ATOM     22  C   LIG    1       26.116 -13.569   4.777  0.00  0.00    +0.081 C 
ATOM     23  C   LIG    1       24.720 -14.081   4.427  0.00  0.00    +0.020 C 
ENDBRANCH  19  22
ENDBRANCH  18  19
ENDBRANCH  17  18
ENDBRANCH  16  17
ENDBRANCH  14  16
ENDBRANCH   1  14
TORSDOF 8
ENDMDL
MODEL 4
REMARK VINA RESULT:      -4.5      1.985      4.075
REMARK  Name = *****
REMARK                            x       y       z     vdW  Elec       q    Type
REMARK                         _______ _______ _______ _____ _____    ______ ____
ROOT
ATOM      1  N   LIG    1       27.350 -15.885   3.529  0.00  0.00    -0.341 N 
ATOM      2  H   LIG    1       27.110 -15.887   2.543  0.00  0.00    +0.146 HD
ENDROOT
BRANCH   1   3
ATOM      3  C   LIG    1       27.567 -17.148   4.099  0.00  0.00    +0.038 A 
ATOM      4  C   LIG    1       26.545 -18.155   4.109  0.00  0.00    +0.021 A 
ATOM      5  C   LIG    1       26.793 -19.358   4.827  0.00  0.00    +0.074 A 
ATOM      6  C   LIG    1       25.858 -20.382   4.860  0.00  0.00    +0.048 A 
ATOM      7  C   LIG    1       24.658 -20.264   4.175  0.00  0.00    +0.043 A 
ATOM      8  C   LIG    1       24.366 -19.106   3.469  0.00  0.00    +0.021 A 
ATOM      9 CL   LIG    1       23.531 -21.568   4.186  0.00  0.00    -0.084 Cl
ATOM     10  N   LIG    1       27.927 -19.593   5.502  0.00  0.00    -0.255 NA
ATOM     11  C   LIG    1       28.872 -18.643   5.465  0.00  0.00    +0.113 A 
ATOM     12  C   LIG    1       25.294 -18.052   3.445  0.00  0.00    +0.013 A 
ATOM     13  C   LIG    1       28.748 -17.441   4.791  0.00  0.00    +0.043 A 
ENDBRANCH   1   3
BRANCH   1  14
ATOM     14  C   LIG    1       27.946 -14.630   4.015  0.00  0.00    +0.067 C 
ATOM     15  C   LIG    1       27.187 -14.156   5.266  0.00  0.00    +0.027 C 
BRANCH  14  16
ATOM     16  C   LIG    1       27.908 -13.543   2.915  0.00  0.00    +0.023 C 
BRANCH  16  17
ATOM     17  C   LIG    1       26.597 -12.739   2.968  0.00  0.00    +0.017 C 
BRANCH  17  18
ATOM     18  C   LIG    1       25.398 -13.433   2.309  0.00  0.00    +0.084 C 
BRANCH  18  19
ATOM     19  N   LIG    1       24.116 -13.269   3.048  0.00  0.00    -0.303 NA
BRANCH  19  21
ATOM     20  C   LIG    1       23.123 -15.205   4.367  0.00  0.00    +0.020 C 
ATOM     21  C   LIG    1       24.132 -14.053   4.305  0.00  0.00    +0.081 C 
ENDBRANCH  19  21
BRANCH  19  22
ATOM     22  C   LIG    1       23.823 -11.843   3.329  0.00  0.00    +0.081 C 
ATOM     23  C   LIG    1       23.557 -11.493   4.792  0.00  0.00    +0.020 C 
ENDBRANCH  19  22
ENDBRANCH  18  19
ENDBRANCH  17  18
ENDBRANCH  16  17
ENDBRANCH  14  16
ENDBRANCH   1  14
TORSDOF 8
ENDMDL
MODEL 5
REMARK VINA RESULT:      -4.3      1.570      2.341
REMARK  Name = *****
REMARK                            x       y       z     vdW  Elec       q    Type
REMARK                         _______ _______ _______ _____ _____    ______ ____
ROOT
ATOM      1  N   LIG    1       27.438 -18.547   4.174  0.00  0.00    -0.341 N 
ATOM      2  H   LIG    1       27.296 -18.683   3.178  0.00  0.00    +0.146 HD
ENDROOT
BRANCH   1   3
ATOM      3  C   LIG    1       26.935 -19.565   4.997  0.00  0.00    +0.038 A 
ATOM      4  C   LIG    1       25.559 -19.969   4.941  0.00  0.00    +0.021 A 
ATOM      5  C   LIG    1       25.095 -20.909   5.902  0.00  0.00    +0.074 A 
ATOM      6  C   LIG    1       23.783 -21.360   5.891  0.00  0.00    +0.048 A 
ATOM      7  C   LIG    1       22.892 -20.915   4.926  0.00  0.00    +0.043 A 
ATOM      8  C   LIG    1       23.296 -19.992   3.973  0.00  0.00    +0.021 A 
ATOM      9 CL   LIG    1       21.281 -21.527   4.898  0.00  0.00    -0.084 Cl
ATOM     10  N   LIG    1       25.873 -21.427   6.863  0.00  0.00    -0.255 NA
ATOM     11  C   LIG    1       27.157 -21.045   6.886  0.00  0.00    +0.113 A 
ATOM     12  C   LIG    1       24.615 -19.509   3.985  0.00  0.00    +0.013 A 
ATOM     13  C   LIG    1       27.723 -20.148   5.996  0.00  0.00    +0.043 A 
ENDBRANCH   1   3
BRANCH   1  14
ATOM     14  C   LIG    1       28.561 -17.661   4.521  0.00  0.00    +0.067 C 
ATOM     15  C   LIG    1       29.248 -18.186   5.793  0.00  0.00    +0.027 C 
BRANCH  14  16
ATOM     16  C   LIG    1       28.071 -16.209   4.730  0.00  0.00    +0.023 C 
BRANCH  16  17
ATOM     17  C   LIG    1       27.070 -15.794   3.637  0.00  0.00    +0.017 C 
BRANCH  17  18
ATOM     18  C   LIG    1       27.237 -14.353   3.135  0.00  0.00    +0.084 C 
BRANCH  18  19
ATOM     19  N   LIG    1       26.064 -13.475   3.398  0.00  0.00    -0.303 NA
BRANCH  19  21
ATOM     20  C   LIG    1       24.608 -11.949   1.975  0.00  0.00    +0.020 C 
ATOM     21  C   LIG    1       25.234 -13.333   2.179  0.00  0.00    +0.081 C 
ENDBRANCH  19  21
BRANCH  19  22
ATOM     22  C   LIG    1       25.245 -13.977   4.528  0.00  0.00    +0.081 C 
ATOM     23  C   LIG    1       23.864 -14.517   4.163  0.00  0.00    +0.020 C 
ENDBRANCH  19  22
ENDBRANCH  18  19
ENDBRANCH  17  18
ENDBRANCH  16  17
ENDBRANCH  14  16
ENDBRANCH   1  14
TORSDOF 8
ENDMDL
MODEL 6
REMARK VINA RESULT:      -4.2      2.698      6.802
REMARK  Name = *****
REMARK                            x       y       z     vdW  Elec       q    Type
REMARK                         _______ _______ _______ _____ _____    ______ ____
ROOT
ATOM      1  N   LIG    1       24.397 -17.647   3.797  0.00  0.00    -0.341 N 
ATOM      2  H   LIG    1       25.291 -18.025   3.502  0.00  0.00    +0.146 HD
ENDROOT
BRANCH   1   3
ATOM      3  C   LIG    1       24.339 -16.248   3.899  0.00  0.00    +0.038 A 
ATOM      4  C   LIG    1       25.529 -15.446   3.928  0.00  0.00    +0.021 A 
ATOM      5  C   LIG    1       25.393 -14.052   4.174  0.00  0.00    +0.074 A 
ATOM      6  C   LIG    1       26.499 -13.214   4.193  0.00  0.00    +0.048 A 
ATOM      7  C   LIG    1       27.769 -13.717   3.954  0.00  0.00    +0.043 A 
ATOM      8  C   LIG    1       27.953 -15.072   3.720  0.00  0.00    +0.021 A 
ATOM      9 CL   LIG    1       29.124 -12.652   3.931  0.00  0.00    -0.084 Cl
ATOM     10  N   LIG    1       24.214 -13.452   4.389  0.00  0.00    -0.255 NA
ATOM     11  C   LIG    1       23.117 -14.220   4.343  0.00  0.00    +0.113 A 
ATOM     12  C   LIG    1       26.846 -15.936   3.719  0.00  0.00    +0.013 A 
ATOM     13  C   LIG    1       23.125 -15.583   4.101  0.00  0.00    +0.043 A 
ENDBRANCH   1   3
BRANCH   1  14
ATOM     14  C   LIG    1       23.241 -18.518   3.532  0.00  0.00    +0.067 C 
ATOM     15  C   LIG    1       22.331 -18.549   4.772  0.00  0.00    +0.027 C 
BRANCH  14  16
ATOM     16  C   LIG    1       23.705 -19.948   3.164  0.00  0.00    +0.023 C 
BRANCH  16  17
ATOM     17  C   LIG    1       25.061 -20.279   3.810  0.00  0.00    +0.017 C 
BRANCH  17  18
ATOM     18  C   LIG    1       25.052 -21.526   4.704  0.00  0.00    +0.084 C 
BRANCH  18  19
ATOM     19  N   LIG    1       25.556 -21.292   6.085  0.00  0.00    -0.303 NA
BRANCH  19  21
ATOM     20  C   LIG    1       27.895 -20.356   6.441  0.00  0.00    +0.020 C 
ATOM     21  C   LIG    1       26.419 -20.088   6.130  0.00  0.00    +0.081 C 
ENDBRANCH  19  21
BRANCH  19  22
ATOM     22  C   LIG    1       24.446 -21.173   7.061  0.00  0.00    +0.081 C 
ATOM     23  C   LIG    1       23.059 -21.545   6.541  0.00  0.00    +0.020 C 
ENDBRANCH  19  22
ENDBRANCH  18  19
ENDBRANCH  17  18
ENDBRANCH  16  17
ENDBRANCH  14  16
ENDBRANCH   1  14
TORSDOF 8
ENDMDL
MODEL 7
REMARK VINA RESULT:      -4.0      1.714      3.049
REMARK  Name = *****
REMARK                            x       y       z     vdW  Elec       q    Type
REMARK                         _______ _______ _______ _____ _____    ______ ____
ROOT
ATOM      1  N   LIG    1       27.884 -17.885   4.129  0.00  0.00    -0.341 N 
ATOM      2  H   LIG    1       28.854 -17.836   3.834  0.00  0.00    +0.146 HD
ENDROOT
BRANCH   1   3
ATOM      3  C   LIG    1       27.555 -18.987   4.933  0.00  0.00    +0.038 A 
ATOM      4  C   LIG    1       26.230 -19.538   4.950  0.00  0.00    +0.021 A 
ATOM      5  C   LIG    1       25.940 -20.563   5.892  0.00  0.00    +0.074 A 
ATOM      6  C   LIG    1       24.687 -21.155   5.947  0.00  0.00    +0.048 A 
ATOM      7  C   LIG    1       23.686 -20.772   5.068  0.00  0.00    +0.043 A 
ATOM      8  C   LIG    1       23.918 -19.770   4.137  0.00  0.00    +0.021 A 
ATOM      9 CL   LIG    1       22.152 -21.556   5.118  0.00  0.00    -0.084 Cl
ATOM     10  N   LIG    1       26.837 -21.032   6.772  0.00  0.00    -0.255 NA
ATOM     11  C   LIG    1       28.071 -20.511   6.726  0.00  0.00    +0.113 A 
ATOM     12  C   LIG    1       25.175 -19.145   4.084  0.00  0.00    +0.013 A 
ATOM     13  C   LIG    1       28.472 -19.521   5.846  0.00  0.00    +0.043 A 
ENDBRANCH   1   3
BRANCH   1  14
ATOM     14  C   LIG    1       27.177 -16.595   4.141  0.00  0.00    +0.067 C 
ATOM     15  C   LIG    1       26.217 -16.528   2.941  0.00  0.00    +0.027 C 
BRANCH  14  16
ATOM     16  C   LIG    1       28.181 -15.419   4.097  0.00  0.00    +0.023 C 
BRANCH  16  17
ATOM     17  C   LIG    1       27.651 -14.262   3.232  0.00  0.00    +0.017 C 
BRANCH  17  18
ATOM     18  C   LIG    1       26.586 -13.393   3.916  0.00  0.00    +0.084 C 
BRANCH  18  19
ATOM     19  N   LIG    1       25.235 -13.482   3.297  0.00  0.00    -0.303 NA
BRANCH  19  21
ATOM     20  C   LIG    1       23.401 -14.797   4.472  0.00  0.00    +0.020 C 
ATOM     21  C   LIG    1       24.182 -13.485   4.339  0.00  0.00    +0.081 C 
ENDBRANCH  19  21
BRANCH  19  22
ATOM     22  C   LIG    1       25.003 -12.386   2.325  0.00  0.00    +0.081 C 
ATOM     23  C   LIG    1       23.839 -11.449   2.644  0.00  0.00    +0.020 C 
ENDBRANCH  19  22
ENDBRANCH  18  19
ENDBRANCH  17  18
ENDBRANCH  16  17
ENDBRANCH  14  16
ENDBRANCH   1  14
TORSDOF 8
ENDMDL
MODEL 8
REMARK VINA RESULT:      -3.5      2.259      6.199
REMARK  Name = *****
REMARK                            x       y       z     vdW  Elec       q    Type
REMARK                         _______ _______ _______ _____ _____    ______ ____
ROOT
ATOM      1  N   LIG    1       25.796 -17.647   3.135  0.00  0.00    -0.341 N 
ATOM      2  H   LIG    1       25.126 -17.515   2.385  0.00  0.00    +0.146 HD
ENDROOT
BRANCH   1   3
ATOM      3  C   LIG    1       26.367 -16.471   3.645  0.00  0.00    +0.038 A 
ATOM      4  C   LIG    1       25.584 -15.291   3.874  0.00  0.00    +0.021 A 
ATOM      5  C   LIG    1       26.259 -14.100   4.259  0.00  0.00    +0.074 A 
ATOM      6  C   LIG    1       25.561 -12.929   4.518  0.00  0.00    +0.048 A 
ATOM      7  C   LIG    1       24.178 -12.897   4.423  0.00  0.00    +0.043 A 
ATOM      8  C   LIG    1       23.476 -14.030   4.041  0.00  0.00    +0.021 A 
ATOM      9 CL   LIG    1       23.325 -11.447   4.799  0.00  0.00    -0.084 Cl
ATOM     10  N   LIG    1       27.589 -14.022   4.410  0.00  0.00    -0.255 NA
ATOM     11  C   LIG    1       28.296 -15.141   4.205  0.00  0.00    +0.113 A 
ATOM     12  C   LIG    1       24.170 -15.217   3.754  0.00  0.00    +0.013 A 
ATOM     13  C   LIG    1       27.749 -16.358   3.839  0.00  0.00    +0.043 A 
ENDBRANCH   1   3
BRANCH   1  14
ATOM     14  C   LIG    1       25.637 -18.901   3.889  0.00  0.00    +0.067 C 
ATOM     15  C   LIG    1       26.883 -19.132   4.761  0.00  0.00    +0.027 C 
BRANCH  14  16
ATOM     16  C   LIG    1       25.418 -20.094   2.930  0.00  0.00    +0.023 C 
BRANCH  16  17
ATOM     17  C   LIG    1       24.059 -20.770   3.179  0.00  0.00    +0.017 C 
BRANCH  17  18
ATOM     18  C   LIG    1       23.918 -21.424   4.561  0.00  0.00    +0.084 C 
BRANCH  18  19
ATOM     19  N   LIG    1       22.739 -20.955   5.340  0.00  0.00    -0.303 NA
BRANCH  19  21
ATOM     20  C   LIG    1       24.605 -20.787   7.062  0.00  0.00    +0.020 C 
ATOM     21  C   LIG    1       23.154 -20.475   6.679  0.00  0.00    +0.081 C 
ENDBRANCH  19  21
BRANCH  19  22
ATOM     22  C   LIG    1       21.989 -19.898   4.618  0.00  0.00    +0.081 C 
ATOM     23  C   LIG    1       22.376 -18.459   4.954  0.00  0.00    +0.020 C 
ENDBRANCH  19  22
ENDBRANCH  18  19
ENDBRANCH  17  18
ENDBRANCH  16  17
ENDBRANCH  14  16
ENDBRANCH   1  14
TORSDOF 8
ENDMDL
MODEL 9
REMARK VINA RESULT:      -3.4      2.825      6.576
REMARK  Name = *****
REMARK                            x       y       z     vdW  Elec       q    Type
REMARK                         _______ _______ _______ _____ _____    ______ ____
ROOT
ATOM      1  N   LIG    1       25.615 -17.599   3.109  0.00  0.00    -0.341 N 
ATOM      2  H   LIG    1       25.495 -17.782   2.119  0.00  0.00    +0.146 HD
ENDROOT
BRANCH   1   3
ATOM      3  C   LIG    1       25.185 -16.336   3.545  0.00  0.00    +0.038 A 
ATOM      4  C   LIG    1       26.118 -15.297   3.876  0.00  0.00    +0.021 A 
ATOM      5  C   LIG    1       25.611 -14.094   4.441  0.00  0.00    +0.074 A 
ATOM      6  C   LIG    1       26.454 -13.041   4.763  0.00  0.00    +0.048 A 
ATOM      7  C   LIG    1       27.817 -13.129   4.525  0.00  0.00    +0.043 A 
ATOM      8  C   LIG    1       28.360 -14.285   3.984  0.00  0.00    +0.021 A 
ATOM      9 CL   LIG    1       28.841 -11.790   4.885  0.00  0.00    -0.084 Cl
ATOM     10  N   LIG    1       24.310 -13.887   4.689  0.00  0.00    -0.255 NA
ATOM     11  C   LIG    1       23.458 -14.867   4.358  0.00  0.00    +0.113 A 
ATOM     12  C   LIG    1       27.522 -15.369   3.673  0.00  0.00    +0.013 A 
ATOM     13  C   LIG    1       23.834 -16.073   3.792  0.00  0.00    +0.043 A 
ENDBRANCH   1   3
BRANCH   1  14
ATOM     14  C   LIG    1       25.679 -18.803   3.955  0.00  0.00    +0.067 C 
ATOM     15  C   LIG    1       27.075 -18.902   4.593  0.00  0.00    +0.027 C 
BRANCH  14  16
ATOM     16  C   LIG    1       25.370 -20.072   3.126  0.00  0.00    +0.023 C 
BRANCH  16  17
ATOM     17  C   LIG    1       23.908 -20.515   3.306  0.00  0.00    +0.017 C 
BRANCH  17  18
ATOM     18  C   LIG    1       23.642 -21.328   4.580  0.00  0.00    +0.084 C 
BRANCH  18  19
ATOM     19  N   LIG    1       22.734 -20.660   5.552  0.00  0.00    -0.303 NA
BRANCH  19  21
ATOM     20  C   LIG    1       24.773 -20.851   7.062  0.00  0.00    +0.020 C 
ATOM     21  C   LIG    1       23.246 -20.809   6.935  0.00  0.00    +0.081 C 
ENDBRANCH  19  21
BRANCH  19  22
ATOM     22  C   LIG    1       22.535 -19.228   5.223  0.00  0.00    +0.081 C 
ATOM     23  C   LIG    1       21.460 -18.927   4.180  0.00  0.00    +0.020 C 
ENDBRANCH  19  22
ENDBRANCH  18  19
ENDBRANCH  17  18
ENDBRANCH  16  17
ENDBRANCH  14  16
ENDBRANCH   1  14
TORSDOF 8
ENDMDL
