MODEL 1
REMARK VINA RESULT:      -4.5      0.000      0.000
REMARK  Name = *****
REMARK                            x       y       z     vdW  Elec       q    Type
REMARK                         _______ _______ _______ _____ _____    ______ ____
ROOT
ATOM      1  C   LIG    1       23.519 -19.348   4.155  0.00  0.00    +0.010 A 
ATOM      2  C   LIG    1       24.605 -18.596   3.691  0.00  0.00    +0.042 A 
ATOM      3  C   LIG    1       24.504 -17.226   3.762  0.00  0.00    +0.066 A 
ATOM      4  C   LIG    1       23.356 -16.588   4.264  0.00  0.00    +0.065 A 
ATOM      5  N   LIG    1       23.534 -15.212   4.092  0.00  0.00    -0.326 N 
ATOM      6  H   LIG    1       23.051 -14.522   4.640  0.00  0.00    +0.169 HD
ATOM      7  C   LIG    1       24.834 -14.980   3.634  0.00  0.00    +0.201 C 
ATOM      8  N   LIG    1       25.379 -13.813   3.628  0.00  0.00    -0.109 NA
ATOM      9  C   LIG    1       22.270 -17.303   4.702  0.00  0.00    +0.029 A 
ATOM     10  N   LIG    1       25.358 -16.227   3.296  0.00  0.00    -0.326 N 
ATOM     11  H   LIG    1       26.348 -16.351   3.138  0.00  0.00    +0.169 HD
ATOM     12  C   LIG    1       22.366 -18.701   4.662  0.00  0.00    +0.017 A 
ENDROOT
BRANCH   8  13
ATOM     13  C   LIG    1       26.679 -13.719   3.214  0.00  0.00    +0.427 C 
ATOM     14  O   LIG    1       27.126 -14.058   2.122  0.00  0.00    -0.224 OA
BRANCH  13  15
ATOM     15  O   LIG    1       27.438 -13.204   4.213  0.00  0.00    -0.452 OA
ATOM     16  C   LIG    1       28.791 -12.953   3.837  0.00  0.00    +0.282 C 
ENDBRANCH  13  15
ENDBRANCH   8  13
BRANCH   1  17
ATOM     17  S   LIG    1       23.625 -21.135   4.116  0.00  0.00    -0.125 S 
BRANCH  17  18
ATOM     18  C   LIG    1       25.015 -21.385   5.271  0.00  0.00    +0.074 C 
BRANCH  18  20
ATOM     19  C   LIG    1       23.268 -21.520   7.062  0.00  0.00    +0.004 C 
ATOM     20  C   LIG    1       24.633 -20.957   6.686  0.00  0.00    +0.008 C 
ENDBRANCH  18  20
ENDBRANCH  17  18
ENDBRANCH   1  17
TORSDOF 5
ENDMDL
MODEL 2
REMARK VINA RESULT:      -4.1      1.545      2.405
REMARK  Name = *****
REMARK                            x       y       z     vdW  Elec       q    Type
REMARK                         _______ _______ _______ _____ _____    ______ ____
ROOT
ATOM      1  C   LIG    1       23.571 -19.675   4.138  0.00  0.00    +0.010 A 
ATOM      2  C   LIG    1       23.459 -18.280   4.082  0.00  0.00    +0.042 A 
ATOM      3  C   LIG    1       24.582 -17.567   3.732  0.00  0.00    +0.066 A 
ATOM      4  C   LIG    1       25.808 -18.198   3.452  0.00  0.00    +0.065 A 
ATOM      5  N   LIG    1       26.757 -17.191   3.246  0.00  0.00    -0.326 N 
ATOM      6  H   LIG    1       27.601 -17.332   2.719  0.00  0.00    +0.169 HD
ATOM      7  C   LIG    1       26.107 -15.954   3.240  0.00  0.00    +0.201 C 
ATOM      8  N   LIG    1       26.663 -14.871   2.820  0.00  0.00    -0.109 NA
ATOM      9  C   LIG    1       25.948 -19.560   3.525  0.00  0.00    +0.029 A 
ATOM     10  N   LIG    1       24.808 -16.192   3.687  0.00  0.00    -0.326 N 
ATOM     11  H   LIG    1       24.082 -15.498   3.575  0.00  0.00    +0.169 HD
ATOM     12  C   LIG    1       24.806 -20.305   3.854  0.00  0.00    +0.017 A 
ENDROOT
BRANCH   8  13
ATOM     13  C   LIG    1       25.908 -13.731   2.805  0.00  0.00    +0.427 C 
ATOM     14  O   LIG    1       25.683 -13.015   1.835  0.00  0.00    -0.224 OA
BRANCH  13  15
ATOM     15  O   LIG    1       25.443 -13.477   4.054  0.00  0.00    -0.452 OA
ATOM     16  C   LIG    1       24.204 -12.771   4.075  0.00  0.00    +0.282 C 
ENDBRANCH  13  15
ENDBRANCH   8  13
BRANCH   1  17
ATOM     17  S   LIG    1       22.122 -20.641   4.552  0.00  0.00    -0.125 S 
BRANCH  17  18
ATOM     18  C   LIG    1       22.762 -21.549   5.999  0.00  0.00    +0.074 C 
BRANCH  18  20
ATOM     19  C   LIG    1       24.952 -20.954   7.062  0.00  0.00    +0.004 C 
ATOM     20  C   LIG    1       23.473 -20.604   6.966  0.00  0.00    +0.008 C 
ENDBRANCH  18  20
ENDBRANCH  17  18
ENDBRANCH   1  17
TORSDOF 5
ENDMDL
MODEL 3
REMARK VINA RESULT:      -3.4      1.815      2.729
REMARK  Name = *****
REMARK                            x       y       z     vdW  Elec       q    Type
REMARK                         _______ _______ _______ _____ _____    ______ ____
ROOT
ATOM      1  C   LIG    1       25.280 -19.955   3.943  0.00  0.00    +0.010 A 
ATOM      2  C   LIG    1       25.078 -18.658   3.458  0.00  0.00    +0.042 A 
ATOM      3  C   LIG    1       26.074 -17.736   3.677  0.00  0.00    +0.066 A 
ATOM      4  C   LIG    1       27.251 -18.062   4.375  0.00  0.00    +0.065 A 
ATOM      5  N   LIG    1       27.991 -16.884   4.519  0.00  0.00    -0.326 N 
ATOM      6  H   LIG    1       28.985 -16.874   4.668  0.00  0.00    +0.169 HD
ATOM      7  C   LIG    1       27.367 -15.868   3.790  0.00  0.00    +0.201 C 
ATOM      8  N   LIG    1       27.939 -14.748   3.517  0.00  0.00    -0.109 NA
ATOM      9  C   LIG    1       27.461 -19.319   4.882  0.00  0.00    +0.029 A 
ATOM     10  N   LIG    1       26.122 -16.368   3.409  0.00  0.00    -0.326 N 
ATOM     11  H   LIG    1       25.569 -15.906   2.701  0.00  0.00    +0.169 HD
ATOM     12  C   LIG    1       26.467 -20.280   4.644  0.00  0.00    +0.017 A 
ENDROOT
BRANCH   8  13
ATOM     13  C   LIG    1       27.251 -13.853   2.743  0.00  0.00    +0.427 C 
ATOM     14  O   LIG    1       26.496 -14.119   1.813  0.00  0.00    -0.224 OA
BRANCH  13  15
ATOM     15  O   LIG    1       27.543 -12.590   3.140  0.00  0.00    -0.452 OA
ATOM     16  C   LIG    1       28.621 -12.512   4.071  0.00  0.00    +0.282 C 
ENDBRANCH  13  15
ENDBRANCH   8  13
BRANCH   1  17
ATOM     17  S   LIG    1       24.024 -21.195   3.644  0.00  0.00    -0.125 S 
BRANCH  17  18
ATOM     18  C   LIG    1       23.409 -21.426   5.346  0.00  0.00    +0.074 C 
BRANCH  18  20
ATOM     19  C   LIG    1       22.037 -19.404   4.789  0.00  0.00    +0.004 C 
ATOM     20  C   LIG    1       22.802 -20.133   5.887  0.00  0.00    +0.008 C 
ENDBRANCH  18  20
ENDBRANCH  17  18
ENDBRANCH   1  17
TORSDOF 5
ENDMDL
MODEL 4
REMARK VINA RESULT:      -3.1      4.060      6.826
REMARK  Name = *****
REMARK                            x       y       z     vdW  Elec       q    Type
REMARK                         _______ _______ _______ _____ _____    ______ ____
ROOT
ATOM      1  C   LIG    1       26.444 -14.857   3.170  0.00  0.00    +0.010 A 
ATOM      2  C   LIG    1       25.553 -15.921   2.985  0.00  0.00    +0.042 A 
ATOM      3  C   LIG    1       25.909 -17.144   3.504  0.00  0.00    +0.066 A 
ATOM      4  C   LIG    1       27.125 -17.340   4.182  0.00  0.00    +0.065 A 
ATOM      5  N   LIG    1       27.225 -18.704   4.474  0.00  0.00    -0.326 N 
ATOM      6  H   LIG    1       27.796 -19.067   5.217  0.00  0.00    +0.169 HD
ATOM      7  C   LIG    1       26.023 -19.328   4.126  0.00  0.00    +0.201 C 
ATOM      8  N   LIG    1       25.714 -20.518   4.509  0.00  0.00    -0.109 NA
ATOM      9  C   LIG    1       28.026 -16.319   4.353  0.00  0.00    +0.029 A 
ATOM     10  N   LIG    1       25.292 -18.390   3.399  0.00  0.00    -0.326 N 
ATOM     11  H   LIG    1       24.308 -18.525   3.214  0.00  0.00    +0.169 HD
ATOM     12  C   LIG    1       27.667 -15.059   3.855  0.00  0.00    +0.017 A 
ENDROOT
BRANCH   8  13
ATOM     13  C   LIG    1       24.483 -21.000   4.157  0.00  0.00    +0.427 C 
ATOM     14  O   LIG    1       24.020 -21.065   3.022  0.00  0.00    -0.224 OA
BRANCH  13  15
ATOM     15  O   LIG    1       23.811 -21.389   5.269  0.00  0.00    -0.452 OA
ATOM     16  C   LIG    1       22.922 -20.398   5.781  0.00  0.00    +0.282 C 
ENDBRANCH  13  15
ENDBRANCH   8  13
BRANCH   1  17
ATOM     17  S   LIG    1       26.001 -13.240   2.544  0.00  0.00    -0.125 S 
BRANCH  17  18
ATOM     18  C   LIG    1       24.235 -13.207   3.001  0.00  0.00    +0.074 C 
BRANCH  18  20
ATOM     19  C   LIG    1       23.786 -11.520   4.799  0.00  0.00    +0.004 C 
ATOM     20  C   LIG    1       24.064 -12.988   4.503  0.00  0.00    +0.008 C 
ENDBRANCH  18  20
ENDBRANCH  17  18
ENDBRANCH   1  17
TORSDOF 5
ENDMDL
MODEL 5
REMARK VINA RESULT:      -2.8      2.042      2.871
REMARK  Name = *****
REMARK                            x       y       z     vdW  Elec       q    Type
REMARK                         _______ _______ _______ _____ _____    ______ ____
ROOT
ATOM      1  C   LIG    1       24.249 -18.591   3.747  0.00  0.00    +0.010 A 
ATOM      2  C   LIG    1       23.613 -17.377   4.034  0.00  0.00    +0.042 A 
ATOM      3  C   LIG    1       24.359 -16.227   3.920  0.00  0.00    +0.066 A 
ATOM      4  C   LIG    1       25.715 -16.253   3.546  0.00  0.00    +0.065 A 
ATOM      5  N   LIG    1       26.197 -14.943   3.637  0.00  0.00    -0.326 N 
ATOM      6  H   LIG    1       27.000 -14.617   3.128  0.00  0.00    +0.169 HD
ATOM      7  C   LIG    1       25.126 -14.087   3.910  0.00  0.00    +0.201 C 
ATOM      8  N   LIG    1       25.205 -12.807   3.796  0.00  0.00    -0.109 NA
ATOM      9  C   LIG    1       26.366 -17.431   3.285  0.00  0.00    +0.029 A 
ATOM     10  N   LIG    1       24.043 -14.905   4.228  0.00  0.00    -0.326 N 
ATOM     11  H   LIG    1       23.103 -14.536   4.260  0.00  0.00    +0.169 HD
ATOM     12  C   LIG    1       25.614 -18.611   3.369  0.00  0.00    +0.017 A 
ENDROOT
BRANCH   8  13
ATOM     13  C   LIG    1       24.073 -12.076   4.032  0.00  0.00    +0.427 C 
ATOM     14  O   LIG    1       23.476 -11.975   5.100  0.00  0.00    -0.224 OA
BRANCH  13  15
ATOM     15  O   LIG    1       23.671 -11.476   2.884  0.00  0.00    -0.452 OA
ATOM     16  C   LIG    1       24.603 -11.600   1.812  0.00  0.00    +0.282 C 
ENDBRANCH  13  15
ENDBRANCH   8  13
BRANCH   1  17
ATOM     17  S   LIG    1       23.303 -20.107   3.846  0.00  0.00    -0.125 S 
BRANCH  17  18
ATOM     18  C   LIG    1       22.743 -20.008   5.579  0.00  0.00    +0.074 C 
BRANCH  18  20
ATOM     19  C   LIG    1       24.898 -20.852   6.540  0.00  0.00    +0.004 C 
ATOM     20  C   LIG    1       23.398 -21.095   6.427  0.00  0.00    +0.008 C 
ENDBRANCH  18  20
ENDBRANCH  17  18
ENDBRANCH   1  17
TORSDOF 5
ENDMDL
MODEL 6
REMARK VINA RESULT:      -2.7      3.798      6.364
REMARK  Name = *****
REMARK                            x       y       z     vdW  Elec       q    Type
REMARK                         _______ _______ _______ _____ _____    ______ ____
ROOT
ATOM      1  C   LIG    1       25.360 -14.644   3.211  0.00  0.00    +0.010 A 
ATOM      2  C   LIG    1       25.602 -16.023   3.241  0.00  0.00    +0.042 A 
ATOM      3  C   LIG    1       24.597 -16.834   3.713  0.00  0.00    +0.066 A 
ATOM      4  C   LIG    1       23.371 -16.313   4.167  0.00  0.00    +0.065 A 
ATOM      5  N   LIG    1       22.628 -17.382   4.678  0.00  0.00    -0.326 N 
ATOM      6  H   LIG    1       21.626 -17.368   4.755  0.00  0.00    +0.169 HD
ATOM      7  C   LIG    1       23.307 -18.573   4.407  0.00  0.00    +0.201 C 
ATOM      8  N   LIG    1       22.761 -19.734   4.520  0.00  0.00    -0.109 NA
ATOM      9  C   LIG    1       23.120 -14.965   4.170  0.00  0.00    +0.029 A 
ATOM     10  N   LIG    1       24.574 -18.207   3.954  0.00  0.00    -0.326 N 
ATOM     11  H   LIG    1       25.179 -18.876   3.498  0.00  0.00    +0.169 HD
ATOM     12  C   LIG    1       24.124 -14.125   3.667  0.00  0.00    +0.017 A 
ENDROOT
BRANCH   8  13
ATOM     13  C   LIG    1       23.507 -20.825   4.169  0.00  0.00    +0.427 C 
ATOM     14  O   LIG    1       23.879 -21.124   3.038  0.00  0.00    -0.224 OA
BRANCH  13  15
ATOM     15  O   LIG    1       23.769 -21.571   5.270  0.00  0.00    -0.452 OA
ATOM     16  C   LIG    1       25.140 -21.556   5.664  0.00  0.00    +0.282 C 
ENDBRANCH  13  15
ENDBRANCH   8  13
BRANCH   1  17
ATOM     17  S   LIG    1       26.629 -13.558   2.567  0.00  0.00    -0.125 S 
BRANCH  17  18
ATOM     18  C   LIG    1       27.984 -13.950   3.723  0.00  0.00    +0.074 C 
BRANCH  18  20
ATOM     19  C   LIG    1       26.936 -13.329   5.913  0.00  0.00    +0.004 C 
ATOM     20  C   LIG    1       28.007 -12.967   4.892  0.00  0.00    +0.008 C 
ENDBRANCH  18  20
ENDBRANCH  17  18
ENDBRANCH   1  17
TORSDOF 5
ENDMDL
MODEL 7
REMARK VINA RESULT:      -2.7      4.122      6.861
REMARK  Name = *****
REMARK                            x       y       z     vdW  Elec       q    Type
REMARK                         _______ _______ _______ _____ _____    ______ ____
ROOT
ATOM      1  C   LIG    1       25.210 -15.200   3.586  0.00  0.00    +0.010 A 
ATOM      2  C   LIG    1       24.110 -15.995   3.932  0.00  0.00    +0.042 A 
ATOM      3  C   LIG    1       24.295 -17.357   3.955  0.00  0.00    +0.066 A 
ATOM      4  C   LIG    1       25.531 -17.947   3.632  0.00  0.00    +0.065 A 
ATOM      5  N   LIG    1       25.347 -19.334   3.644  0.00  0.00    -0.326 N 
ATOM      6  H   LIG    1       26.098 -19.987   3.779  0.00  0.00    +0.169 HD
ATOM      7  C   LIG    1       24.062 -19.613   4.118  0.00  0.00    +0.201 C 
ATOM      8  N   LIG    1       23.690 -20.790   4.486  0.00  0.00    -0.109 NA
ATOM      9  C   LIG    1       26.615 -17.191   3.266  0.00  0.00    +0.029 A 
ATOM     10  N   LIG    1       23.386 -18.395   4.159  0.00  0.00    -0.326 N 
ATOM     11  H   LIG    1       22.514 -18.298   4.661  0.00  0.00    +0.169 HD
ATOM     12  C   LIG    1       26.452 -15.798   3.263  0.00  0.00    +0.017 A 
ENDROOT
BRANCH   8  13
ATOM     13  C   LIG    1       22.427 -20.930   4.991  0.00  0.00    +0.427 C 
ATOM     14  O   LIG    1       21.385 -20.532   4.478  0.00  0.00    -0.224 OA
BRANCH  13  15
ATOM     15  O   LIG    1       22.483 -21.570   6.185  0.00  0.00    -0.452 OA
ATOM     16  C   LIG    1       23.605 -21.203   6.984  0.00  0.00    +0.282 C 
ENDBRANCH  13  15
ENDBRANCH   8  13
BRANCH   1  17
ATOM     17  S   LIG    1       25.021 -13.420   3.581  0.00  0.00    -0.125 S 
BRANCH  17  18
ATOM     18  C   LIG    1       25.898 -13.014   5.129  0.00  0.00    +0.074 C 
BRANCH  18  20
ATOM     19  C   LIG    1       28.254 -12.834   4.293  0.00  0.00    +0.004 C 
ATOM     20  C   LIG    1       27.289 -13.644   5.149  0.00  0.00    +0.008 C 
ENDBRANCH  18  20
ENDBRANCH  17  18
ENDBRANCH   1  17
TORSDOF 5
ENDMDL
MODEL 8
REMARK VINA RESULT:      -2.4      1.378      1.708
REMARK  Name = *****
REMARK                            x       y       z     vdW  Elec       q    Type
REMARK                         _______ _______ _______ _____ _____    ______ ____
ROOT
ATOM      1  C   LIG    1       23.972 -19.897   4.678  0.00  0.00    +0.010 A 
ATOM      2  C   LIG    1       24.786 -18.840   4.253  0.00  0.00    +0.042 A 
ATOM      3  C   LIG    1       24.204 -17.600   4.134  0.00  0.00    +0.066 A 
ATOM      4  C   LIG    1       22.841 -17.386   4.409  0.00  0.00    +0.065 A 
ATOM      5  N   LIG    1       22.553 -16.057   4.082  0.00  0.00    -0.326 N 
ATOM      6  H   LIG    1       21.779 -15.550   4.475  0.00  0.00    +0.169 HD
ATOM      7  C   LIG    1       23.746 -15.405   3.758  0.00  0.00    +0.201 C 
ATOM      8  N   LIG    1       23.842 -14.124   3.666  0.00  0.00    -0.109 NA
ATOM      9  C   LIG    1       22.018 -18.411   4.802  0.00  0.00    +0.029 A 
ATOM     10  N   LIG    1       24.718 -16.398   3.649  0.00  0.00    -0.326 N 
ATOM     11  H   LIG    1       25.701 -16.165   3.628  0.00  0.00    +0.169 HD
ATOM     12  C   LIG    1       22.601 -19.677   4.955  0.00  0.00    +0.017 A 
ENDROOT
BRANCH   8  13
ATOM     13  C   LIG    1       25.076 -13.596   3.402  0.00  0.00    +0.427 C 
ATOM     14  O   LIG    1       25.736 -13.753   2.379  0.00  0.00    -0.224 OA
BRANCH  13  15
ATOM     15  O   LIG    1       25.497 -12.869   4.467  0.00  0.00    -0.452 OA
ATOM     16  C   LIG    1       26.709 -13.347   5.048  0.00  0.00    +0.282 C 
ENDBRANCH  13  15
ENDBRANCH   8  13
BRANCH   1  17
ATOM     17  S   LIG    1       24.699 -21.520   4.883  0.00  0.00    -0.125 S 
BRANCH  17  18
ATOM     18  C   LIG    1       25.152 -21.433   6.648  0.00  0.00    +0.074 C 
BRANCH  18  20
ATOM     19  C   LIG    1       27.304 -20.228   6.206  0.00  0.00    +0.004 C 
ATOM     20  C   LIG    1       26.668 -21.466   6.825  0.00  0.00    +0.008 C 
ENDBRANCH  18  20
ENDBRANCH  17  18
ENDBRANCH   1  17
TORSDOF 5
ENDMDL
MODEL 9
REMARK VINA RESULT:      -1.6      4.232      7.002
REMARK  Name = *****
REMARK                            x       y       z     vdW  Elec       q    Type
REMARK                         _______ _______ _______ _____ _____    ______ ____
ROOT
ATOM      1  C   LIG    1       26.848 -15.780   3.310  0.00  0.00    +0.010 A 
ATOM      2  C   LIG    1       25.773 -16.655   3.116  0.00  0.00    +0.042 A 
ATOM      3  C   LIG    1       25.882 -17.920   3.645  0.00  0.00    +0.066 A 
ATOM      4  C   LIG    1       27.030 -18.340   4.342  0.00  0.00    +0.065 A 
ATOM      5  N   LIG    1       26.864 -19.696   4.641  0.00  0.00    -0.326 N 
ATOM      6  H   LIG    1       27.345 -20.156   5.393  0.00  0.00    +0.169 HD
ATOM      7  C   LIG    1       25.570 -20.082   4.277  0.00  0.00    +0.201 C 
ATOM      8  N   LIG    1       25.034 -21.189   4.660  0.00  0.00    -0.109 NA
ATOM      9  C   LIG    1       28.105 -17.508   4.522  0.00  0.00    +0.029 A 
ATOM     10  N   LIG    1       25.041 -19.027   3.535  0.00  0.00    -0.326 N 
ATOM     11  H   LIG    1       24.052 -18.974   3.337  0.00  0.00    +0.169 HD
ATOM     12  C   LIG    1       28.000 -16.206   4.014  0.00  0.00    +0.017 A 
ENDROOT
BRANCH   8  13
ATOM     13  C   LIG    1       23.740 -21.430   4.291  0.00  0.00    +0.427 C 
ATOM     14  O   LIG    1       23.304 -21.494   3.145  0.00  0.00    -0.224 OA
BRANCH  13  15
ATOM     15  O   LIG    1       22.970 -21.572   5.399  0.00  0.00    -0.452 OA
ATOM     16  C   LIG    1       23.704 -21.527   6.621  0.00  0.00    +0.282 C 
ENDBRANCH  13  15
ENDBRANCH   8  13
BRANCH   1  17
ATOM     17  S   LIG    1       26.729 -14.111   2.671  0.00  0.00    -0.125 S 
BRANCH  17  18
ATOM     18  C   LIG    1       27.988 -13.295   3.709  0.00  0.00    +0.074 C 
BRANCH  18  20
ATOM     19  C   LIG    1       26.417 -13.313   5.661  0.00  0.00    +0.004 C 
ATOM     20  C   LIG    1       27.332 -12.452   4.800  0.00  0.00    +0.008 C 
ENDBRANCH  18  20
ENDBRANCH  17  18
ENDBRANCH   1  17
TORSDOF 5
ENDMDL
