MODEL 1
REMARK VINA RESULT:      -8.7      0.000      0.000
REMARK  Name = *****
REMARK                            x       y       z     vdW  Elec       q    Type
REMARK                         _______ _______ _______ _____ _____    ______ ____
ROOT
ATOM      1  N   UNK A  0       24.989 -29.118   6.368  0.00  0.00    -0.342 N 
ATOM      2  H   UNK A  0       25.890 -29.586   6.408  0.00  0.00    +0.146 HD
ENDROOT
BRANCH   1   3
ATOM      3  C   UNK A  0       25.191 -27.745   6.198  0.00  0.00    +0.027 A 
ATOM      4  C   UNK A  0       26.367 -27.062   6.519  0.00  0.00    +0.024 A 
ATOM      5  C   UNK A  0       26.428 -25.659   6.466  0.00  0.00    +0.015 A 
ATOM      6  C   UNK A  0       25.301 -24.909   6.106  0.00  0.00    +0.037 A 
ATOM      7  C   UNK A  0       24.142 -25.586   5.715  0.00  0.00    +0.015 A 
ATOM      8  C   UNK A  0       24.088 -26.982   5.789  0.00  0.00    +0.024 A 
BRANCH   6   9
ATOM      9  C   UNK A  0       25.351 -23.416   6.183  0.00  0.00    +0.245 C 
ATOM     10  N   GLU A  1       26.277 -22.868   7.054  0.00  0.00    -0.298 N 
ATOM     11  H   GLU A  1       26.893 -23.485   7.578  0.00  0.00    +0.150 HD
ATOM     12  O   UNK A  0       24.601 -22.724   5.489  0.00  0.00    -0.270 OA
BRANCH  10  13
ATOM     13  CA  GLU A  1       26.536 -21.406   7.149  0.00  0.00    +0.182 C 
BRANCH  13  14
ATOM     14  C   GLU A  1       25.617 -20.793   8.228  0.00  0.00    +0.325 C 
ATOM     15  O   GLU A  1       25.972 -20.510   9.364  0.00  0.00    -0.249 OA
BRANCH  14  16
ATOM     16  OXT GLU A  1       24.327 -20.664   7.838  0.00  0.00    -0.479 OA
ATOM     17  HXT GLU A  1       24.138 -19.720   7.667  0.00  0.00    +0.295 HD
ENDBRANCH  14  16
ENDBRANCH  13  14
BRANCH  13  18
ATOM     18  CB  GLU A  1       28.021 -21.142   7.486  0.00  0.00    +0.045 C 
BRANCH  18  19
ATOM     19  CG  GLU A  1       28.708 -20.172   6.518  0.00  0.00    +0.123 C 
BRANCH  19  20
ATOM     20  CD  GLU A  1       29.585 -19.189   7.251  0.00  0.00    +0.305 C 
ATOM     21  OE1 GLU A  1       30.404 -18.474   6.708  0.00  0.00    -0.251 OA
BRANCH  20  22
ATOM     22  OE2 GLU A  1       29.400 -19.204   8.592  0.00  0.00    -0.481 OA
ATOM     23  HE2 GLU A  1       28.546 -19.578   8.878  0.00  0.00    +0.295 HD
ENDBRANCH  20  22
ENDBRANCH  19  20
ENDBRANCH  18  19
ENDBRANCH  13  18
ENDBRANCH  10  13
ENDBRANCH   6   9
ENDBRANCH   1   3
BRANCH   1  24
ATOM     24  C   UNK A  0       24.024 -29.616   7.351  0.00  0.00    +0.126 C 
BRANCH  24  32
ATOM     25  C   UNK A  0       26.665 -28.045  11.906  0.00  0.00    +0.195 C 
ATOM     26  N   UNK A  0       25.439 -28.322  12.403  0.00  0.00    -0.294 N 
ATOM     27  H   UNK A  0       25.143 -27.943  13.287  0.00  0.00    +0.172 HD
ATOM     28  C   UNK A  0       24.538 -29.105  11.748  0.00  0.00    +0.276 C 
ATOM     29  O   UNK A  0       23.413 -29.252  12.214  0.00  0.00    -0.266 OA
ATOM     30  C   UNK A  0       24.994 -29.688  10.445  0.00  0.00    +0.142 C 
ATOM     31  N   UNK A  0       24.186 -30.533   9.654  0.00  0.00    -0.261 N 
ATOM     32  C   UNK A  0       24.601 -30.756   8.238  0.00  0.00    +0.115 C 
ATOM     33  C   UNK A  0       26.133 -30.880   8.140  0.00  0.00    +0.127 C 
ATOM     34  N   UNK A  0       26.750 -29.766   8.831  0.00  0.00    -0.326 N 
ATOM     35  H   UNK A  0       27.766 -29.732   8.837  0.00  0.00    +0.148 HD
ATOM     36  C   UNK A  0       22.976 -31.090  10.040  0.00  0.00    +0.333 C 
ATOM     37  O   UNK A  0       22.273 -31.794   9.319  0.00  0.00    -0.279 OA
ATOM     38  C   UNK A  0       26.245 -29.318  10.046  0.00  0.00    +0.149 C 
ATOM     39  N   UNK A  0       27.079 -28.516  10.781  0.00  0.00    -0.199 NA
BRANCH  25  40
ATOM     40  N   UNK A  0       27.454 -27.229  12.645  0.00  0.00    -0.329 N 
ATOM     41  H   UNK A  0       27.151 -26.268  12.733  0.00  0.00    +0.145 HD
ATOM     42  H   UNK A  0       28.429 -27.301  12.370  0.00  0.00    +0.145 HD
ENDBRANCH  25  40
ENDBRANCH  24  32
ENDBRANCH   1  24
TORSDOF 12
ENDMDL
MODEL 2
REMARK VINA RESULT:      -8.7      1.618      2.877
REMARK  Name = *****
REMARK                            x       y       z     vdW  Elec       q    Type
REMARK                         _______ _______ _______ _____ _____    ______ ____
ROOT
ATOM      1  N   UNK A  0       25.240 -28.934   6.519  0.00  0.00    -0.342 N 
ATOM      2  H   UNK A  0       26.176 -29.276   6.716  0.00  0.00    +0.146 HD
ENDROOT
BRANCH   1   3
ATOM      3  C   UNK A  0       25.267 -27.539   6.429  0.00  0.00    +0.027 A 
ATOM      4  C   UNK A  0       26.274 -26.723   6.952  0.00  0.00    +0.024 A 
ATOM      5  C   UNK A  0       26.143 -25.324   6.957  0.00  0.00    +0.015 A 
ATOM      6  C   UNK A  0       24.987 -24.713   6.454  0.00  0.00    +0.037 A 
ATOM      7  C   UNK A  0       24.006 -25.517   5.866  0.00  0.00    +0.015 A 
ATOM      8  C   UNK A  0       24.140 -26.910   5.882  0.00  0.00    +0.024 A 
BRANCH   6   9
ATOM      9  C   UNK A  0       24.813 -23.234   6.590  0.00  0.00    +0.245 C 
ATOM     10  N   GLU A  1       25.718 -22.435   5.912  0.00  0.00    -0.298 N 
ATOM     11  H   GLU A  1       26.435 -22.873   5.339  0.00  0.00    +0.150 HD
ATOM     12  O   UNK A  0       23.896 -22.767   7.271  0.00  0.00    -0.270 OA
BRANCH  10  13
ATOM     13  CA  GLU A  1       25.602 -20.954   5.845  0.00  0.00    +0.182 C 
BRANCH  13  14
ATOM     14  C   GLU A  1       26.938 -20.316   6.281  0.00  0.00    +0.325 C 
ATOM     15  O   GLU A  1       27.257 -20.093   7.442  0.00  0.00    -0.249 OA
BRANCH  14  16
ATOM     16  OXT GLU A  1       27.723 -19.932   5.248  0.00  0.00    -0.479 OA
ATOM     17  HXT GLU A  1       28.111 -19.056   5.449  0.00  0.00    +0.295 HD
ENDBRANCH  14  16
ENDBRANCH  13  14
BRANCH  13  18
ATOM     18  CB  GLU A  1       25.229 -20.508   4.413  0.00  0.00    +0.045 C 
BRANCH  18  19
ATOM     19  CG  GLU A  1       23.894 -21.077   3.920  0.00  0.00    +0.123 C 
BRANCH  19  20
ATOM     20  CD  GLU A  1       22.745 -20.621   4.782  0.00  0.00    +0.305 C 
ATOM     21  OE1 GLU A  1       22.534 -19.461   5.074  0.00  0.00    -0.251 OA
BRANCH  20  22
ATOM     22  OE2 GLU A  1       21.981 -21.642   5.237  0.00  0.00    -0.481 OA
ATOM     23  HE2 GLU A  1       22.175 -21.915   6.153  0.00  0.00    +0.295 HD
ENDBRANCH  20  22
ENDBRANCH  19  20
ENDBRANCH  18  19
ENDBRANCH  13  18
ENDBRANCH  10  13
ENDBRANCH   6   9
ENDBRANCH   1   3
BRANCH   1  24
ATOM     24  C   UNK A  0       24.192 -29.614   7.285  0.00  0.00    +0.126 C 
BRANCH  24  32
ATOM     25  C   UNK A  0       26.626 -28.034  11.951  0.00  0.00    +0.195 C 
ATOM     26  N   UNK A  0       25.385 -28.331  12.397  0.00  0.00    -0.294 N 
ATOM     27  H   UNK A  0       25.049 -27.961  13.270  0.00  0.00    +0.172 HD
ATOM     28  C   UNK A  0       24.523 -29.122  11.701  0.00  0.00    +0.276 C 
ATOM     29  O   UNK A  0       23.382 -29.287  12.121  0.00  0.00    -0.266 OA
ATOM     30  C   UNK A  0       25.039 -29.691  10.415  0.00  0.00    +0.142 C 
ATOM     31  N   UNK A  0       24.275 -30.542   9.587  0.00  0.00    -0.261 N 
ATOM     32  C   UNK A  0       24.749 -30.751   8.188  0.00  0.00    +0.115 C 
ATOM     33  C   UNK A  0       26.285 -30.854   8.151  0.00  0.00    +0.127 C 
ATOM     34  N   UNK A  0       26.859 -29.735   8.873  0.00  0.00    -0.326 N 
ATOM     35  H   UNK A  0       27.873 -29.688   8.920  0.00  0.00    +0.148 HD
ATOM     36  C   UNK A  0       23.058 -31.118   9.921  0.00  0.00    +0.333 C 
ATOM     37  O   UNK A  0       22.393 -31.827   9.169  0.00  0.00    -0.279 OA
ATOM     38  C   UNK A  0       26.299 -29.302  10.069  0.00  0.00    +0.149 C 
ATOM     39  N   UNK A  0       27.092 -28.493  10.840  0.00  0.00    -0.199 NA
BRANCH  25  40
ATOM     40  N   UNK A  0       27.374 -27.212  12.725  0.00  0.00    -0.329 N 
ATOM     41  H   UNK A  0       28.336 -27.485  12.875  0.00  0.00    +0.145 HD
ATOM     42  H   UNK A  0       26.900 -26.981  13.593  0.00  0.00    +0.145 HD
ENDBRANCH  25  40
ENDBRANCH  24  32
ENDBRANCH   1  24
TORSDOF 12
ENDMDL
MODEL 3
REMARK VINA RESULT:      -8.5      3.479      9.967
REMARK  Name = *****
REMARK                            x       y       z     vdW  Elec       q    Type
REMARK                         _______ _______ _______ _____ _____    ______ ____
ROOT
ATOM      1  N   UNK A  0       24.340 -23.973   5.885  0.00  0.00    -0.342 N 
ATOM      2  H   UNK A  0       23.674 -23.734   6.614  0.00  0.00    +0.146 HD
ENDROOT
BRANCH   1   3
ATOM      3  C   UNK A  0       24.651 -25.334   5.972  0.00  0.00    +0.027 A 
ATOM      4  C   UNK A  0       23.967 -26.355   5.306  0.00  0.00    +0.024 A 
ATOM      5  C   UNK A  0       24.244 -27.707   5.574  0.00  0.00    +0.015 A 
ATOM      6  C   UNK A  0       25.202 -28.062   6.533  0.00  0.00    +0.037 A 
ATOM      7  C   UNK A  0       25.939 -27.049   7.153  0.00  0.00    +0.015 A 
ATOM      8  C   UNK A  0       25.643 -25.707   6.890  0.00  0.00    +0.024 A 
BRANCH   6   9
ATOM      9  C   UNK A  0       25.385 -29.502   6.896  0.00  0.00    +0.245 C 
ATOM     10  N   GLU A  1       25.340 -30.416   5.858  0.00  0.00    -0.298 N 
ATOM     11  H   GLU A  1       25.213 -30.081   4.906  0.00  0.00    +0.150 HD
ATOM     12  O   UNK A  0       25.575 -29.837   8.068  0.00  0.00    -0.270 OA
BRANCH  10  13
ATOM     13  CA  GLU A  1       25.631 -31.864   6.038  0.00  0.00    +0.182 C 
BRANCH  13  14
ATOM     14  C   GLU A  1       24.304 -32.651   6.079  0.00  0.00    +0.325 C 
ATOM     15  O   GLU A  1       24.198 -33.821   6.421  0.00  0.00    -0.249 OA
BRANCH  14  16
ATOM     16  OXT GLU A  1       23.241 -31.954   5.613  0.00  0.00    -0.479 OA
ATOM     17  HXT GLU A  1       23.303 -31.029   5.926  0.00  0.00    +0.295 HD
ENDBRANCH  14  16
ENDBRANCH  13  14
BRANCH  13  18
ATOM     18  CB  GLU A  1       26.534 -32.379   4.895  0.00  0.00    +0.045 C 
BRANCH  18  19
ATOM     19  CG  GLU A  1       25.863 -32.341   3.517  0.00  0.00    +0.123 C 
BRANCH  19  20
ATOM     20  CD  GLU A  1       26.723 -32.994   2.465  0.00  0.00    +0.305 C 
ATOM     21  OE1 GLU A  1       27.774 -33.556   2.701  0.00  0.00    -0.251 OA
BRANCH  20  22
ATOM     22  OE2 GLU A  1       26.226 -32.863   1.213  0.00  0.00    -0.481 OA
ATOM     23  HE2 GLU A  1       26.750 -32.284   0.629  0.00  0.00    +0.295 HD
ENDBRANCH  20  22
ENDBRANCH  19  20
ENDBRANCH  18  19
ENDBRANCH  13  18
ENDBRANCH  10  13
ENDBRANCH   6   9
ENDBRANCH   1   3
BRANCH   1  24
ATOM     24  C   UNK A  0       25.397 -22.975   5.705  0.00  0.00    +0.126 C 
BRANCH  24  32
ATOM     25  C   UNK A  0       29.904 -20.638   7.806  0.00  0.00    +0.195 C 
ATOM     26  N   UNK A  0       29.720 -19.887   6.697  0.00  0.00    -0.294 N 
ATOM     27  H   UNK A  0       30.475 -19.350   6.307  0.00  0.00    +0.172 HD
ATOM     28  C   UNK A  0       28.527 -19.821   6.043  0.00  0.00    +0.276 C 
ATOM     29  O   UNK A  0       28.447 -19.186   4.997  0.00  0.00    -0.266 OA
ATOM     30  C   UNK A  0       27.400 -20.603   6.645  0.00  0.00    +0.142 C 
ATOM     31  N   UNK A  0       26.098 -20.625   6.097  0.00  0.00    -0.261 N 
ATOM     32  C   UNK A  0       25.171 -21.697   6.563  0.00  0.00    +0.115 C 
ATOM     33  C   UNK A  0       25.351 -21.944   8.072  0.00  0.00    +0.127 C 
ATOM     34  N   UNK A  0       26.759 -22.128   8.364  0.00  0.00    -0.326 N 
ATOM     35  H   UNK A  0       27.011 -22.302   9.334  0.00  0.00    +0.148 HD
ATOM     36  C   UNK A  0       25.634 -19.804   5.079  0.00  0.00    +0.333 C 
ATOM     37  O   UNK A  0       24.507 -19.867   4.594  0.00  0.00    -0.279 OA
ATOM     38  C   UNK A  0       27.719 -21.332   7.752  0.00  0.00    +0.149 C 
ATOM     39  N   UNK A  0       28.959 -21.335   8.337  0.00  0.00    -0.199 NA
BRANCH  25  40
ATOM     40  N   UNK A  0       31.147 -20.639   8.344  0.00  0.00    -0.329 N 
ATOM     41  H   UNK A  0       31.549 -21.545   8.549  0.00  0.00    +0.145 HD
ATOM     42  H   UNK A  0       31.216 -20.000   9.130  0.00  0.00    +0.145 HD
ENDBRANCH  25  40
ENDBRANCH  24  32
ENDBRANCH   1  24
TORSDOF 12
ENDMDL
MODEL 4
REMARK VINA RESULT:      -8.5      2.484      3.587
REMARK  Name = *****
REMARK                            x       y       z     vdW  Elec       q    Type
REMARK                         _______ _______ _______ _____ _____    ______ ____
ROOT
ATOM      1  N   UNK A  0       25.592 -29.217   5.739  0.00  0.00    -0.342 N 
ATOM      2  H   UNK A  0       26.559 -29.470   5.920  0.00  0.00    +0.146 HD
ENDROOT
BRANCH   1   3
ATOM      3  C   UNK A  0       25.434 -27.838   5.915  0.00  0.00    +0.027 A 
ATOM      4  C   UNK A  0       26.203 -27.048   6.773  0.00  0.00    +0.024 A 
ATOM      5  C   UNK A  0       25.874 -25.702   7.008  0.00  0.00    +0.015 A 
ATOM      6  C   UNK A  0       24.751 -25.125   6.399  0.00  0.00    +0.037 A 
ATOM      7  C   UNK A  0       24.018 -25.888   5.486  0.00  0.00    +0.015 A 
ATOM      8  C   UNK A  0       24.346 -27.232   5.273  0.00  0.00    +0.024 A 
BRANCH   6   9
ATOM      9  C   UNK A  0       24.345 -23.733   6.765  0.00  0.00    +0.245 C 
ATOM     10  N   GLU A  1       25.354 -22.787   6.830  0.00  0.00    -0.298 N 
ATOM     11  H   GLU A  1       26.307 -23.061   6.606  0.00  0.00    +0.150 HD
ATOM     12  O   UNK A  0       23.163 -23.460   6.988  0.00  0.00    -0.270 OA
BRANCH  10  13
ATOM     13  CA  GLU A  1       25.094 -21.339   7.055  0.00  0.00    +0.182 C 
BRANCH  13  14
ATOM     14  C   GLU A  1       26.034 -20.818   8.163  0.00  0.00    +0.325 C 
ATOM     15  O   GLU A  1       25.761 -20.800   9.356  0.00  0.00    -0.249 OA
BRANCH  14  16
ATOM     16  OXT GLU A  1       27.189 -20.288   7.695  0.00  0.00    -0.479 OA
ATOM     17  HXT GLU A  1       27.547 -19.665   8.359  0.00  0.00    +0.295 HD
ENDBRANCH  14  16
ENDBRANCH  13  14
BRANCH  13  18
ATOM     18  CB  GLU A  1       25.304 -20.545   5.746  0.00  0.00    +0.045 C 
BRANCH  18  19
ATOM     19  CG  GLU A  1       24.254 -20.843   4.671  0.00  0.00    +0.123 C 
BRANCH  19  20
ATOM     20  CD  GLU A  1       22.864 -20.500   5.144  0.00  0.00    +0.305 C 
ATOM     21  OE1 GLU A  1       22.538 -19.403   5.553  0.00  0.00    -0.251 OA
BRANCH  20  22
ATOM     22  OE2 GLU A  1       22.012 -21.550   5.105  0.00  0.00    -0.481 OA
ATOM     23  HE2 GLU A  1       21.876 -21.993   5.963  0.00  0.00    +0.295 HD
ENDBRANCH  20  22
ENDBRANCH  19  20
ENDBRANCH  18  19
ENDBRANCH  13  18
ENDBRANCH  10  13
ENDBRANCH   6   9
ENDBRANCH   1   3
BRANCH   1  24
ATOM     24  C   UNK A  0       24.623 -30.158   6.305  0.00  0.00    +0.126 C 
BRANCH  24  32
ATOM     25  C   UNK A  0       25.165 -32.179  11.386  0.00  0.00    +0.195 C 
ATOM     26  N   UNK A  0       23.970 -32.701  11.028  0.00  0.00    -0.294 N 
ATOM     27  H   UNK A  0       23.320 -33.025  11.724  0.00  0.00    +0.172 HD
ATOM     28  C   UNK A  0       23.571 -32.807   9.731  0.00  0.00    +0.276 C 
ATOM     29  O   UNK A  0       22.442 -33.214   9.477  0.00  0.00    -0.266 OA
ATOM     30  C   UNK A  0       24.554 -32.347   8.698  0.00  0.00    +0.142 C 
ATOM     31  N   UNK A  0       24.299 -32.406   7.310  0.00  0.00    -0.261 N 
ATOM     32  C   UNK A  0       25.181 -31.606   6.412  0.00  0.00    +0.115 C 
ATOM     33  C   UNK A  0       26.639 -31.655   6.907  0.00  0.00    +0.127 C 
ATOM     34  N   UNK A  0       26.678 -31.328   8.318  0.00  0.00    -0.326 N 
ATOM     35  H   UNK A  0       27.590 -31.324   8.766  0.00  0.00    +0.148 HD
ATOM     36  C   UNK A  0       23.230 -33.056   6.711  0.00  0.00    +0.333 C 
ATOM     37  O   UNK A  0       23.009 -33.063   5.502  0.00  0.00    -0.279 OA
ATOM     38  C   UNK A  0       25.715 -31.826   9.188  0.00  0.00    +0.149 C 
ATOM     39  N   UNK A  0       26.023 -31.759  10.522  0.00  0.00    -0.199 NA
BRANCH  25  40
ATOM     40  N   UNK A  0       25.427 -32.104  12.712  0.00  0.00    -0.329 N 
ATOM     41  H   UNK A  0       26.400 -32.013  12.975  0.00  0.00    +0.145 HD
ATOM     42  H   UNK A  0       24.956 -32.841  13.230  0.00  0.00    +0.145 HD
ENDBRANCH  25  40
ENDBRANCH  24  32
ENDBRANCH   1  24
TORSDOF 12
ENDMDL
MODEL 5
REMARK VINA RESULT:      -8.4      1.592      2.278
REMARK  Name = *****
REMARK                            x       y       z     vdW  Elec       q    Type
REMARK                         _______ _______ _______ _____ _____    ______ ____
ROOT
ATOM      1  N   UNK A  0       25.434 -29.088   6.770  0.00  0.00    -0.342 N 
ATOM      2  H   UNK A  0       26.334 -29.292   7.195  0.00  0.00    +0.146 HD
ENDROOT
BRANCH   1   3
ATOM      3  C   UNK A  0       25.347 -27.717   6.511  0.00  0.00    +0.027 A 
ATOM      4  C   UNK A  0       26.175 -26.742   7.074  0.00  0.00    +0.024 A 
ATOM      5  C   UNK A  0       25.915 -25.373   6.884  0.00  0.00    +0.015 A 
ATOM      6  C   UNK A  0       24.805 -24.954   6.139  0.00  0.00    +0.037 A 
ATOM      7  C   UNK A  0       24.012 -25.922   5.515  0.00  0.00    +0.015 A 
ATOM      8  C   UNK A  0       24.271 -27.281   5.725  0.00  0.00    +0.024 A 
BRANCH   6   9
ATOM      9  C   UNK A  0       24.475 -23.498   6.061  0.00  0.00    +0.245 C 
ATOM     10  N   GLU A  1       25.384 -22.688   5.401  0.00  0.00    -0.298 N 
ATOM     11  H   GLU A  1       26.209 -23.107   4.981  0.00  0.00    +0.150 HD
ATOM     12  O   UNK A  0       23.435 -23.060   6.559  0.00  0.00    -0.270 OA
BRANCH  10  13
ATOM     13  CA  GLU A  1       25.137 -21.246   5.129  0.00  0.00    +0.182 C 
BRANCH  13  14
ATOM     14  C   GLU A  1       23.842 -21.096   4.302  0.00  0.00    +0.325 C 
ATOM     15  O   GLU A  1       23.754 -21.313   3.101  0.00  0.00    -0.249 OA
BRANCH  14  16
ATOM     16  OXT GLU A  1       22.795 -20.611   5.010  0.00  0.00    -0.479 OA
ATOM     17  HXT GLU A  1       23.029 -20.599   5.959  0.00  0.00    +0.295 HD
ENDBRANCH  14  16
ENDBRANCH  13  14
BRANCH  13  18
ATOM     18  CB  GLU A  1       25.030 -20.458   6.454  0.00  0.00    +0.045 C 
BRANCH  18  19
ATOM     19  CG  GLU A  1       26.326 -20.451   7.272  0.00  0.00    +0.123 C 
BRANCH  19  20
ATOM     20  CD  GLU A  1       26.118 -21.041   8.643  0.00  0.00    +0.305 C 
ATOM     21  OE1 GLU A  1       25.905 -20.380   9.641  0.00  0.00    -0.251 OA
BRANCH  20  22
ATOM     22  OE2 GLU A  1       26.227 -22.390   8.668  0.00  0.00    -0.481 OA
ATOM     23  HE2 GLU A  1       25.428 -22.865   8.376  0.00  0.00    +0.295 HD
ENDBRANCH  20  22
ENDBRANCH  19  20
ENDBRANCH  18  19
ENDBRANCH  13  18
ENDBRANCH  10  13
ENDBRANCH   6   9
ENDBRANCH   1   3
BRANCH   1  24
ATOM     24  C   UNK A  0       24.316 -29.806   7.387  0.00  0.00    +0.126 C 
BRANCH  24  32
ATOM     25  C   UNK A  0       26.702 -27.986  11.991  0.00  0.00    +0.195 C 
ATOM     26  N   UNK A  0       25.434 -28.180  12.418  0.00  0.00    -0.294 N 
ATOM     27  H   UNK A  0       25.094 -27.723  13.247  0.00  0.00    +0.172 HD
ATOM     28  C   UNK A  0       24.548 -28.977  11.759  0.00  0.00    +0.276 C 
ATOM     29  O   UNK A  0       23.389 -29.047  12.154  0.00  0.00    -0.266 OA
ATOM     30  C   UNK A  0       25.068 -29.675  10.540  0.00  0.00    +0.142 C 
ATOM     31  N   UNK A  0       24.281 -30.548   9.757  0.00  0.00    -0.261 N 
ATOM     32  C   UNK A  0       24.783 -30.895   8.395  0.00  0.00    +0.115 C 
ATOM     33  C   UNK A  0       26.311 -31.082   8.417  0.00  0.00    +0.127 C 
ATOM     34  N   UNK A  0       26.926 -29.941   9.066  0.00  0.00    -0.326 N 
ATOM     35  H   UNK A  0       27.939 -29.943   9.142  0.00  0.00    +0.148 HD
ATOM     36  C   UNK A  0       23.026 -31.029  10.096  0.00  0.00    +0.333 C 
ATOM     37  O   UNK A  0       22.344 -31.761   9.381  0.00  0.00    -0.279 OA
ATOM     38  C   UNK A  0       26.357 -29.383  10.205  0.00  0.00    +0.149 C 
ATOM     39  N   UNK A  0       27.172 -28.558  10.936  0.00  0.00    -0.199 NA
BRANCH  25  40
ATOM     40  N   UNK A  0       27.471 -27.145  12.721  0.00  0.00    -0.329 N 
ATOM     41  H   UNK A  0       27.000 -26.358  13.147  0.00  0.00    +0.145 HD
ATOM     42  H   UNK A  0       28.306 -26.865  12.214  0.00  0.00    +0.145 HD
ENDBRANCH  25  40
ENDBRANCH  24  32
ENDBRANCH   1  24
TORSDOF 12
ENDMDL
MODEL 6
REMARK VINA RESULT:      -8.4      4.530      8.412
REMARK  Name = *****
REMARK                            x       y       z     vdW  Elec       q    Type
REMARK                         _______ _______ _______ _____ _____    ______ ____
ROOT
ATOM      1  N   UNK A  0       26.994 -20.958   5.526  0.00  0.00    -0.342 N 
ATOM      2  H   UNK A  0       26.759 -21.885   5.871  0.00  0.00    +0.146 HD
ENDROOT
BRANCH   1   3
ATOM      3  C   UNK A  0       27.913 -20.361   6.394  0.00  0.00    +0.027 A 
ATOM      4  C   UNK A  0       28.629 -19.192   6.121  0.00  0.00    +0.024 A 
ATOM      5  C   UNK A  0       29.648 -18.750   6.982  0.00  0.00    +0.015 A 
ATOM      6  C   UNK A  0       29.984 -19.484   8.127  0.00  0.00    +0.037 A 
ATOM      7  C   UNK A  0       29.227 -20.615   8.444  0.00  0.00    +0.015 A 
ATOM      8  C   UNK A  0       28.225 -21.055   7.571  0.00  0.00    +0.024 A 
BRANCH   6   9
ATOM      9  C   UNK A  0       31.157 -19.066   8.955  0.00  0.00    +0.245 C 
ATOM     10  N   GLU A  1       31.078 -17.827   9.567  0.00  0.00    -0.298 N 
ATOM     11  H   GLU A  1       30.234 -17.271   9.456  0.00  0.00    +0.150 HD
ATOM     12  O   UNK A  0       32.135 -19.807   9.081  0.00  0.00    -0.270 OA
BRANCH  10  13
ATOM     13  CA  GLU A  1       32.103 -17.326  10.522  0.00  0.00    +0.182 C 
BRANCH  13  14
ATOM     14  C   GLU A  1       32.683 -15.995   9.998  0.00  0.00    +0.325 C 
ATOM     15  O   GLU A  1       33.017 -15.055  10.706  0.00  0.00    -0.249 OA
BRANCH  14  16
ATOM     16  OXT GLU A  1       32.719 -15.910   8.647  0.00  0.00    -0.479 OA
ATOM     17  HXT GLU A  1       31.820 -15.715   8.315  0.00  0.00    +0.295 HD
ENDBRANCH  14  16
ENDBRANCH  13  14
BRANCH  13  18
ATOM     18  CB  GLU A  1       31.485 -17.135  11.925  0.00  0.00    +0.045 C 
BRANCH  18  19
ATOM     19  CG  GLU A  1       32.492 -17.298  13.069  0.00  0.00    +0.123 C 
BRANCH  19  20
ATOM     20  CD  GLU A  1       32.340 -16.208  14.100  0.00  0.00    +0.305 C 
ATOM     21  OE1 GLU A  1       32.441 -16.388  15.297  0.00  0.00    -0.251 OA
BRANCH  20  22
ATOM     22  OE2 GLU A  1       32.040 -15.002  13.562  0.00  0.00    -0.481 OA
ATOM     23  HE2 GLU A  1       31.711 -15.039  12.645  0.00  0.00    +0.295 HD
ENDBRANCH  20  22
ENDBRANCH  19  20
ENDBRANCH  18  19
ENDBRANCH  13  18
ENDBRANCH  10  13
ENDBRANCH   6   9
ENDBRANCH   1   3
BRANCH   1  24
ATOM     24  C   UNK A  0       25.839 -20.208   5.027  0.00  0.00    +0.126 C 
BRANCH  24  32
ATOM     25  C   UNK A  0       25.501 -25.690   5.188  0.00  0.00    +0.195 C 
ATOM     26  N   UNK A  0       25.802 -25.414   6.477  0.00  0.00    -0.294 N 
ATOM     27  H   UNK A  0       26.191 -26.120   7.078  0.00  0.00    +0.172 HD
ATOM     28  C   UNK A  0       25.616 -24.183   7.029  0.00  0.00    +0.276 C 
ATOM     29  O   UNK A  0       25.985 -23.975   8.180  0.00  0.00    -0.266 OA
ATOM     30  C   UNK A  0       25.013 -23.143   6.136  0.00  0.00    +0.142 C 
ATOM     31  N   UNK A  0       24.742 -21.824   6.562  0.00  0.00    -0.261 N 
ATOM     32  C   UNK A  0       24.483 -20.798   5.509  0.00  0.00    +0.115 C 
ATOM     33  C   UNK A  0       23.647 -21.402   4.365  0.00  0.00    +0.127 C 
ATOM     34  N   UNK A  0       24.255 -22.643   3.929  0.00  0.00    -0.326 N 
ATOM     35  H   UNK A  0       23.795 -23.141   3.172  0.00  0.00    +0.148 HD
ATOM     36  C   UNK A  0       24.802 -21.367   7.870  0.00  0.00    +0.333 C 
ATOM     37  O   UNK A  0       24.596 -20.205   8.212  0.00  0.00    -0.279 OA
ATOM     38  C   UNK A  0       24.771 -23.542   4.854  0.00  0.00    +0.149 C 
ATOM     39  N   UNK A  0       24.998 -24.812   4.391  0.00  0.00    -0.199 NA
BRANCH  25  40
ATOM     40  N   UNK A  0       25.762 -26.946   4.755  0.00  0.00    -0.329 N 
ATOM     41  H   UNK A  0       26.502 -27.443   5.234  0.00  0.00    +0.145 HD
ATOM     42  H   UNK A  0       25.865 -26.981   3.745  0.00  0.00    +0.145 HD
ENDBRANCH  25  40
ENDBRANCH  24  32
ENDBRANCH   1  24
TORSDOF 12
ENDMDL
MODEL 7
REMARK VINA RESULT:      -8.4      1.456      2.053
REMARK  Name = *****
REMARK                            x       y       z     vdW  Elec       q    Type
REMARK                         _______ _______ _______ _____ _____    ______ ____
ROOT
ATOM      1  N   UNK A  0       25.577 -29.179   5.791  0.00  0.00    -0.342 N 
ATOM      2  H   UNK A  0       26.482 -29.430   6.178  0.00  0.00    +0.146 HD
ENDROOT
BRANCH   1   3
ATOM      3  C   UNK A  0       25.331 -27.824   6.034  0.00  0.00    +0.027 A 
ATOM      4  C   UNK A  0       24.220 -27.116   5.568  0.00  0.00    +0.024 A 
ATOM      5  C   UNK A  0       24.132 -25.722   5.724  0.00  0.00    +0.015 A 
ATOM      6  C   UNK A  0       25.169 -25.006   6.335  0.00  0.00    +0.037 A 
ATOM      7  C   UNK A  0       26.251 -25.714   6.866  0.00  0.00    +0.015 A 
ATOM      8  C   UNK A  0       26.336 -27.099   6.690  0.00  0.00    +0.024 A 
BRANCH   6   9
ATOM      9  C   UNK A  0       25.114 -23.511   6.372  0.00  0.00    +0.245 C 
ATOM     10  N   GLU A  1       26.151 -22.865   7.023  0.00  0.00    -0.298 N 
ATOM     11  H   GLU A  1       26.908 -23.416   7.420  0.00  0.00    +0.150 HD
ATOM     12  O   UNK A  0       24.185 -22.902   5.836  0.00  0.00    -0.270 OA
BRANCH  10  13
ATOM     13  CA  GLU A  1       26.304 -21.385   7.035  0.00  0.00    +0.182 C 
BRANCH  13  14
ATOM     14  C   GLU A  1       25.514 -20.799   8.224  0.00  0.00    +0.325 C 
ATOM     15  O   GLU A  1       25.994 -20.540   9.319  0.00  0.00    -0.249 OA
BRANCH  14  16
ATOM     16  OXT GLU A  1       24.188 -20.664   7.986  0.00  0.00    -0.479 OA
ATOM     17  HXT GLU A  1       23.803 -21.546   7.812  0.00  0.00    +0.295 HD
ENDBRANCH  14  16
ENDBRANCH  13  14
BRANCH  13  18
ATOM     18  CB  GLU A  1       27.798 -20.999   7.132  0.00  0.00    +0.045 C 
BRANCH  18  19
ATOM     19  CG  GLU A  1       28.236 -19.968   6.086  0.00  0.00    +0.123 C 
BRANCH  19  20
ATOM     20  CD  GLU A  1       29.586 -19.386   6.415  0.00  0.00    +0.305 C 
ATOM     21  OE1 GLU A  1       29.933 -18.262   6.110  0.00  0.00    -0.251 OA
BRANCH  20  22
ATOM     22  OE2 GLU A  1       30.400 -20.254   7.060  0.00  0.00    -0.481 OA
ATOM     23  HE2 GLU A  1       29.935 -20.965   7.538  0.00  0.00    +0.295 HD
ENDBRANCH  20  22
ENDBRANCH  19  20
ENDBRANCH  18  19
ENDBRANCH  13  18
ENDBRANCH  10  13
ENDBRANCH   6   9
ENDBRANCH   1   3
BRANCH   1  24
ATOM     24  C   UNK A  0       24.538 -30.183   6.028  0.00  0.00    +0.126 C 
BRANCH  24  32
ATOM     25  C   UNK A  0       23.891 -29.711  11.465  0.00  0.00    +0.195 C 
ATOM     26  N   UNK A  0       22.802 -30.443  11.139  0.00  0.00    -0.294 N 
ATOM     27  H   UNK A  0       22.008 -30.487  11.755  0.00  0.00    +0.172 HD
ATOM     28  C   UNK A  0       22.706 -31.143   9.976  0.00  0.00    +0.276 C 
ATOM     29  O   UNK A  0       21.659 -31.722   9.703  0.00  0.00    -0.266 OA
ATOM     30  C   UNK A  0       23.903 -31.096   9.076  0.00  0.00    +0.142 C 
ATOM     31  N   UNK A  0       23.968 -31.781   7.843  0.00  0.00    -0.261 N 
ATOM     32  C   UNK A  0       25.040 -31.380   6.886  0.00  0.00    +0.115 C 
ATOM     33  C   UNK A  0       26.347 -31.074   7.641  0.00  0.00    +0.127 C 
ATOM     34  N   UNK A  0       26.070 -30.158   8.730  0.00  0.00    -0.326 N 
ATOM     35  H   UNK A  0       26.857 -29.876   9.307  0.00  0.00    +0.148 HD
ATOM     36  C   UNK A  0       23.055 -32.722   7.390  0.00  0.00    +0.333 C 
ATOM     37  O   UNK A  0       23.113 -33.279   6.296  0.00  0.00    -0.279 OA
ATOM     38  C   UNK A  0       24.929 -30.309   9.509  0.00  0.00    +0.149 C 
ATOM     39  N   UNK A  0       24.928 -29.636  10.703  0.00  0.00    -0.199 NA
BRANCH  25  40
ATOM     40  N   UNK A  0       23.847 -29.038  12.639  0.00  0.00    -0.329 N 
ATOM     41  H   UNK A  0       23.656 -29.588  13.466  0.00  0.00    +0.145 HD
ATOM     42  H   UNK A  0       23.255 -28.216  12.578  0.00  0.00    +0.145 HD
ENDBRANCH  25  40
ENDBRANCH  24  32
ENDBRANCH   1  24
TORSDOF 12
ENDMDL
MODEL 8
REMARK VINA RESULT:      -8.4      3.235      9.602
REMARK  Name = *****
REMARK                            x       y       z     vdW  Elec       q    Type
REMARK                         _______ _______ _______ _____ _____    ______ ____
ROOT
ATOM      1  N   UNK A  0       25.868 -24.116   6.242  0.00  0.00    -0.342 N 
ATOM      2  H   UNK A  0       26.830 -24.045   5.924  0.00  0.00    +0.146 HD
ENDROOT
BRANCH   1   3
ATOM      3  C   UNK A  0       25.518 -25.465   6.355  0.00  0.00    +0.027 A 
ATOM      4  C   UNK A  0       26.083 -26.365   7.262  0.00  0.00    +0.024 A 
ATOM      5  C   UNK A  0       25.787 -27.738   7.200  0.00  0.00    +0.015 A 
ATOM      6  C   UNK A  0       24.930 -28.239   6.211  0.00  0.00    +0.037 A 
ATOM      7  C   UNK A  0       24.306 -27.337   5.345  0.00  0.00    +0.015 A 
ATOM      8  C   UNK A  0       24.621 -25.975   5.405  0.00  0.00    +0.024 A 
BRANCH   6   9
ATOM      9  C   UNK A  0       24.733 -29.717   6.083  0.00  0.00    +0.245 C 
ATOM     10  N   GLU A  1       25.863 -30.475   5.827  0.00  0.00    -0.298 N 
ATOM     11  H   GLU A  1       26.767 -30.014   5.764  0.00  0.00    +0.150 HD
ATOM     12  O   UNK A  0       23.613 -30.217   6.210  0.00  0.00    -0.270 OA
BRANCH  10  13
ATOM     13  CA  GLU A  1       25.852 -31.963   5.800  0.00  0.00    +0.182 C 
BRANCH  13  14
ATOM     14  C   GLU A  1       26.066 -32.449   4.350  0.00  0.00    +0.325 C 
ATOM     15  O   GLU A  1       27.031 -33.097   3.968  0.00  0.00    -0.249 OA
BRANCH  14  16
ATOM     16  OXT GLU A  1       25.116 -32.021   3.486  0.00  0.00    -0.479 OA
ATOM     17  HXT GLU A  1       25.538 -31.481   2.788  0.00  0.00    +0.295 HD
ENDBRANCH  14  16
ENDBRANCH  13  14
BRANCH  13  18
ATOM     18  CB  GLU A  1       26.951 -32.527   6.729  0.00  0.00    +0.045 C 
BRANCH  18  19
ATOM     19  CG  GLU A  1       26.423 -33.000   8.088  0.00  0.00    +0.123 C 
BRANCH  19  20
ATOM     20  CD  GLU A  1       26.579 -31.934   9.143  0.00  0.00    +0.305 C 
ATOM     21  OE1 GLU A  1       26.312 -32.098  10.317  0.00  0.00    -0.251 OA
BRANCH  20  22
ATOM     22  OE2 GLU A  1       27.016 -30.752   8.649  0.00  0.00    -0.481 OA
ATOM     23  HE2 GLU A  1       27.859 -30.805   8.162  0.00  0.00    +0.295 HD
ENDBRANCH  20  22
ENDBRANCH  19  20
ENDBRANCH  18  19
ENDBRANCH  13  18
ENDBRANCH  10  13
ENDBRANCH   6   9
ENDBRANCH   1   3
BRANCH   1  24
ATOM     24  C   UNK A  0       24.964 -23.160   5.597  0.00  0.00    +0.126 C 
BRANCH  24  32
ATOM     25  C   UNK A  0       29.434 -20.728   7.669  0.00  0.00    +0.195 C 
ATOM     26  N   UNK A  0       29.225 -19.979   6.563  0.00  0.00    -0.294 N 
ATOM     27  H   UNK A  0       29.965 -19.425   6.168  0.00  0.00    +0.172 HD
ATOM     28  C   UNK A  0       28.026 -19.939   5.918  0.00  0.00    +0.276 C 
ATOM     29  O   UNK A  0       27.924 -19.304   4.873  0.00  0.00    -0.266 OA
ATOM     30  C   UNK A  0       26.921 -20.746   6.526  0.00  0.00    +0.142 C 
ATOM     31  N   UNK A  0       25.616 -20.796   5.988  0.00  0.00    -0.261 N 
ATOM     32  C   UNK A  0       24.717 -21.889   6.459  0.00  0.00    +0.115 C 
ATOM     33  C   UNK A  0       24.914 -22.135   7.966  0.00  0.00    +0.127 C 
ATOM     34  N   UNK A  0       26.327 -22.288   8.248  0.00  0.00    -0.326 N 
ATOM     35  H   UNK A  0       26.590 -22.458   9.215  0.00  0.00    +0.148 HD
ATOM     36  C   UNK A  0       25.127 -19.984   4.976  0.00  0.00    +0.333 C 
ATOM     37  O   UNK A  0       23.998 -20.071   4.498  0.00  0.00    -0.279 OA
ATOM     38  C   UNK A  0       27.265 -21.469   7.630  0.00  0.00    +0.149 C 
ATOM     39  N   UNK A  0       28.509 -21.446   8.206  0.00  0.00    -0.199 NA
BRANCH  25  40
ATOM     40  N   UNK A  0       30.681 -20.702   8.197  0.00  0.00    -0.329 N 
ATOM     41  H   UNK A  0       31.413 -21.130   7.645  0.00  0.00    +0.145 HD
ATOM     42  H   UNK A  0       30.687 -21.025   9.161  0.00  0.00    +0.145 HD
ENDBRANCH  25  40
ENDBRANCH  24  32
ENDBRANCH   1  24
TORSDOF 12
ENDMDL
MODEL 9
REMARK VINA RESULT:      -8.3      2.837      4.777
REMARK  Name = *****
REMARK                            x       y       z     vdW  Elec       q    Type
REMARK                         _______ _______ _______ _____ _____    ______ ____
ROOT
ATOM      1  N   UNK A  0       25.108 -29.312   6.236  0.00  0.00    -0.342 N 
ATOM      2  H   UNK A  0       25.345 -29.801   5.378  0.00  0.00    +0.146 HD
ENDROOT
BRANCH   1   3
ATOM      3  C   UNK A  0       25.241 -27.935   6.035  0.00  0.00    +0.027 A 
ATOM      4  C   UNK A  0       26.456 -27.263   5.873  0.00  0.00    +0.024 A 
ATOM      5  C   UNK A  0       26.508 -25.859   5.835  0.00  0.00    +0.015 A 
ATOM      6  C   UNK A  0       25.341 -25.098   5.980  0.00  0.00    +0.037 A 
ATOM      7  C   UNK A  0       24.114 -25.761   6.072  0.00  0.00    +0.015 A 
ATOM      8  C   UNK A  0       24.077 -27.159   6.125  0.00  0.00    +0.024 A 
BRANCH   6   9
ATOM      9  C   UNK A  0       25.436 -23.607   6.068  0.00  0.00    +0.245 C 
ATOM     10  N   GLU A  1       26.288 -23.094   7.032  0.00  0.00    -0.298 N 
ATOM     11  H   GLU A  1       26.824 -23.734   7.613  0.00  0.00    +0.150 HD
ATOM     12  O   UNK A  0       24.787 -22.888   5.306  0.00  0.00    -0.270 OA
BRANCH  10  13
ATOM     13  CA  GLU A  1       26.588 -21.643   7.160  0.00  0.00    +0.182 C 
BRANCH  13  14
ATOM     14  C   GLU A  1       25.697 -21.032   8.262  0.00  0.00    +0.325 C 
ATOM     15  O   GLU A  1       24.474 -21.015   8.239  0.00  0.00    -0.249 OA
BRANCH  14  16
ATOM     16  OXT GLU A  1       26.392 -20.421   9.251  0.00  0.00    -0.479 OA
ATOM     17  HXT GLU A  1       26.842 -21.100   9.791  0.00  0.00    +0.295 HD
ENDBRANCH  14  16
ENDBRANCH  13  14
BRANCH  13  18
ATOM     18  CB  GLU A  1       28.083 -21.428   7.488  0.00  0.00    +0.045 C 
BRANCH  18  19
ATOM     19  CG  GLU A  1       28.753 -20.351   6.629  0.00  0.00    +0.123 C 
BRANCH  19  20
ATOM     20  CD  GLU A  1       29.366 -19.267   7.479  0.00  0.00    +0.305 C 
ATOM     21  OE1 GLU A  1       29.163 -19.144   8.671  0.00  0.00    -0.251 OA
BRANCH  20  22
ATOM     22  OE2 GLU A  1       30.143 -18.412   6.775  0.00  0.00    -0.481 OA
ATOM     23  HE2 GLU A  1       30.915 -18.072   7.264  0.00  0.00    +0.295 HD
ENDBRANCH  20  22
ENDBRANCH  19  20
ENDBRANCH  18  19
ENDBRANCH  13  18
ENDBRANCH  10  13
ENDBRANCH   6   9
ENDBRANCH   1   3
BRANCH   1  24
ATOM     24  C   UNK A  0       25.647 -29.947   7.441  0.00  0.00    +0.126 C 
BRANCH  24  32
ATOM     25  C   UNK A  0       26.404 -33.335   3.182  0.00  0.00    +0.195 C 
ATOM     26  N   UNK A  0       27.477 -33.639   3.946  0.00  0.00    -0.294 N 
ATOM     27  H   UNK A  0       28.283 -34.091   3.546  0.00  0.00    +0.172 HD
ATOM     28  C   UNK A  0       27.541 -33.349   5.274  0.00  0.00    +0.276 C 
ATOM     29  O   UNK A  0       28.576 -33.578   5.893  0.00  0.00    -0.266 OA
ATOM     30  C   UNK A  0       26.329 -32.701   5.868  0.00  0.00    +0.142 C 
ATOM     31  N   UNK A  0       26.231 -32.352   7.233  0.00  0.00    -0.261 N 
ATOM     32  C   UNK A  0       25.145 -31.408   7.628  0.00  0.00    +0.115 C 
ATOM     33  C   UNK A  0       23.858 -31.709   6.839  0.00  0.00    +0.127 C 
ATOM     34  N   UNK A  0       24.168 -31.790   5.426  0.00  0.00    -0.326 N 
ATOM     35  H   UNK A  0       23.396 -31.984   4.794  0.00  0.00    +0.148 HD
ATOM     36  C   UNK A  0       27.122 -32.723   8.229  0.00  0.00    +0.333 C 
ATOM     37  O   UNK A  0       27.036 -32.377   9.405  0.00  0.00    -0.279 OA
ATOM     38  C   UNK A  0       25.321 -32.430   4.990  0.00  0.00    +0.149 C 
ATOM     39  N   UNK A  0       25.354 -32.761   3.660  0.00  0.00    -0.199 NA
BRANCH  25  40
ATOM     40  N   UNK A  0       26.480 -33.651   1.867  0.00  0.00    -0.329 N 
ATOM     41  H   UNK A  0       25.604 -33.848   1.400  0.00  0.00    +0.145 HD
ATOM     42  H   UNK A  0       27.178 -34.369   1.694  0.00  0.00    +0.145 HD
ENDBRANCH  25  40
ENDBRANCH  24  32
ENDBRANCH   1  24
TORSDOF 12
ENDMDL
