MODEL 1
REMARK VINA RESULT:      -3.9      0.000      0.000
REMARK  Name = *****
REMARK                            x       y       z     vdW  Elec       q    Type
REMARK                         _______ _______ _______ _____ _____    ______ ____
ROOT
ATOM      1  C   LIG    1       23.243 -17.978   4.438  0.00  0.00    -0.040 A 
ATOM      2  C   LIG    1       22.912 -16.619   4.478  0.00  0.00    +0.049 A 
ATOM      3  C   LIG    1       23.779 -15.648   3.957  0.00  0.00    +0.129 A 
ATOM      4  O   LIG    1       23.311 -14.365   4.025  0.00  0.00    -0.485 OA
ATOM      5  C   LIG    1       24.279 -13.305   3.850  0.00  0.00    +0.109 C 
ATOM      6  C   LIG    1       25.188 -13.618   2.627  0.00  0.00    +0.044 C 
ATOM      7  C   LIG    1       25.924 -14.965   2.790  0.00  0.00    +0.056 C 
ATOM      8  C   LIG    1       27.238 -14.820   3.534  0.00  0.00    -0.019 C 
ATOM      9  C   LIG    1       27.905 -13.657   3.678  0.00  0.00    -0.076 C 
ATOM     10  C   LIG    1       29.195 -13.571   4.442  0.00  0.00    +0.038 C 
ATOM     11  C   LIG    1       27.405 -12.366   3.087  0.00  0.00    +0.030 C 
ATOM     12  C   LIG    1       26.180 -12.525   2.188  0.00  0.00    +0.012 C 
ATOM     13  C   LIG    1       23.426 -12.054   3.557  0.00  0.00    +0.056 C 
ATOM     14  C   LIG    1       24.956 -13.087   5.211  0.00  0.00    +0.056 C 
ATOM     15  C   LIG    1       24.999 -16.010   3.378  0.00  0.00    +0.043 A 
ATOM     16  C   LIG    1       25.305 -17.379   3.312  0.00  0.00    +0.124 A 
ATOM     17  C   LIG    1       24.446 -18.353   3.831  0.00  0.00    +0.049 A 
ENDROOT
BRANCH  16  18
ATOM     18  O   LIG    1       26.471 -17.767   2.707  0.00  0.00    -0.506 OA
ATOM     19  H   LIG    1       26.506 -18.737   2.683  0.00  0.00    +0.292 HD
ENDBRANCH  16  18
BRANCH   1  20
ATOM     20  C   LIG    1       22.312 -19.017   5.017  0.00  0.00    +0.035 C 
BRANCH  20  21
ATOM     21  C   LIG    1       22.981 -20.389   5.149  0.00  0.00    +0.005 C 
BRANCH  21  22
ATOM     22  C   LIG    1       23.124 -20.819   6.615  0.00  0.00    +0.000 C 
BRANCH  22  24
ATOM     23  C   LIG    1       25.547 -20.978   5.891  0.00  0.00    +0.004 C 
ATOM     24  C   LIG    1       24.588 -20.809   7.060  0.00  0.00    -0.003 C 
ENDBRANCH  22  24
ENDBRANCH  21  22
ENDBRANCH  20  21
ENDBRANCH   1  20
TORSDOF 5
ENDMDL
MODEL 2
REMARK VINA RESULT:      -3.2      1.238      3.232
REMARK  Name = *****
REMARK                            x       y       z     vdW  Elec       q    Type
REMARK                         _______ _______ _______ _____ _____    ______ ____
ROOT
ATOM      1  C   LIG    1       24.510 -18.758   3.412  0.00  0.00    -0.040 A 
ATOM      2  C   LIG    1       25.695 -18.015   3.367  0.00  0.00    +0.049 A 
ATOM      3  C   LIG    1       25.704 -16.648   3.679  0.00  0.00    +0.129 A 
ATOM      4  O   LIG    1       26.936 -16.057   3.635  0.00  0.00    -0.485 OA
ATOM      5  C   LIG    1       26.968 -14.613   3.586  0.00  0.00    +0.109 C 
ATOM      6  C   LIG    1       25.987 -14.027   4.641  0.00  0.00    +0.044 C 
ATOM      7  C   LIG    1       24.541 -14.518   4.414  0.00  0.00    +0.056 C 
ATOM      8  C   LIG    1       23.778 -13.638   3.442  0.00  0.00    -0.019 C 
ATOM      9  C   LIG    1       24.126 -12.374   3.127  0.00  0.00    -0.076 C 
ATOM     10  C   LIG    1       23.339 -11.556   2.142  0.00  0.00    +0.038 C 
ATOM     11  C   LIG    1       25.323 -11.695   3.735  0.00  0.00    +0.030 C 
ATOM     12  C   LIG    1       26.000 -12.501   4.844  0.00  0.00    +0.012 C 
ATOM     13  C   LIG    1       28.418 -14.250   3.965  0.00  0.00    +0.056 C 
ATOM     14  C   LIG    1       26.767 -14.211   2.116  0.00  0.00    +0.056 C 
ATOM     15  C   LIG    1       24.528 -15.988   4.049  0.00  0.00    +0.043 A 
ATOM     16  C   LIG    1       23.352 -16.751   4.125  0.00  0.00    +0.124 A 
ATOM     17  C   LIG    1       23.335 -18.115   3.813  0.00  0.00    +0.049 A 
ENDROOT
BRANCH  16  18
ATOM     18  O   LIG    1       22.194 -16.142   4.531  0.00  0.00    -0.506 OA
ATOM     19  H   LIG    1       22.141 -15.262   4.124  0.00  0.00    +0.292 HD
ENDBRANCH  16  18
BRANCH   1  20
ATOM     20  C   LIG    1       24.504 -20.227   3.057  0.00  0.00    +0.035 C 
BRANCH  20  21
ATOM     21  C   LIG    1       24.250 -21.119   4.276  0.00  0.00    +0.005 C 
BRANCH  21  22
ATOM     22  C   LIG    1       25.322 -20.931   5.358  0.00  0.00    +0.000 C 
BRANCH  22  24
ATOM     23  C   LIG    1       23.181 -20.622   6.677  0.00  0.00    +0.004 C 
ATOM     24  C   LIG    1       24.694 -20.769   6.744  0.00  0.00    -0.003 C 
ENDBRANCH  22  24
ENDBRANCH  21  22
ENDBRANCH  20  21
ENDBRANCH   1  20
TORSDOF 5
ENDMDL
MODEL 3
REMARK VINA RESULT:      -1.9      1.420      6.804
REMARK  Name = *****
REMARK                            x       y       z     vdW  Elec       q    Type
REMARK                         _______ _______ _______ _____ _____    ______ ____
ROOT
ATOM      1  C   LIG    1       24.708 -14.588   4.030  0.00  0.00    -0.040 A 
ATOM      2  C   LIG    1       25.425 -15.650   3.468  0.00  0.00    +0.049 A 
ATOM      3  C   LIG    1       24.912 -16.954   3.478  0.00  0.00    +0.129 A 
ATOM      4  O   LIG    1       25.699 -17.885   2.858  0.00  0.00    -0.485 OA
ATOM      5  C   LIG    1       25.418 -19.274   3.144  0.00  0.00    +0.109 C 
ATOM      6  C   LIG    1       23.886 -19.532   3.057  0.00  0.00    +0.044 C 
ATOM      7  C   LIG    1       23.097 -18.636   4.035  0.00  0.00    +0.056 C 
ATOM      8  C   LIG    1       22.968 -19.257   5.413  0.00  0.00    -0.019 C 
ATOM      9  C   LIG    1       23.130 -20.571   5.672  0.00  0.00    -0.076 C 
ATOM     10  C   LIG    1       23.007 -21.127   7.062  0.00  0.00    +0.038 C 
ATOM     11  C   LIG    1       23.449 -21.569   4.592  0.00  0.00    +0.030 C 
ATOM     12  C   LIG    1       23.409 -20.991   3.177  0.00  0.00    +0.012 C 
ATOM     13  C   LIG    1       26.140 -20.048   2.023  0.00  0.00    +0.056 C 
ATOM     14  C   LIG    1       26.129 -19.612   4.463  0.00  0.00    +0.056 C 
ATOM     15  C   LIG    1       23.666 -17.232   4.048  0.00  0.00    +0.043 A 
ATOM     16  C   LIG    1       22.940 -16.153   4.578  0.00  0.00    +0.124 A 
ATOM     17  C   LIG    1       23.447 -14.848   4.573  0.00  0.00    +0.049 A 
ENDROOT
BRANCH  16  18
ATOM     18  O   LIG    1       21.695 -16.386   5.100  0.00  0.00    -0.506 OA
ATOM     19  H   LIG    1       21.725 -17.194   5.637  0.00  0.00    +0.292 HD
ENDBRANCH  16  18
BRANCH   1  20
ATOM     20  C   LIG    1       25.276 -13.187   4.032  0.00  0.00    +0.035 C 
BRANCH  20  21
ATOM     21  C   LIG    1       25.931 -12.826   5.368  0.00  0.00    +0.005 C 
BRANCH  21  22
ATOM     22  C   LIG    1       27.384 -13.314   5.445  0.00  0.00    +0.000 C 
BRANCH  22  24
ATOM     23  C   LIG    1       29.197 -12.627   3.814  0.00  0.00    +0.004 C 
ATOM     24  C   LIG    1       27.981 -13.511   4.050  0.00  0.00    -0.003 C 
ENDBRANCH  22  24
ENDBRANCH  21  22
ENDBRANCH  20  21
ENDBRANCH   1  20
TORSDOF 5
ENDMDL
MODEL 4
REMARK VINA RESULT:      -0.9      1.422      2.134
REMARK  Name = *****
REMARK                            x       y       z     vdW  Elec       q    Type
REMARK                         _______ _______ _______ _____ _____    ______ ____
ROOT
ATOM      1  C   LIG    1       25.429 -19.165   4.137  0.00  0.00    -0.040 A 
ATOM      2  C   LIG    1       24.656 -18.064   3.752  0.00  0.00    +0.049 A 
ATOM      3  C   LIG    1       25.244 -16.811   3.525  0.00  0.00    +0.129 A 
ATOM      4  O   LIG    1       24.377 -15.837   3.114  0.00  0.00    -0.485 OA
ATOM      5  C   LIG    1       24.836 -14.469   3.214  0.00  0.00    +0.109 C 
ATOM      6  C   LIG    1       26.281 -14.355   2.651  0.00  0.00    +0.044 C 
ATOM      7  C   LIG    1       27.263 -15.282   3.398  0.00  0.00    +0.056 C 
ATOM      8  C   LIG    1       27.856 -14.624   4.630  0.00  0.00    -0.019 C 
ATOM      9  C   LIG    1       27.880 -13.293   4.842  0.00  0.00    -0.076 C 
ATOM     10  C   LIG    1       28.466 -12.700   6.091  0.00  0.00    +0.038 C 
ATOM     11  C   LIG    1       27.321 -12.311   3.849  0.00  0.00    +0.030 C 
ATOM     12  C   LIG    1       26.880 -12.942   2.528  0.00  0.00    +0.012 C 
ATOM     13  C   LIG    1       23.864 -13.675   2.318  0.00  0.00    +0.056 C 
ATOM     14  C   LIG    1       24.592 -14.020   4.663  0.00  0.00    +0.056 C 
ATOM     15  C   LIG    1       26.622 -16.627   3.671  0.00  0.00    +0.043 A 
ATOM     16  C   LIG    1       27.392 -17.747   4.023  0.00  0.00    +0.124 A 
ATOM     17  C   LIG    1       26.812 -19.000   4.254  0.00  0.00    +0.049 A 
ENDROOT
BRANCH  16  18
ATOM     18  O   LIG    1       28.751 -17.609   4.127  0.00  0.00    -0.506 OA
ATOM     19  H   LIG    1       29.012 -17.741   5.052  0.00  0.00    +0.292 HD
ENDBRANCH  16  18
BRANCH   1  20
ATOM     20  C   LIG    1       24.786 -20.507   4.398  0.00  0.00    +0.035 C 
BRANCH  20  21
ATOM     21  C   LIG    1       24.460 -20.717   5.880  0.00  0.00    +0.005 C 
BRANCH  21  22
ATOM     22  C   LIG    1       23.006 -20.348   6.205  0.00  0.00    +0.000 C 
BRANCH  22  24
ATOM     23  C   LIG    1       21.692 -19.050   4.470  0.00  0.00    +0.004 C 
ATOM     24  C   LIG    1       22.119 -20.426   4.960  0.00  0.00    -0.003 C 
ENDBRANCH  22  24
ENDBRANCH  21  22
ENDBRANCH  20  21
ENDBRANCH   1  20
TORSDOF 5
ENDMDL
