MODEL 1
REMARK VINA RESULT:      -5.1      0.000      0.000
REMARK  Name = *****
REMARK                            x       y       z     vdW  Elec       q    Type
REMARK                         _______ _______ _______ _____ _____    ______ ____
ROOT
ATOM      1  O   LIG    1       25.311 -20.654   4.577  0.00  0.00    -0.474 OA
ENDROOT
BRANCH   1   2
ATOM      2  C   LIG    1       24.260 -19.765   4.515  0.00  0.00    +0.158 A 
ATOM      3  C   LIG    1       22.930 -20.020   4.897  0.00  0.00    +0.084 A 
ATOM      4 CL   LIG    1       22.317 -21.572   5.359  0.00  0.00    -0.080 Cl
ATOM      5  C   LIG    1       21.955 -19.015   4.817  0.00  0.00    +0.024 A 
ATOM      6  C   LIG    1       22.254 -17.770   4.278  0.00  0.00    +0.003 A 
ATOM      7  C   LIG    1       23.539 -17.525   3.810  0.00  0.00    +0.024 A 
ATOM      8  C   LIG    1       24.534 -18.507   3.935  0.00  0.00    +0.084 A 
ATOM      9 CL   LIG    1       26.109 -18.108   3.334  0.00  0.00    -0.080 Cl
ENDBRANCH   1   2
BRANCH   1  11
ATOM     10  C   LIG    1       24.875 -20.467   6.966  0.00  0.00    +0.065 C 
ATOM     11  C   LIG    1       25.740 -21.084   5.869  0.00  0.00    +0.284 C 
BRANCH  11  12
ATOM     12  C   LIG    1       27.205 -20.693   6.120  0.00  0.00    +0.322 C 
ATOM     13  N   LIG    1       27.849 -19.687   5.415  0.00  0.00    -0.231 N 
ATOM     14  H   LIG    1       27.617 -19.603   4.436  0.00  0.00    +0.291 HD
ATOM     15  C   LIG    1       29.243 -19.709   5.792  0.00  0.00    +0.273 C 
ATOM     16  C   LIG    1       29.210 -20.575   7.057  0.00  0.00    +0.333 C 
ATOM     17  N   LIG    1       27.900 -21.286   7.046  0.00  0.00    -0.080 NA
ENDBRANCH  11  12
ENDBRANCH   1  11
TORSDOF 3
ENDMDL
MODEL 2
REMARK VINA RESULT:      -4.4      0.235      2.299
REMARK  Name = *****
REMARK                            x       y       z     vdW  Elec       q    Type
REMARK                         _______ _______ _______ _____ _____    ______ ____
ROOT
ATOM      1  O   LIG    1       25.207 -20.884   4.570  0.00  0.00    -0.474 OA
ENDROOT
BRANCH   1   2
ATOM      2  C   LIG    1       24.284 -19.874   4.404  0.00  0.00    +0.158 A 
ATOM      3  C   LIG    1       24.522 -18.615   3.822  0.00  0.00    +0.084 A 
ATOM      4 CL   LIG    1       26.080 -18.022   3.357  0.00  0.00    -0.080 Cl
ATOM      5  C   LIG    1       23.484 -17.683   3.678  0.00  0.00    +0.024 A 
ATOM      6  C   LIG    1       22.216 -17.941   4.185  0.00  0.00    +0.003 A 
ATOM      7  C   LIG    1       21.981 -19.141   4.845  0.00  0.00    +0.024 A 
ATOM      8  C   LIG    1       23.000 -20.102   4.946  0.00  0.00    +0.084 A 
ATOM      9 CL   LIG    1       22.612 -21.572   5.775  0.00  0.00    -0.080 Cl
ENDBRANCH   1   2
BRANCH   1  11
ATOM     10  C   LIG    1       24.797 -20.456   6.932  0.00  0.00    +0.065 C 
ATOM     11  C   LIG    1       25.684 -21.136   5.892  0.00  0.00    +0.284 C 
BRANCH  11  12
ATOM     12  C   LIG    1       27.123 -20.624   6.063  0.00  0.00    +0.322 C 
ATOM     13  N   LIG    1       27.703 -19.703   5.205  0.00  0.00    -0.231 N 
ATOM     14  H   LIG    1       27.466 -19.785   4.227  0.00  0.00    +0.291 HD
ATOM     15  C   LIG    1       29.097 -19.582   5.565  0.00  0.00    +0.273 C 
ATOM     16  C   LIG    1       29.119 -20.243   6.948  0.00  0.00    +0.333 C 
ATOM     17  N   LIG    1       27.854 -21.025   7.061  0.00  0.00    -0.080 NA
ENDBRANCH  11  12
ENDBRANCH   1  11
TORSDOF 3
ENDMDL
MODEL 3
REMARK VINA RESULT:      -4.0      3.309      4.967
REMARK  Name = *****
REMARK                            x       y       z     vdW  Elec       q    Type
REMARK                         _______ _______ _______ _____ _____    ______ ____
ROOT
ATOM      1  O   LIG    1       24.404 -17.367   3.303  0.00  0.00    -0.474 OA
ENDROOT
BRANCH   1   2
ATOM      2  C   LIG    1       24.200 -18.586   3.913  0.00  0.00    +0.158 A 
ATOM      3  C   LIG    1       22.956 -19.165   4.221  0.00  0.00    +0.084 A 
ATOM      4 CL   LIG    1       21.428 -18.369   4.052  0.00  0.00    -0.080 Cl
ATOM      5  C   LIG    1       22.882 -20.435   4.812  0.00  0.00    +0.024 A 
ATOM      6  C   LIG    1       24.033 -21.116   5.190  0.00  0.00    +0.003 A 
ATOM      7  C   LIG    1       25.271 -20.523   4.978  0.00  0.00    +0.024 A 
ATOM      8  C   LIG    1       25.356 -19.277   4.338  0.00  0.00    +0.084 A 
ATOM      9 CL   LIG    1       26.943 -18.622   4.106  0.00  0.00    -0.080 Cl
ENDBRANCH   1   2
BRANCH   1  11
ATOM     10  C   LIG    1       23.089 -15.623   4.381  0.00  0.00    +0.065 C 
ATOM     11  C   LIG    1       24.478 -16.212   4.139  0.00  0.00    +0.284 C 
BRANCH  11  12
ATOM     12  C   LIG    1       25.367 -15.131   3.505  0.00  0.00    +0.322 C 
ATOM     13  N   LIG    1       24.959 -13.815   3.349  0.00  0.00    -0.231 N 
ATOM     14  H   LIG    1       23.990 -13.668   3.110  0.00  0.00    +0.291 HD
ATOM     15  C   LIG    1       25.969 -13.130   2.575  0.00  0.00    +0.273 C 
ATOM     16  C   LIG    1       27.144 -14.112   2.658  0.00  0.00    +0.333 C 
ATOM     17  N   LIG    1       26.573 -15.414   3.109  0.00  0.00    -0.080 NA
ENDBRANCH  11  12
ENDBRANCH   1  11
TORSDOF 3
ENDMDL
MODEL 4
REMARK VINA RESULT:      -3.8      3.229      5.234
REMARK  Name = *****
REMARK                            x       y       z     vdW  Elec       q    Type
REMARK                         _______ _______ _______ _____ _____    ______ ____
ROOT
ATOM      1  O   LIG    1       23.791 -17.375   3.504  0.00  0.00    -0.474 OA
ENDROOT
BRANCH   1   2
ATOM      2  C   LIG    1       23.768 -18.628   4.079  0.00  0.00    +0.158 A 
ATOM      3  C   LIG    1       24.887 -19.401   4.437  0.00  0.00    +0.084 A 
ATOM      4 CL   LIG    1       26.527 -18.996   4.059  0.00  0.00    -0.080 Cl
ATOM      5  C   LIG    1       24.729 -20.652   5.051  0.00  0.00    +0.024 A 
ATOM      6  C   LIG    1       23.467 -21.200   5.240  0.00  0.00    +0.003 A 
ATOM      7  C   LIG    1       22.349 -20.495   4.812  0.00  0.00    +0.024 A 
ATOM      8  C   LIG    1       22.496 -19.218   4.245  0.00  0.00    +0.084 A 
ATOM      9 CL   LIG    1       21.047 -18.410   3.751  0.00  0.00    -0.080 Cl
ENDBRANCH   1   2
BRANCH   1  11
ATOM     10  C   LIG    1       22.730 -15.548   4.717  0.00  0.00    +0.065 C 
ATOM     11  C   LIG    1       24.034 -16.258   4.359  0.00  0.00    +0.284 C 
BRANCH  11  12
ATOM     12  C   LIG    1       24.975 -15.247   3.686  0.00  0.00    +0.322 C 
ATOM     13  N   LIG    1       24.629 -13.921   3.471  0.00  0.00    -0.231 N 
ATOM     14  H   LIG    1       23.669 -13.741   3.219  0.00  0.00    +0.291 HD
ATOM     15  C   LIG    1       25.673 -13.317   2.677  0.00  0.00    +0.273 C 
ATOM     16  C   LIG    1       26.802 -14.347   2.811  0.00  0.00    +0.333 C 
ATOM     17  N   LIG    1       26.170 -15.601   3.312  0.00  0.00    -0.080 NA
ENDBRANCH  11  12
ENDBRANCH   1  11
TORSDOF 3
ENDMDL
MODEL 5
REMARK VINA RESULT:      -3.6      3.733      5.334
REMARK  Name = *****
REMARK                            x       y       z     vdW  Elec       q    Type
REMARK                         _______ _______ _______ _____ _____    ______ ____
ROOT
ATOM      1  O   LIG    1       26.222 -15.818   4.382  0.00  0.00    -0.474 OA
ENDROOT
BRANCH   1   2
ATOM      2  C   LIG    1       25.840 -14.682   3.701  0.00  0.00    +0.158 A 
ATOM      3  C   LIG    1       26.698 -13.732   3.117  0.00  0.00    +0.084 A 
ATOM      4 CL   LIG    1       28.419 -13.716   3.298  0.00  0.00    -0.080 Cl
ATOM      5  C   LIG    1       26.181 -12.632   2.417  0.00  0.00    +0.024 A 
ATOM      6  C   LIG    1       24.812 -12.404   2.355  0.00  0.00    +0.003 A 
ATOM      7  C   LIG    1       23.948 -13.279   3.002  0.00  0.00    +0.024 A 
ATOM      8  C   LIG    1       24.454 -14.412   3.660  0.00  0.00    +0.084 A 
ATOM      9 CL   LIG    1       23.302 -15.452   4.427  0.00  0.00    -0.080 Cl
ENDBRANCH   1   2
BRANCH   1  11
ATOM     10  C   LIG    1       25.539 -17.780   3.111  0.00  0.00    +0.065 C 
ATOM     11  C   LIG    1       26.699 -16.923   3.614  0.00  0.00    +0.284 C 
BRANCH  11  12
ATOM     12  C   LIG    1       27.637 -17.807   4.449  0.00  0.00    +0.322 C 
ATOM     13  N   LIG    1       27.343 -19.122   4.776  0.00  0.00    -0.231 N 
ATOM     14  H   LIG    1       26.377 -19.331   4.980  0.00  0.00    +0.291 HD
ATOM     15  C   LIG    1       28.356 -19.584   5.697  0.00  0.00    +0.273 C 
ATOM     16  C   LIG    1       29.438 -18.510   5.533  0.00  0.00    +0.333 C 
ATOM     17  N   LIG    1       28.783 -17.350   4.865  0.00  0.00    -0.080 NA
ENDBRANCH  11  12
ENDBRANCH   1  11
TORSDOF 3
ENDMDL
MODEL 6
REMARK VINA RESULT:      -3.2      3.747      4.870
REMARK  Name = *****
REMARK                            x       y       z     vdW  Elec       q    Type
REMARK                         _______ _______ _______ _____ _____    ______ ____
ROOT
ATOM      1  O   LIG    1       26.571 -15.569   4.446  0.00  0.00    -0.474 OA
ENDROOT
BRANCH   1   2
ATOM      2  C   LIG    1       25.855 -14.575   3.815  0.00  0.00    +0.158 A 
ATOM      3  C   LIG    1       24.454 -14.457   3.771  0.00  0.00    +0.084 A 
ATOM      4 CL   LIG    1       23.345 -15.649   4.358  0.00  0.00    -0.080 Cl
ATOM      5  C   LIG    1       23.844 -13.372   3.123  0.00  0.00    +0.024 A 
ATOM      6  C   LIG    1       24.603 -12.435   2.432  0.00  0.00    +0.003 A 
ATOM      7  C   LIG    1       25.984 -12.581   2.385  0.00  0.00    +0.024 A 
ATOM      8  C   LIG    1       26.605 -13.634   3.076  0.00  0.00    +0.084 A 
ATOM      9 CL   LIG    1       28.331 -13.729   2.969  0.00  0.00    -0.080 Cl
ENDBRANCH   1   2
BRANCH   1  11
ATOM     10  C   LIG    1       25.624 -17.466   3.245  0.00  0.00    +0.065 C 
ATOM     11  C   LIG    1       26.891 -16.737   3.690  0.00  0.00    +0.284 C 
BRANCH  11  12
ATOM     12  C   LIG    1       27.751 -17.706   4.515  0.00  0.00    +0.322 C 
ATOM     13  N   LIG    1       27.375 -19.015   4.775  0.00  0.00    -0.231 N 
ATOM     14  H   LIG    1       26.393 -19.178   4.940  0.00  0.00    +0.291 HD
ATOM     15  C   LIG    1       28.329 -19.571   5.707  0.00  0.00    +0.273 C 
ATOM     16  C   LIG    1       29.473 -18.553   5.624  0.00  0.00    +0.333 C 
ATOM     17  N   LIG    1       28.905 -17.332   4.986  0.00  0.00    -0.080 NA
ENDBRANCH  11  12
ENDBRANCH   1  11
TORSDOF 3
ENDMDL
MODEL 7
REMARK VINA RESULT:      -3.1      4.288      5.617
REMARK  Name = *****
REMARK                            x       y       z     vdW  Elec       q    Type
REMARK                         _______ _______ _______ _____ _____    ______ ____
ROOT
ATOM      1  O   LIG    1       25.605 -15.849   3.455  0.00  0.00    -0.474 OA
ENDROOT
BRANCH   1   2
ATOM      2  C   LIG    1       24.504 -16.607   3.790  0.00  0.00    +0.158 A 
ATOM      3  C   LIG    1       23.308 -16.133   4.359  0.00  0.00    +0.084 A 
ATOM      4 CL   LIG    1       23.054 -14.514   4.915  0.00  0.00    -0.080 Cl
ATOM      5  C   LIG    1       22.242 -17.006   4.622  0.00  0.00    +0.024 A 
ATOM      6  C   LIG    1       22.370 -18.373   4.411  0.00  0.00    +0.003 A 
ATOM      7  C   LIG    1       23.574 -18.877   3.935  0.00  0.00    +0.024 A 
ATOM      8  C   LIG    1       24.628 -18.004   3.619  0.00  0.00    +0.084 A 
ATOM      9 CL   LIG    1       26.086 -18.720   3.021  0.00  0.00    -0.080 Cl
ENDBRANCH   1   2
BRANCH   1  11
ATOM     10  C   LIG    1       25.082 -13.893   2.101  0.00  0.00    +0.065 C 
ATOM     11  C   LIG    1       25.465 -14.429   3.480  0.00  0.00    +0.284 C 
BRANCH  11  12
ATOM     12  C   LIG    1       26.772 -13.756   3.923  0.00  0.00    +0.322 C 
ATOM     13  N   LIG    1       27.795 -13.439   3.041  0.00  0.00    -0.231 N 
ATOM     14  H   LIG    1       27.964 -14.094   2.293  0.00  0.00    +0.291 HD
ATOM     15  C   LIG    1       28.921 -12.979   3.820  0.00  0.00    +0.273 C 
ATOM     16  C   LIG    1       28.270 -12.716   5.183  0.00  0.00    +0.333 C 
ATOM     17  N   LIG    1       26.958 -13.424   5.167  0.00  0.00    -0.080 NA
ENDBRANCH  11  12
ENDBRANCH   1  11
TORSDOF 3
ENDMDL
MODEL 8
REMARK VINA RESULT:      -3.0      1.554      2.024
REMARK  Name = *****
REMARK                            x       y       z     vdW  Elec       q    Type
REMARK                         _______ _______ _______ _____ _____    ______ ____
ROOT
ATOM      1  O   LIG    1       24.565 -19.227   3.597  0.00  0.00    -0.474 OA
ENDROOT
BRANCH   1   2
ATOM      2  C   LIG    1       24.018 -17.999   3.899  0.00  0.00    +0.158 A 
ATOM      3  C   LIG    1       22.671 -17.742   4.215  0.00  0.00    +0.084 A 
ATOM      4 CL   LIG    1       21.394 -18.905   4.110  0.00  0.00    -0.080 Cl
ATOM      5  C   LIG    1       22.245 -16.445   4.541  0.00  0.00    +0.024 A 
ATOM      6  C   LIG    1       23.119 -15.368   4.475  0.00  0.00    +0.003 A 
ATOM      7  C   LIG    1       24.433 -15.584   4.077  0.00  0.00    +0.024 A 
ATOM      8  C   LIG    1       24.882 -16.886   3.801  0.00  0.00    +0.084 A 
ATOM      9 CL   LIG    1       26.537 -17.059   3.325  0.00  0.00    -0.080 Cl
ENDBRANCH   1   2
BRANCH   1  11
ATOM     10  C   LIG    1       23.402 -19.986   5.598  0.00  0.00    +0.065 C 
ATOM     11  C   LIG    1       24.542 -20.231   4.612  0.00  0.00    +0.284 C 
BRANCH  11  12
ATOM     12  C   LIG    1       25.867 -20.257   5.389  0.00  0.00    +0.322 C 
ATOM     13  N   LIG    1       27.074 -19.857   4.836  0.00  0.00    -0.231 N 
ATOM     14  H   LIG    1       27.224 -20.087   3.864  0.00  0.00    +0.291 HD
ATOM     15  C   LIG    1       28.118 -20.170   5.783  0.00  0.00    +0.273 C 
ATOM     16  C   LIG    1       27.311 -20.426   7.062  0.00  0.00    +0.333 C 
ATOM     17  N   LIG    1       25.899 -20.635   6.633  0.00  0.00    -0.080 NA
ENDBRANCH  11  12
ENDBRANCH   1  11
TORSDOF 3
ENDMDL
MODEL 9
REMARK VINA RESULT:      -3.0      2.642      4.521
REMARK  Name = *****
REMARK                            x       y       z     vdW  Elec       q    Type
REMARK                         _______ _______ _______ _____ _____    ______ ____
ROOT
ATOM      1  O   LIG    1       24.555 -18.514   3.580  0.00  0.00    -0.474 OA
ENDROOT
BRANCH   1   2
ATOM      2  C   LIG    1       24.455 -17.149   3.735  0.00  0.00    +0.158 A 
ATOM      3  C   LIG    1       25.497 -16.215   3.585  0.00  0.00    +0.084 A 
ATOM      4 CL   LIG    1       27.161 -16.625   3.345  0.00  0.00    -0.080 Cl
ATOM      5  C   LIG    1       25.257 -14.841   3.736  0.00  0.00    +0.024 A 
ATOM      6  C   LIG    1       24.009 -14.372   4.125  0.00  0.00    +0.003 A 
ATOM      7  C   LIG    1       22.988 -15.283   4.368  0.00  0.00    +0.024 A 
ATOM      8  C   LIG    1       23.204 -16.656   4.167  0.00  0.00    +0.084 A 
ATOM      9 CL   LIG    1       21.870 -17.713   4.483  0.00  0.00    -0.080 Cl
ENDBRANCH   1   2
BRANCH   1  11
ATOM     10  C   LIG    1       26.328 -20.079   4.161  0.00  0.00    +0.065 C 
ATOM     11  C   LIG    1       25.132 -19.264   4.649  0.00  0.00    +0.284 C 
BRANCH  11  12
ATOM     12  C   LIG    1       24.103 -20.222   5.267  0.00  0.00    +0.322 C 
ATOM     13  N   LIG    1       24.054 -20.504   6.623  0.00  0.00    -0.231 N 
ATOM     14  H   LIG    1       24.939 -20.571   7.102  0.00  0.00    +0.291 HD
ATOM     15  C   LIG    1       23.085 -21.558   6.819  0.00  0.00    +0.273 C 
ATOM     16  C   LIG    1       22.340 -21.548   5.479  0.00  0.00    +0.333 C 
ATOM     17  N   LIG    1       23.201 -20.793   4.524  0.00  0.00    -0.080 NA
ENDBRANCH  11  12
ENDBRANCH   1  11
TORSDOF 3
ENDMDL
