MODEL 1
REMARK VINA RESULT:      -8.2      0.000      0.000
REMARK  Name = *****
REMARK                            x       y       z     vdW  Elec       q    Type
REMARK                         _______ _______ _______ _____ _____    ______ ____
ROOT
ATOM      1  N   LIG    1       26.987 -20.209   6.706  0.00  0.00    -0.297 N 
ATOM      2  C   LIG    1       26.047 -20.295   5.664  0.00  0.00    +0.226 C 
ATOM      3  O   LIG    1       26.420 -20.121   4.469  0.00  0.00    -0.275 OA
ENDROOT
BRANCH   1   5
ATOM      4  C   LIG    1       26.580 -21.911   8.519  0.00  0.00    +0.024 C 
ATOM      5  C   LIG    1       26.663 -20.433   8.122  0.00  0.00    +0.105 C 
ENDBRANCH   1   5
BRANCH   2   6
ATOM      6  C   LIG    1       24.554 -20.615   5.908  0.00  0.00    +0.130 C 
BRANCH   6   7
ATOM      7  C   LIG    1       24.209 -22.108   6.027  0.00  0.00    -0.033 A 
ATOM      8  C   LIG    1       23.078 -22.592   6.705  0.00  0.00    +0.004 A 
ATOM      9  C   LIG    1       22.858 -23.973   6.839  0.00  0.00    +0.000 A 
ATOM     10  C   LIG    1       23.762 -24.887   6.307  0.00  0.00    +0.000 A 
ATOM     11  C   LIG    1       24.893 -24.427   5.646  0.00  0.00    +0.000 A 
ATOM     12  C   LIG    1       25.118 -23.054   5.517  0.00  0.00    +0.004 A 
ENDBRANCH   6   7
BRANCH   6  13
ATOM     13  C   LIG    1       23.605 -19.950   4.855  0.00  0.00    +0.173 C 
BRANCH  13  14
ATOM     14  O   LIG    1       23.870 -20.247   3.484  0.00  0.00    -0.394 OA
ATOM     15  H   LIG    1       23.625 -19.463   2.952  0.00  0.00    +0.209 HD
ENDBRANCH  13  14
ENDBRANCH   6  13
ENDBRANCH   2   6
BRANCH   1  16
ATOM     16  C   LIG    1       28.399 -19.927   6.360  0.00  0.00    +0.143 C 
BRANCH  16  17
ATOM     17  C   LIG    1       29.453 -19.943   7.452  0.00  0.00    -0.027 A 
ATOM     18  C   LIG    1       30.047 -21.110   7.949  0.00  0.00    +0.025 A 
ATOM     19  C   LIG    1       31.119 -21.008   8.831  0.00  0.00    +0.111 A 
ATOM     20  N   LIG    1       31.656 -19.841   9.236  0.00  0.00    -0.263 NA
ATOM     21  C   LIG    1       31.093 -18.723   8.738  0.00  0.00    +0.111 A 
ATOM     22  C   LIG    1       30.013 -18.724   7.865  0.00  0.00    +0.025 A 
ENDBRANCH  16  17
ENDBRANCH   1  16
TORSDOF 7
ENDMDL
MODEL 2
REMARK VINA RESULT:      -7.9      1.734      3.508
REMARK  Name = *****
REMARK                            x       y       z     vdW  Elec       q    Type
REMARK                         _______ _______ _______ _____ _____    ______ ____
ROOT
ATOM      1  N   LIG    1       27.542 -20.235   6.810  0.00  0.00    -0.297 N 
ATOM      2  C   LIG    1       26.305 -20.898   6.901  0.00  0.00    +0.226 C 
ATOM      3  O   LIG    1       25.762 -21.059   8.031  0.00  0.00    -0.275 OA
ENDROOT
BRANCH   1   5
ATOM      4  C   LIG    1       28.820 -18.552   5.438  0.00  0.00    +0.024 C 
ATOM      5  C   LIG    1       28.234 -19.965   5.543  0.00  0.00    +0.105 C 
ENDBRANCH   1   5
BRANCH   2   6
ATOM      6  C   LIG    1       25.551 -21.437   5.663  0.00  0.00    +0.130 C 
BRANCH   6   7
ATOM      7  C   LIG    1       24.515 -20.480   5.052  0.00  0.00    -0.033 A 
ATOM      8  C   LIG    1       24.775 -19.654   3.947  0.00  0.00    +0.004 A 
ATOM      9  C   LIG    1       23.807 -18.749   3.481  0.00  0.00    +0.000 A 
ATOM     10  C   LIG    1       22.571 -18.652   4.113  0.00  0.00    +0.000 A 
ATOM     11  C   LIG    1       22.300 -19.450   5.216  0.00  0.00    +0.000 A 
ATOM     12  C   LIG    1       23.264 -20.347   5.685  0.00  0.00    +0.004 A 
ENDBRANCH   6   7
BRANCH   6  13
ATOM     13  C   LIG    1       24.881 -22.830   5.912  0.00  0.00    +0.173 C 
BRANCH  13  14
ATOM     14  O   LIG    1       24.818 -23.714   4.793  0.00  0.00    -0.394 OA
ATOM     15  H   LIG    1       24.067 -23.436   4.230  0.00  0.00    +0.209 HD
ENDBRANCH  13  14
ENDBRANCH   6  13
ENDBRANCH   2   6
BRANCH   1  16
ATOM     16  C   LIG    1       28.164 -19.731   8.056  0.00  0.00    +0.143 C 
BRANCH  16  17
ATOM     17  C   LIG    1       29.605 -20.091   8.368  0.00  0.00    -0.027 A 
ATOM     18  C   LIG    1       30.600 -19.151   8.663  0.00  0.00    +0.025 A 
ATOM     19  C   LIG    1       31.847 -19.589   9.097  0.00  0.00    +0.111 A 
ATOM     20  N   LIG    1       32.171 -20.884   9.280  0.00  0.00    -0.263 NA
ATOM     21  C   LIG    1       31.203 -21.783   9.014  0.00  0.00    +0.111 A 
ATOM     22  C   LIG    1       29.935 -21.441   8.563  0.00  0.00    +0.025 A 
ENDBRANCH  16  17
ENDBRANCH   1  16
TORSDOF 7
ENDMDL
MODEL 3
REMARK VINA RESULT:      -7.9      3.606      6.568
REMARK  Name = *****
REMARK                            x       y       z     vdW  Elec       q    Type
REMARK                         _______ _______ _______ _____ _____    ______ ____
ROOT
ATOM      1  N   LIG    1       25.109 -23.845   6.231  0.00  0.00    -0.297 N 
ATOM      2  C   LIG    1       25.701 -22.752   6.886  0.00  0.00    +0.226 C 
ATOM      3  O   LIG    1       26.913 -22.816   7.240  0.00  0.00    -0.275 OA
ENDROOT
BRANCH   1   5
ATOM      4  C   LIG    1       22.669 -23.808   6.858  0.00  0.00    +0.024 C 
ATOM      5  C   LIG    1       23.722 -23.856   5.746  0.00  0.00    +0.105 C 
ENDBRANCH   1   5
BRANCH   2   6
ATOM      6  C   LIG    1       24.937 -21.442   7.187  0.00  0.00    +0.130 C 
BRANCH   6   7
ATOM      7  C   LIG    1       24.441 -20.667   5.956  0.00  0.00    -0.033 A 
ATOM      8  C   LIG    1       25.264 -20.321   4.873  0.00  0.00    +0.004 A 
ATOM      9  C   LIG    1       24.766 -19.549   3.810  0.00  0.00    +0.000 A 
ATOM     10  C   LIG    1       23.446 -19.108   3.816  0.00  0.00    +0.000 A 
ATOM     11  C   LIG    1       22.621 -19.427   4.887  0.00  0.00    +0.000 A 
ATOM     12  C   LIG    1       23.117 -20.190   5.948  0.00  0.00    +0.004 A 
ENDBRANCH   6   7
BRANCH   6  13
ATOM     13  C   LIG    1       25.733 -20.469   8.121  0.00  0.00    +0.173 C 
BRANCH  13  14
ATOM     14  O   LIG    1       25.886 -20.876   9.481  0.00  0.00    -0.394 OA
ATOM     15  H   LIG    1       25.879 -21.855   9.506  0.00  0.00    +0.209 HD
ENDBRANCH  13  14
ENDBRANCH   6  13
ENDBRANCH   2   6
BRANCH   1  16
ATOM     16  C   LIG    1       25.940 -25.042   5.964  0.00  0.00    +0.143 C 
BRANCH  16  17
ATOM     17  C   LIG    1       25.400 -26.417   6.309  0.00  0.00    -0.027 A 
ATOM     18  C   LIG    1       24.512 -27.135   5.497  0.00  0.00    +0.025 A 
ATOM     19  C   LIG    1       24.206 -28.454   5.820  0.00  0.00    +0.111 A 
ATOM     20  N   LIG    1       24.730 -29.116   6.870  0.00  0.00    -0.263 NA
ATOM     21  C   LIG    1       25.599 -28.427   7.635  0.00  0.00    +0.111 A 
ATOM     22  C   LIG    1       25.954 -27.105   7.400  0.00  0.00    +0.025 A 
ENDBRANCH  16  17
ENDBRANCH   1  16
TORSDOF 7
ENDMDL
MODEL 4
REMARK VINA RESULT:      -7.8      1.954      3.297
REMARK  Name = *****
REMARK                            x       y       z     vdW  Elec       q    Type
REMARK                         _______ _______ _______ _____ _____    ______ ____
ROOT
ATOM      1  N   LIG    1       26.351 -21.774   7.054  0.00  0.00    -0.297 N 
ATOM      2  C   LIG    1       25.662 -22.737   6.296  0.00  0.00    +0.226 C 
ATOM      3  O   LIG    1       26.253 -23.799   5.947  0.00  0.00    -0.275 OA
ENDROOT
BRANCH   1   5
ATOM      4  C   LIG    1       25.758 -20.378   9.066  0.00  0.00    +0.024 C 
ATOM      5  C   LIG    1       25.743 -20.528   7.541  0.00  0.00    +0.105 C 
ENDBRANCH   1   5
BRANCH   2   6
ATOM      6  C   LIG    1       24.184 -22.570   5.873  0.00  0.00    +0.130 C 
BRANCH   6   7
ATOM      7  C   LIG    1       23.822 -21.211   5.254  0.00  0.00    -0.033 A 
ATOM      8  C   LIG    1       22.715 -20.445   5.652  0.00  0.00    +0.004 A 
ATOM      9  C   LIG    1       22.398 -19.245   4.997  0.00  0.00    +0.000 A 
ATOM     10  C   LIG    1       23.175 -18.795   3.932  0.00  0.00    +0.000 A 
ATOM     11  C   LIG    1       24.265 -19.547   3.514  0.00  0.00    +0.000 A 
ATOM     12  C   LIG    1       24.579 -20.745   4.161  0.00  0.00    +0.004 A 
ENDBRANCH   6   7
BRANCH   6  13
ATOM     13  C   LIG    1       23.177 -22.894   7.027  0.00  0.00    +0.173 C 
BRANCH  13  14
ATOM     14  O   LIG    1       22.133 -23.818   6.719  0.00  0.00    -0.394 OA
ATOM     15  H   LIG    1       22.542 -24.688   6.538  0.00  0.00    +0.209 HD
ENDBRANCH  13  14
ENDBRANCH   6  13
ENDBRANCH   2   6
BRANCH   1  16
ATOM     16  C   LIG    1       27.756 -22.048   7.431  0.00  0.00    +0.143 C 
BRANCH  16  17
ATOM     17  C   LIG    1       28.826 -21.017   7.122  0.00  0.00    -0.027 A 
ATOM     18  C   LIG    1       28.707 -20.043   6.122  0.00  0.00    +0.025 A 
ATOM     19  C   LIG    1       29.668 -19.041   6.027  0.00  0.00    +0.111 A 
ATOM     20  N   LIG    1       30.720 -18.922   6.860  0.00  0.00    -0.263 NA
ATOM     21  C   LIG    1       30.818 -19.850   7.832  0.00  0.00    +0.111 A 
ATOM     22  C   LIG    1       29.916 -20.893   7.997  0.00  0.00    +0.025 A 
ENDBRANCH  16  17
ENDBRANCH   1  16
TORSDOF 7
ENDMDL
MODEL 5
REMARK VINA RESULT:      -7.6      1.841      2.998
REMARK  Name = *****
REMARK                            x       y       z     vdW  Elec       q    Type
REMARK                         _______ _______ _______ _____ _____    ______ ____
ROOT
ATOM      1  N   LIG    1       26.021 -21.472   6.630  0.00  0.00    -0.297 N 
ATOM      2  C   LIG    1       25.090 -22.341   6.034  0.00  0.00    +0.226 C 
ATOM      3  O   LIG    1       24.791 -22.197   4.814  0.00  0.00    -0.275 OA
ENDROOT
BRANCH   1   5
ATOM      4  C   LIG    1       25.781 -20.593   8.979  0.00  0.00    +0.024 C 
ATOM      5  C   LIG    1       26.463 -21.581   8.027  0.00  0.00    +0.105 C 
ENDBRANCH   1   5
BRANCH   2   6
ATOM      6  C   LIG    1       24.412 -23.498   6.804  0.00  0.00    +0.130 C 
BRANCH   6   7
ATOM      7  C   LIG    1       24.885 -24.910   6.427  0.00  0.00    -0.033 A 
ATOM      8  C   LIG    1       26.236 -25.290   6.378  0.00  0.00    +0.004 A 
ATOM      9  C   LIG    1       26.606 -26.578   5.956  0.00  0.00    +0.000 A 
ATOM     10  C   LIG    1       25.637 -27.500   5.571  0.00  0.00    +0.000 A 
ATOM     11  C   LIG    1       24.297 -27.138   5.598  0.00  0.00    +0.000 A 
ATOM     12  C   LIG    1       23.927 -25.855   6.012  0.00  0.00    +0.004 A 
ENDBRANCH   6   7
BRANCH   6  13
ATOM     13  C   LIG    1       22.849 -23.445   6.738  0.00  0.00    +0.173 C 
BRANCH  13  14
ATOM     14  O   LIG    1       22.282 -22.426   5.914  0.00  0.00    -0.394 OA
ATOM     15  H   LIG    1       22.930 -21.696   5.847  0.00  0.00    +0.209 HD
ENDBRANCH  13  14
ENDBRANCH   6  13
ENDBRANCH   2   6
BRANCH   1  16
ATOM     16  C   LIG    1       26.634 -20.415   5.794  0.00  0.00    +0.143 C 
BRANCH  16  17
ATOM     17  C   LIG    1       28.083 -20.027   6.027  0.00  0.00    -0.027 A 
ATOM     18  C   LIG    1       28.657 -18.837   5.563  0.00  0.00    +0.025 A 
ATOM     19  C   LIG    1       29.944 -18.496   5.971  0.00  0.00    +0.111 A 
ATOM     20  N   LIG    1       30.689 -19.234   6.816  0.00  0.00    -0.263 NA
ATOM     21  C   LIG    1       30.123 -20.367   7.275  0.00  0.00    +0.111 A 
ATOM     22  C   LIG    1       28.852 -20.796   6.914  0.00  0.00    +0.025 A 
ENDBRANCH  16  17
ENDBRANCH   1  16
TORSDOF 7
ENDMDL
MODEL 6
REMARK VINA RESULT:      -7.4      0.628      1.602
REMARK  Name = *****
REMARK                            x       y       z     vdW  Elec       q    Type
REMARK                         _______ _______ _______ _____ _____    ______ ____
ROOT
ATOM      1  N   LIG    1       27.006 -20.503   6.586  0.00  0.00    -0.297 N 
ATOM      2  C   LIG    1       25.933 -20.335   5.693  0.00  0.00    +0.226 C 
ATOM      3  O   LIG    1       26.120 -19.738   4.595  0.00  0.00    -0.275 OA
ENDROOT
BRANCH   1   5
ATOM      4  C   LIG    1       26.085 -20.474   8.931  0.00  0.00    +0.024 C 
ATOM      5  C   LIG    1       26.902 -21.215   7.867  0.00  0.00    +0.105 C 
ENDBRANCH   1   5
BRANCH   2   6
ATOM      6  C   LIG    1       24.511 -20.870   5.983  0.00  0.00    +0.130 C 
BRANCH   6   7
ATOM      7  C   LIG    1       24.374 -22.400   6.018  0.00  0.00    -0.033 A 
ATOM      8  C   LIG    1       25.175 -23.270   5.261  0.00  0.00    +0.004 A 
ATOM      9  C   LIG    1       24.951 -24.656   5.283  0.00  0.00    +0.000 A 
ATOM     10  C   LIG    1       23.924 -25.193   6.054  0.00  0.00    +0.000 A 
ATOM     11  C   LIG    1       23.112 -24.347   6.798  0.00  0.00    +0.000 A 
ATOM     12  C   LIG    1       23.329 -22.967   6.773  0.00  0.00    +0.004 A 
ENDBRANCH   6   7
BRANCH   6  13
ATOM     13  C   LIG    1       23.427 -20.278   5.022  0.00  0.00    +0.173 C 
BRANCH  13  14
ATOM     14  O   LIG    1       22.454 -21.194   4.520  0.00  0.00    -0.394 OA
ATOM     15  H   LIG    1       21.626 -21.063   5.024  0.00  0.00    +0.209 HD
ENDBRANCH  13  14
ENDBRANCH   6  13
ENDBRANCH   2   6
BRANCH   1  16
ATOM     16  C   LIG    1       28.336 -19.979   6.196  0.00  0.00    +0.143 C 
BRANCH  16  17
ATOM     17  C   LIG    1       29.416 -19.827   7.251  0.00  0.00    -0.027 A 
ATOM     18  C   LIG    1       29.666 -18.639   7.949  0.00  0.00    +0.025 A 
ATOM     19  C   LIG    1       30.565 -18.648   9.012  0.00  0.00    +0.111 A 
ATOM     20  N   LIG    1       31.214 -19.747   9.443  0.00  0.00    -0.263 NA
ATOM     21  C   LIG    1       30.954 -20.891   8.780  0.00  0.00    +0.111 A 
ATOM     22  C   LIG    1       30.084 -20.977   7.701  0.00  0.00    +0.025 A 
ENDBRANCH  16  17
ENDBRANCH   1  16
TORSDOF 7
ENDMDL
MODEL 7
REMARK VINA RESULT:      -7.3      1.968      3.623
REMARK  Name = *****
REMARK                            x       y       z     vdW  Elec       q    Type
REMARK                         _______ _______ _______ _____ _____    ______ ____
ROOT
ATOM      1  N   LIG    1       26.438 -22.274   7.365  0.00  0.00    -0.297 N 
ATOM      2  C   LIG    1       25.309 -21.445   7.240  0.00  0.00    +0.226 C 
ATOM      3  O   LIG    1       25.230 -20.387   7.928  0.00  0.00    -0.275 OA
ENDROOT
BRANCH   1   5
ATOM      4  C   LIG    1       25.791 -24.687   7.044  0.00  0.00    +0.024 C 
ATOM      5  C   LIG    1       26.644 -23.500   6.583  0.00  0.00    +0.105 C 
ENDBRANCH   1   5
BRANCH   2   6
ATOM      6  C   LIG    1       24.145 -21.756   6.271  0.00  0.00    +0.130 C 
BRANCH   6   7
ATOM      7  C   LIG    1       23.765 -20.622   5.306  0.00  0.00    -0.033 A 
ATOM      8  C   LIG    1       24.622 -20.129   4.309  0.00  0.00    +0.004 A 
ATOM      9  C   LIG    1       24.242 -19.042   3.507  0.00  0.00    +0.000 A 
ATOM     10  C   LIG    1       23.006 -18.427   3.691  0.00  0.00    +0.000 A 
ATOM     11  C   LIG    1       22.151 -18.890   4.682  0.00  0.00    +0.000 A 
ATOM     12  C   LIG    1       22.531 -19.969   5.486  0.00  0.00    +0.004 A 
ENDBRANCH   6   7
BRANCH   6  13
ATOM     13  C   LIG    1       22.857 -22.261   7.003  0.00  0.00    +0.173 C 
BRANCH  13  14
ATOM     14  O   LIG    1       22.351 -23.532   6.595  0.00  0.00    -0.394 OA
ATOM     15  H   LIG    1       22.986 -24.218   6.885  0.00  0.00    +0.209 HD
ENDBRANCH  13  14
ENDBRANCH   6  13
ENDBRANCH   2   6
BRANCH   1  16
ATOM     16  C   LIG    1       27.511 -21.866   8.301  0.00  0.00    +0.143 C 
BRANCH  16  17
ATOM     17  C   LIG    1       28.588 -20.906   7.828  0.00  0.00    -0.027 A 
ATOM     18  C   LIG    1       29.908 -20.921   8.295  0.00  0.00    +0.025 A 
ATOM     19  C   LIG    1       30.859 -20.111   7.679  0.00  0.00    +0.111 A 
ATOM     20  N   LIG    1       30.602 -19.310   6.628  0.00  0.00    -0.263 NA
ATOM     21  C   LIG    1       29.334 -19.316   6.171  0.00  0.00    +0.111 A 
ATOM     22  C   LIG    1       28.316 -20.078   6.728  0.00  0.00    +0.025 A 
ENDBRANCH  16  17
ENDBRANCH   1  16
TORSDOF 7
ENDMDL
MODEL 8
REMARK VINA RESULT:      -7.3      2.299      3.669
REMARK  Name = *****
REMARK                            x       y       z     vdW  Elec       q    Type
REMARK                         _______ _______ _______ _____ _____    ______ ____
ROOT
ATOM      1  N   LIG    1       29.415 -20.493   7.454  0.00  0.00    -0.297 N 
ATOM      2  C   LIG    1       28.217 -20.251   6.758  0.00  0.00    +0.226 C 
ATOM      3  O   LIG    1       28.128 -19.245   5.997  0.00  0.00    -0.275 OA
ENDROOT
BRANCH   1   5
ATOM      4  C   LIG    1       31.039 -21.727   8.932  0.00  0.00    +0.024 C 
ATOM      5  C   LIG    1       29.632 -21.652   8.329  0.00  0.00    +0.105 C 
ENDBRANCH   1   5
BRANCH   2   6
ATOM      6  C   LIG    1       26.985 -21.179   6.863  0.00  0.00    +0.130 C 
BRANCH   6   7
ATOM      7  C   LIG    1       25.762 -20.752   6.036  0.00  0.00    -0.033 A 
ATOM      8  C   LIG    1       25.847 -20.228   4.736  0.00  0.00    +0.004 A 
ATOM      9  C   LIG    1       24.697 -19.789   4.061  0.00  0.00    +0.000 A 
ATOM     10  C   LIG    1       23.449 -19.861   4.673  0.00  0.00    +0.000 A 
ATOM     11  C   LIG    1       23.346 -20.363   5.964  0.00  0.00    +0.000 A 
ATOM     12  C   LIG    1       24.491 -20.794   6.640  0.00  0.00    +0.004 A 
ENDBRANCH   6   7
BRANCH   6  13
ATOM     13  C   LIG    1       26.540 -21.441   8.341  0.00  0.00    +0.173 C 
BRANCH  13  14
ATOM     14  O   LIG    1       26.488 -20.302   9.201  0.00  0.00    -0.394 OA
ATOM     15  H   LIG    1       26.154 -19.544   8.679  0.00  0.00    +0.209 HD
ENDBRANCH  13  14
ENDBRANCH   6  13
ENDBRANCH   2   6
BRANCH   1  16
ATOM     16  C   LIG    1       30.546 -19.557   7.257  0.00  0.00    +0.143 C 
BRANCH  16  17
ATOM     17  C   LIG    1       30.788 -18.457   8.274  0.00  0.00    -0.027 A 
ATOM     18  C   LIG    1       29.857 -18.071   9.246  0.00  0.00    +0.025 A 
ATOM     19  C   LIG    1       30.236 -17.169  10.236  0.00  0.00    +0.111 A 
ATOM     20  N   LIG    1       31.471 -16.642  10.344  0.00  0.00    -0.263 NA
ATOM     21  C   LIG    1       32.369 -17.033   9.418  0.00  0.00    +0.111 A 
ATOM     22  C   LIG    1       32.079 -17.916   8.387  0.00  0.00    +0.025 A 
ENDBRANCH  16  17
ENDBRANCH   1  16
TORSDOF 7
ENDMDL
MODEL 9
REMARK VINA RESULT:      -7.1      2.327      6.857
REMARK  Name = *****
REMARK                            x       y       z     vdW  Elec       q    Type
REMARK                         _______ _______ _______ _____ _____    ______ ____
ROOT
ATOM      1  N   LIG    1       26.283 -20.566   6.454  0.00  0.00    -0.297 N 
ATOM      2  C   LIG    1       27.444 -20.360   7.218  0.00  0.00    +0.226 C 
ATOM      3  O   LIG    1       27.433 -20.617   8.456  0.00  0.00    -0.275 OA
ENDROOT
BRANCH   1   5
ATOM      4  C   LIG    1       24.791 -20.043   4.492  0.00  0.00    +0.024 C 
ATOM      5  C   LIG    1       26.205 -20.335   5.005  0.00  0.00    +0.105 C 
ENDBRANCH   1   5
BRANCH   2   6
ATOM      6  C   LIG    1       28.767 -19.841   6.608  0.00  0.00    +0.130 C 
BRANCH   6   7
ATOM      7  C   LIG    1       29.803 -19.321   7.618  0.00  0.00    -0.033 A 
ATOM      8  C   LIG    1       30.887 -20.084   8.082  0.00  0.00    +0.004 A 
ATOM      9  C   LIG    1       31.757 -19.575   9.060  0.00  0.00    +0.000 A 
ATOM     10  C   LIG    1       31.555 -18.305   9.592  0.00  0.00    +0.000 A 
ATOM     11  C   LIG    1       30.480 -17.542   9.157  0.00  0.00    +0.000 A 
ATOM     12  C   LIG    1       29.609 -18.048   8.188  0.00  0.00    +0.004 A 
ENDBRANCH   6   7
BRANCH   6  13
ATOM     13  C   LIG    1       28.547 -18.762   5.496  0.00  0.00    +0.173 C 
BRANCH  13  14
ATOM     14  O   LIG    1       29.714 -18.092   5.020  0.00  0.00    -0.394 OA
ATOM     15  H   LIG    1       30.497 -18.540   5.401  0.00  0.00    +0.209 HD
ENDBRANCH  13  14
ENDBRANCH   6  13
ENDBRANCH   2   6
BRANCH   1  16
ATOM     16  C   LIG    1       25.078 -21.096   7.132  0.00  0.00    +0.143 C 
BRANCH  16  17
ATOM     17  C   LIG    1       24.753 -22.575   7.029  0.00  0.00    -0.027 A 
ATOM     18  C   LIG    1       23.465 -23.079   6.810  0.00  0.00    +0.025 A 
ATOM     19  C   LIG    1       23.297 -24.439   6.565  0.00  0.00    +0.111 A 
ATOM     20  N   LIG    1       24.310 -25.326   6.500  0.00  0.00    -0.263 NA
ATOM     21  C   LIG    1       25.548 -24.831   6.691  0.00  0.00    +0.111 A 
ATOM     22  C   LIG    1       25.812 -23.493   6.955  0.00  0.00    +0.025 A 
ENDBRANCH  16  17
ENDBRANCH   1  16
TORSDOF 7
ENDMDL
