MODEL 1
REMARK VINA RESULT:       9.3      0.000      0.000
REMARK  Name = *****
REMARK                            x       y       z     vdW  Elec       q    Type
REMARK                         _______ _______ _______ _____ _____    ______ ____
ROOT
ATOM      1  C   LIG    1       22.590 -19.084   4.326  0.00  0.00    +0.031 C 
ENDROOT
BRANCH   1   2
ATOM      2  C   LIG    1       22.990 -17.839   5.130  0.00  0.00    +0.086 C 
BRANCH   2   6
ATOM      3  N   LIG    1       23.027 -14.278   4.084  0.00  0.00    -0.327 N 
ATOM      4  C   LIG    1       23.447 -14.738   5.433  0.00  0.00    +0.120 C 
ATOM      5  C   LIG    1       22.372 -15.669   6.063  0.00  0.00    +0.103 C 
ATOM      6  N   LIG    1       21.936 -16.811   5.218  0.00  0.00    -0.299 NA
ATOM      7  C   LIG    1       21.522 -16.253   3.907  0.00  0.00    +0.103 C 
ATOM      8  C   LIG    1       22.596 -15.393   3.208  0.00  0.00    +0.120 C 
BRANCH   3  16
ATOM      9 CL   LIG    1       29.303 -12.220   5.876  0.00  0.00    -0.084 Cl
ATOM     10  C   LIG    1       27.752 -12.578   5.218  0.00  0.00    +0.043 A 
ATOM     11  C   LIG    1       27.343 -11.949   4.044  0.00  0.00    +0.048 A 
ATOM     12  C   LIG    1       26.100 -12.212   3.490  0.00  0.00    +0.074 A 
ATOM     13  N   LIG    1       25.790 -11.555   2.365  0.00  0.00    -0.255 NA
ATOM     14  C   LIG    1       24.584 -11.783   1.820  0.00  0.00    +0.113 A 
ATOM     15  C   LIG    1       23.656 -12.661   2.338  0.00  0.00    +0.043 A 
ATOM     16  C   LIG    1       23.954 -13.367   3.512  0.00  0.00    +0.041 A 
ATOM     17  C   LIG    1       25.225 -13.135   4.116  0.00  0.00    +0.021 A 
ATOM     18  C   LIG    1       25.660 -13.750   5.318  0.00  0.00    +0.013 A 
ATOM     19  C   LIG    1       26.920 -13.478   5.859  0.00  0.00    +0.021 A 
ENDBRANCH   3  16
ENDBRANCH   2   6
ENDBRANCH   1   2
BRANCH   1  20
ATOM     20  C   LIG    1       21.833 -20.131   5.160  0.00  0.00    +0.086 C 
BRANCH  20  21
ATOM     21  N   LIG    1       22.579 -21.400   5.290  0.00  0.00    -0.299 NA
ATOM     22  C   LIG    1       23.546 -21.572   4.171  0.00  0.00    +0.103 C 
ATOM     23  C   LIG    1       24.780 -20.626   4.202  0.00  0.00    +0.120 C 
ATOM     24  N   LIG    1       25.478 -20.730   5.508  0.00  0.00    -0.327 N 
ATOM     25  C   LIG    1       24.555 -20.542   6.655  0.00  0.00    +0.120 C 
ATOM     26  C   LIG    1       23.352 -21.506   6.552  0.00  0.00    +0.103 C 
BRANCH  24  27
ATOM     27  C   LIG    1       26.684 -19.994   5.552  0.00  0.00    +0.041 A 
ATOM     28  C   LIG    1       26.821 -18.766   4.837  0.00  0.00    +0.021 A 
ATOM     29  C   LIG    1       28.059 -18.088   4.913  0.00  0.00    +0.074 A 
ATOM     30  C   LIG    1       28.244 -16.895   4.224  0.00  0.00    +0.048 A 
ATOM     31  C   LIG    1       27.226 -16.349   3.457  0.00  0.00    +0.043 A 
ATOM     32  C   LIG    1       26.000 -16.990   3.358  0.00  0.00    +0.021 A 
ATOM     33 CL   LIG    1       27.485 -14.871   2.612  0.00  0.00    -0.084 Cl
ATOM     34  N   LIG    1       29.103 -18.540   5.621  0.00  0.00    -0.255 NA
ATOM     35  C   LIG    1       28.951 -19.699   6.285  0.00  0.00    +0.113 A 
ATOM     36  C   LIG    1       25.800 -18.198   4.034  0.00  0.00    +0.013 A 
ATOM     37  C   LIG    1       27.790 -20.444   6.284  0.00  0.00    +0.043 A 
ENDBRANCH  24  27
ENDBRANCH  20  21
ENDBRANCH   1  20
TORSDOF 6
ENDMDL
