MODEL 1
REMARK VINA RESULT:      10.6      0.000      0.000
REMARK  Name = *****
REMARK                            x       y       z     vdW  Elec       q    Type
REMARK                         _______ _______ _______ _____ _____    ______ ____
ROOT
ATOM      1  C   LIG    1       24.089 -28.351  10.805  0.00  0.00    +0.186 C 
ATOM      2  O   LIG    1       24.708 -28.315   9.473  0.00  0.00    -0.459 OA
ATOM      3  C   LIG    1       25.893 -28.983   9.327  0.00  0.00    +0.328 C 
ATOM      4  O   LIG    1       26.424 -29.659  10.226  0.00  0.00    -0.249 OA
ATOM      5  C   LIG    1       26.652 -28.735   8.001  0.00  0.00    +0.185 C 
ATOM      6  N   LIG    1       26.019 -29.204   6.748  0.00  0.00    -0.281 N 
ATOM      7  C   LIG    1       26.494 -28.617   5.489  0.00  0.00    +0.109 C 
ATOM      8  C   LIG    1       26.823 -27.135   5.527  0.00  0.00    +0.019 C 
ATOM      9  C   LIG    1       27.719 -26.821   6.709  0.00  0.00    +0.004 C 
ATOM     10  C   LIG    1       25.731 -30.585   6.578  0.00  0.00    +0.288 C 
ATOM     11  O   LIG    1       25.470 -31.086   5.473  0.00  0.00    -0.267 OA
ATOM     12  C   LIG    1       25.882 -31.547   7.735  0.00  0.00    +0.276 C 
ATOM     13  O   LIG    1       27.018 -31.958   8.000  0.00  0.00    -0.281 OA
ATOM     14  C   LIG    1       24.589 -31.955   8.451  0.00  0.00    +0.240 C 
ATOM     15  O   LIG    1       24.880 -31.941   9.859  0.00  0.00    -0.339 OA
ATOM     16  C   LIG    1       24.835 -33.196  10.520  0.00  0.00    +0.125 C 
ATOM     17  C   LIG    1       23.459 -33.824  10.386  0.00  0.00    +0.032 C 
ATOM     18  C   LIG    1       22.972 -33.825   8.936  0.00  0.00    +0.011 C 
ATOM     19  C   LIG    1       25.370 -33.087  11.952  0.00  0.00    +0.067 C 
ATOM     20  C   LIG    1       24.832 -32.062  12.997  0.00  0.00    +0.146 C 
ATOM     21  C   LIG    1       23.465 -32.336  13.631  0.00  0.00    -0.044 C 
ATOM     22  C   LIG    1       23.173 -33.795  13.931  0.00  0.00    +0.041 C 
ATOM     23  C   LIG    1       22.553 -31.425  14.053  0.00  0.00    +0.001 C 
ATOM     24  C   LIG    1       22.550 -29.961  14.021  0.00  0.00    +0.000 C 
ATOM     25  C   LIG    1       21.429 -29.280  14.340  0.00  0.00    -0.000 C 
ATOM     26  C   LIG    1       21.133 -27.855  14.185  0.00  0.00    -0.004 C 
ATOM     27  C   LIG    1       19.885 -27.498  13.810  0.00  0.00    -0.024 C 
ATOM     28  C   LIG    1       19.258 -26.164  13.458  0.00  0.00    +0.009 C 
ATOM     29  C   LIG    1       19.253 -26.009  11.931  0.00  0.00    +0.012 C 
ATOM     30  C   LIG    1       17.787 -25.898  13.943  0.00  0.00    +0.018 C 
ATOM     31  C   LIG    1       17.093 -26.980  14.776  0.00  0.00    +0.056 C 
ATOM     32  C   LIG    1       15.856 -26.428  15.500  0.00  0.00    +0.015 C 
ATOM     33  C   LIG    1       16.603 -28.190  13.966  0.00  0.00    +0.167 C 
ATOM     34  O   LIG    1       15.776 -28.038  13.057  0.00  0.00    -0.294 OA
ATOM     35  C   LIG    1       17.124 -29.618  14.300  0.00  0.00    +0.216 C 
ATOM     36  C   LIG    1       17.627 -30.163  12.882  0.00  0.00    +0.176 C 
ATOM     37  C   LIG    1       18.804 -31.121  12.729  0.00  0.00    -0.045 C 
ATOM     38  C   LIG    1       18.676 -32.428  13.478  0.00  0.00    +0.041 C 
ATOM     39  C   LIG    1       19.878 -30.937  11.909  0.00  0.00    -0.015 C 
ATOM     40  C   LIG    1       20.295 -29.748  11.038  0.00  0.00    +0.075 C 
ATOM     41  C   LIG    1       19.628 -29.814   9.668  0.00  0.00    +0.019 C 
ATOM     42  C   LIG    1       21.838 -29.695  10.808  0.00  0.00    +0.143 C 
ATOM     43  O   LIG    1       22.471 -30.733  10.602  0.00  0.00    -0.297 OA
ATOM     44  C   LIG    1       24.038 -33.313   7.954  0.00  0.00    +0.054 C 
ATOM     45  C   LIG    1       23.445 -33.271   6.543  0.00  0.00    +0.013 C 
ATOM     46  C   LIG    1       27.003 -27.235   7.983  0.00  0.00    +0.034 C 
ATOM     47  C   LIG    1       22.528 -28.323  10.700  0.00  0.00    +0.119 C 
ENDROOT
BRANCH   1  48
ATOM     48  C   LIG    1       24.649 -27.177  11.712  0.00  0.00    +0.027 C 
ATOM     49  C   LIG    1       24.037 -27.215  13.120  0.00  0.00    +0.011 C 
BRANCH  48  50
ATOM     50  C   LIG    1       26.204 -27.097  11.772  0.00  0.00    +0.010 C 
BRANCH  50  55
ATOM     51  C   LIG    1       28.489 -27.205  14.890  0.00  0.00    +0.147 C 
ATOM     52  C   LIG    1       28.106 -28.565  15.500  0.00  0.00    +0.147 C 
ATOM     53  C   LIG    1       26.597 -28.788  15.352  0.00  0.00    +0.034 C 
ATOM     54  C   LIG    1       25.970 -28.335  14.026  0.00  0.00    +0.006 C 
ATOM     55  C   LIG    1       26.924 -27.925  12.895  0.00  0.00    -0.008 C 
ATOM     56  C   LIG    1       28.201 -27.185  13.377  0.00  0.00    +0.037 C 
BRANCH  51  58
ATOM     57  C   LIG    1       27.984 -24.862  14.830  0.00  0.00    +0.194 C 
ATOM     58  O   LIG    1       27.787 -26.107  15.496  0.00  0.00    -0.377 OA
ENDBRANCH  51  58
BRANCH  52  59
ATOM     59  O   LIG    1       28.820 -29.675  14.921  0.00  0.00    -0.372 OA
BRANCH  59  60
ATOM     60  C   LIG    1       30.223 -29.630  15.203  0.00  0.00    +0.188 C 
BRANCH  60  61
ATOM     61  C   LIG    1       31.039 -29.349  13.946  0.00  0.00    +0.184 C 
BRANCH  61  62
ATOM     62  O   LIG    1       30.244 -29.648  12.801  0.00  0.00    -0.393 OA
ATOM     63  H   LIG    1       30.673 -29.229  12.035  0.00  0.00    +0.209 HD
ENDBRANCH  61  62
ENDBRANCH  60  61
ENDBRANCH  59  60
ENDBRANCH  52  59
ENDBRANCH  50  55
ENDBRANCH  48  50
ENDBRANCH   1  48
BRANCH  14  64
ATOM     64  O   LIG    1       23.595 -30.962   8.285  0.00  0.00    -0.358 OA
ATOM     65  H   LIG    1       23.950 -30.467   7.515  0.00  0.00    +0.213 HD
ENDBRANCH  14  64
BRANCH  20  66
ATOM     66  O   LIG    1       25.715 -32.077  14.153  0.00  0.00    -0.375 OA
ATOM     67  C   LIG    1       25.713 -33.287  14.901  0.00  0.00    +0.194 C 
ENDBRANCH  20  66
BRANCH  35  68
ATOM     68  O   LIG    1       18.099 -29.666  15.338  0.00  0.00    -0.369 OA
ATOM     69  C   LIG    1       18.814 -30.902  15.454  0.00  0.00    +0.195 C 
ENDBRANCH  35  68
BRANCH  36  70
ATOM     70  O   LIG    1       16.513 -30.823  12.245  0.00  0.00    -0.385 OA
ATOM     71  H   LIG    1       15.733 -30.260  12.406  0.00  0.00    +0.210 HD
ENDBRANCH  36  70
TORSDOF 12
ENDMDL
