MODEL 1
REMARK VINA RESULT:      -6.4      0.000      0.000
REMARK  Name = *****
REMARK                            x       y       z     vdW  Elec       q    Type
REMARK                         _______ _______ _______ _____ _____    ______ ____
ROOT
ATOM      1  C   LIG    1       25.175 -30.142   8.274  0.00  0.00    +0.112 C 
ATOM      2  C   LIG    1       26.359 -29.814   9.209  0.00  0.00    +0.101 C 
ATOM      3  N   LIG    1       25.983 -28.917  10.314  0.00  0.00    -0.297 NA
ATOM      4  C   LIG    1       27.148 -28.484  11.078  0.00  0.00    +0.105 C 
ATOM      5  C   LIG    1       24.897 -29.472  11.164  0.00  0.00    +0.091 C 
ATOM      6  C   LIG    1       23.753 -30.080  10.313  0.00  0.00    -0.025 C 
ATOM      7  C   LIG    1       22.544 -30.455  11.068  0.00  0.00    -0.011 C 
ATOM      8  C   LIG    1       22.827 -30.883  12.374  0.00  0.00    +0.011 C 
ATOM      9  C   LIG    1       24.071 -30.930  13.052  0.00  0.00    -0.020 C 
ATOM     10  C   LIG    1       23.825 -31.454  14.301  0.00  0.00    +0.090 C 
ATOM     11  N   LIG    1       22.473 -31.727  14.380  0.00  0.00    -0.349 NA
ATOM     12  C   LIG    1       21.826 -32.375  15.500  0.00  0.00    +0.149 C 
ATOM     13  C   LIG    1       21.830 -31.332  13.224  0.00  0.00    +0.050 C 
ATOM     14  C   LIG    1       20.488 -31.329  12.820  0.00  0.00    +0.026 C 
ATOM     15  C   LIG    1       20.205 -30.869  11.521  0.00  0.00    +0.003 C 
ATOM     16  C   LIG    1       21.216 -30.452  10.646  0.00  0.00    +0.009 C 
ATOM     17  C   LIG    1       25.307 -30.432  12.356  0.00  0.00    +0.060 C 
ATOM     18  C   LIG    1       23.881 -30.369   9.007  0.00  0.00    -0.007 C 
ENDROOT
BRANCH   1  21
ATOM     19  N   LIG    1       25.706 -27.957   7.224  0.00  0.00    -0.310 N 
ATOM     20  H   LIG    1       26.345 -27.872   8.013  0.00  0.00    +0.149 HD
ATOM     21  C   LIG    1       24.961 -29.108   7.168  0.00  0.00    +0.221 C 
ATOM     22  O   LIG    1       24.133 -29.310   6.265  0.00  0.00    -0.275 OA
BRANCH  19  23
ATOM     23  CA  LIG    1       25.608 -26.823   6.287  0.00  0.00    +0.098 C 
BRANCH  23  25
ATOM     24  C   LIG    1       24.127 -24.737   6.427  0.00  0.00    +0.005 C 
ATOM     25  C   LIG    1       24.181 -26.244   6.189  0.00  0.00    +0.021 C 
ENDBRANCH  23  25
BRANCH  23  26
ATOM     26  C   LIG    1       26.211 -27.148   4.896  0.00  0.00    +0.177 C 
BRANCH  26  27
ATOM     27  O   LIG    1       27.627 -27.263   4.864  0.00  0.00    -0.393 OA
ATOM     28  H   LIG    1       27.944 -26.872   4.020  0.00  0.00    +0.209 HD
ENDBRANCH  26  27
ENDBRANCH  23  26
ENDBRANCH  19  23
ENDBRANCH   1  21
TORSDOF 5
ENDMDL
MODEL 2
REMARK VINA RESULT:      -6.4      4.526      7.452
REMARK  Name = *****
REMARK                            x       y       z     vdW  Elec       q    Type
REMARK                         _______ _______ _______ _____ _____    ______ ____
ROOT
ATOM      1  C   LIG    1       21.244 -26.719  13.432  0.00  0.00    +0.112 C 
ATOM      2  C   LIG    1       22.539 -26.356  14.190  0.00  0.00    +0.101 C 
ATOM      3  N   LIG    1       23.288 -27.540  14.640  0.00  0.00    -0.297 NA
ATOM      4  C   LIG    1       24.409 -27.175  15.500  0.00  0.00    +0.105 C 
ATOM      5  C   LIG    1       23.676 -28.438  13.520  0.00  0.00    +0.091 C 
ATOM      6  C   LIG    1       22.505 -28.664  12.531  0.00  0.00    -0.025 C 
ATOM      7  C   LIG    1       22.737 -29.707  11.516  0.00  0.00    -0.011 C 
ATOM      8  C   LIG    1       24.083 -29.806  11.132  0.00  0.00    +0.011 C 
ATOM      9  C   LIG    1       25.210 -29.105  11.630  0.00  0.00    -0.020 C 
ATOM     10  C   LIG    1       26.299 -29.537  10.907  0.00  0.00    +0.090 C 
ATOM     11  N   LIG    1       25.849 -30.467   9.989  0.00  0.00    -0.349 NA
ATOM     12  C   LIG    1       26.670 -31.092   8.976  0.00  0.00    +0.149 C 
ATOM     13  C   LIG    1       24.495 -30.688  10.148  0.00  0.00    +0.050 C 
ATOM     14  C   LIG    1       23.581 -31.553   9.531  0.00  0.00    +0.026 C 
ATOM     15  C   LIG    1       22.237 -31.473   9.941  0.00  0.00    +0.003 C 
ATOM     16  C   LIG    1       21.812 -30.555  10.908  0.00  0.00    +0.009 C 
ATOM     17  C   LIG    1       25.029 -28.127  12.757  0.00  0.00    +0.060 C 
ATOM     18  C   LIG    1       21.405 -27.893  12.504  0.00  0.00    -0.007 C 
ENDROOT
BRANCH   1  21
ATOM     19  N   LIG    1       19.096 -27.856  13.932  0.00  0.00    -0.310 N 
ATOM     20  H   LIG    1       19.264 -28.302  13.031  0.00  0.00    +0.149 HD
ATOM     21  C   LIG    1       20.041 -26.952  14.346  0.00  0.00    +0.221 C 
ATOM     22  O   LIG    1       19.929 -26.330  15.415  0.00  0.00    -0.275 OA
BRANCH  19  23
ATOM     23  CA  LIG    1       17.845 -28.179  14.641  0.00  0.00    +0.098 C 
BRANCH  23  25
ATOM     24  C   LIG    1       18.385 -30.470  13.627  0.00  0.00    +0.005 C 
ATOM     25  C   LIG    1       17.371 -29.627  14.398  0.00  0.00    +0.021 C 
ENDBRANCH  23  25
BRANCH  23  26
ATOM     26  C   LIG    1       16.727 -27.139  14.376  0.00  0.00    +0.177 C 
BRANCH  26  27
ATOM     27  O   LIG    1       16.827 -25.939  15.131  0.00  0.00    -0.393 OA
ATOM     28  H   LIG    1       17.772 -25.804  15.364  0.00  0.00    +0.209 HD
ENDBRANCH  26  27
ENDBRANCH  23  26
ENDBRANCH  19  23
ENDBRANCH   1  21
TORSDOF 5
ENDMDL
MODEL 3
REMARK VINA RESULT:      -6.3      3.513      6.786
REMARK  Name = *****
REMARK                            x       y       z     vdW  Elec       q    Type
REMARK                         _______ _______ _______ _____ _____    ______ ____
ROOT
ATOM      1  C   LIG    1       27.095 -28.491  11.645  0.00  0.00    +0.112 C 
ATOM      2  C   LIG    1       26.829 -29.918  12.171  0.00  0.00    +0.101 C 
ATOM      3  N   LIG    1       25.531 -30.456  11.733  0.00  0.00    -0.297 NA
ATOM      4  C   LIG    1       25.227 -31.727  12.381  0.00  0.00    +0.105 C 
ATOM      5  C   LIG    1       25.398 -30.505  10.252  0.00  0.00    +0.091 C 
ATOM      6  C   LIG    1       25.895 -29.198   9.585  0.00  0.00    -0.025 C 
ATOM      7  C   LIG    1       25.598 -29.079   8.147  0.00  0.00    -0.011 C 
ATOM      8  C   LIG    1       25.602 -30.317   7.484  0.00  0.00    +0.011 C 
ATOM      9  C   LIG    1       25.776 -31.618   8.019  0.00  0.00    -0.020 C 
ATOM     10  C   LIG    1       25.727 -32.494   6.957  0.00  0.00    +0.090 C 
ATOM     11  N   LIG    1       25.536 -31.749   5.809  0.00  0.00    -0.349 NA
ATOM     12  C   LIG    1       25.521 -32.289   4.468  0.00  0.00    +0.149 C 
ATOM     13  C   LIG    1       25.401 -30.409   6.117  0.00  0.00    +0.050 C 
ATOM     14  C   LIG    1       25.139 -29.266   5.351  0.00  0.00    +0.026 C 
ATOM     15  C   LIG    1       25.105 -28.031   6.024  0.00  0.00    +0.003 C 
ATOM     16  C   LIG    1       25.347 -27.930   7.399  0.00  0.00    +0.009 C 
ATOM     17  C   LIG    1       25.951 -31.787   9.502  0.00  0.00    +0.060 C 
ATOM     18  C   LIG    1       26.650 -28.288  10.222  0.00  0.00    -0.007 C 
ENDROOT
BRANCH   1  21
ATOM     19  N   LIG    1       25.566 -27.760  13.457  0.00  0.00    -0.310 N 
ATOM     20  H   LIG    1       25.321 -28.749  13.483  0.00  0.00    +0.149 HD
ATOM     21  C   LIG    1       26.506 -27.391  12.528  0.00  0.00    +0.221 C 
ATOM     22  O   LIG    1       26.863 -26.210  12.390  0.00  0.00    -0.275 OA
BRANCH  19  23
ATOM     23  CA  LIG    1       24.845 -26.845  14.360  0.00  0.00    +0.098 C 
BRANCH  23  25
ATOM     24  C   LIG    1       22.539 -26.704  13.251  0.00  0.00    +0.005 C 
ATOM     25  C   LIG    1       23.818 -25.958  13.625  0.00  0.00    +0.021 C 
ENDBRANCH  23  25
BRANCH  23  26
ATOM     26  C   LIG    1       25.802 -26.019  15.258  0.00  0.00    +0.177 C 
BRANCH  26  27
ATOM     27  O   LIG    1       26.047 -24.690  14.818  0.00  0.00    -0.393 OA
ATOM     28  H   LIG    1       26.311 -24.727  13.872  0.00  0.00    +0.209 HD
ENDBRANCH  26  27
ENDBRANCH  23  26
ENDBRANCH  19  23
ENDBRANCH   1  21
TORSDOF 5
ENDMDL
MODEL 4
REMARK VINA RESULT:      -6.3      2.928      4.166
REMARK  Name = *****
REMARK                            x       y       z     vdW  Elec       q    Type
REMARK                         _______ _______ _______ _____ _____    ______ ____
ROOT
ATOM      1  C   LIG    1       24.063 -28.534   6.480  0.00  0.00    +0.112 C 
ATOM      2  C   LIG    1       24.318 -29.817   5.661  0.00  0.00    +0.101 C 
ATOM      3  N   LIG    1       25.600 -30.459   5.991  0.00  0.00    -0.297 NA
ATOM      4  C   LIG    1       25.898 -31.565   5.086  0.00  0.00    +0.105 C 
ATOM      5  C   LIG    1       25.707 -30.831   7.426  0.00  0.00    +0.091 C 
ATOM      6  C   LIG    1       25.217 -29.692   8.354  0.00  0.00    -0.025 C 
ATOM      7  C   LIG    1       25.490 -29.893   9.789  0.00  0.00    -0.011 C 
ATOM      8  C   LIG    1       25.457 -31.244  10.166  0.00  0.00    +0.011 C 
ATOM      9  C   LIG    1       25.274 -32.395   9.359  0.00  0.00    -0.020 C 
ATOM     10  C   LIG    1       25.293 -33.481  10.206  0.00  0.00    +0.090 C 
ATOM     11  N   LIG    1       25.475 -33.007  11.491  0.00  0.00    -0.349 NA
ATOM     12  C   LIG    1       25.458 -33.825  12.683  0.00  0.00    +0.149 C 
ATOM     13  C   LIG    1       25.633 -31.634  11.483  0.00  0.00    +0.050 C 
ATOM     14  C   LIG    1       25.897 -30.689  12.483  0.00  0.00    +0.026 C 
ATOM     15  C   LIG    1       25.960 -29.338  12.095  0.00  0.00    +0.003 C 
ATOM     16  C   LIG    1       25.744 -28.937  10.771  0.00  0.00    +0.009 C 
ATOM     17  C   LIG    1       25.124 -32.235   7.873  0.00  0.00    +0.060 C 
ATOM     18  C   LIG    1       24.486 -28.652   7.920  0.00  0.00    -0.007 C 
ENDROOT
BRANCH   1  21
ATOM     19  N   LIG    1       24.415 -26.078   6.473  0.00  0.00    -0.310 N 
ATOM     20  H   LIG    1       23.807 -26.112   7.291  0.00  0.00    +0.149 HD
ATOM     21  C   LIG    1       24.683 -27.279   5.866  0.00  0.00    +0.221 C 
ATOM     22  O   LIG    1       25.391 -27.355   4.849  0.00  0.00    -0.275 OA
BRANCH  19  23
ATOM     23  CA  LIG    1       24.872 -24.757   6.006  0.00  0.00    +0.098 C 
BRANCH  23  25
ATOM     24  C   LIG    1       26.179 -22.932   7.244  0.00  0.00    +0.005 C 
ATOM     25  C   LIG    1       26.218 -24.330   6.630  0.00  0.00    +0.021 C 
ENDBRANCH  23  25
BRANCH  23  26
ATOM     26  C   LIG    1       23.781 -23.665   6.151  0.00  0.00    +0.177 C 
BRANCH  26  27
ATOM     27  O   LIG    1       22.506 -24.137   6.565  0.00  0.00    -0.393 OA
ATOM     28  H   LIG    1       22.166 -24.743   5.870  0.00  0.00    +0.209 HD
ENDBRANCH  26  27
ENDBRANCH  23  26
ENDBRANCH  19  23
ENDBRANCH   1  21
TORSDOF 5
ENDMDL
MODEL 5
REMARK VINA RESULT:      -6.1      1.348      1.625
REMARK  Name = *****
REMARK                            x       y       z     vdW  Elec       q    Type
REMARK                         _______ _______ _______ _____ _____    ______ ____
ROOT
ATOM      1  C   LIG    1       25.555 -31.004   8.974  0.00  0.00    +0.112 C 
ATOM      2  C   LIG    1       26.453 -30.253   9.981  0.00  0.00    +0.101 C 
ATOM      3  N   LIG    1       25.796 -29.072  10.563  0.00  0.00    -0.297 NA
ATOM      4  C   LIG    1       26.719 -28.285  11.373  0.00  0.00    +0.105 C 
ATOM      5  C   LIG    1       24.532 -29.407  11.272  0.00  0.00    +0.091 C 
ATOM      6  C   LIG    1       23.653 -30.385  10.452  0.00  0.00    -0.025 C 
ATOM      7  C   LIG    1       22.294 -30.597  10.981  0.00  0.00    -0.011 C 
ATOM      8  C   LIG    1       22.234 -30.515  12.381  0.00  0.00    +0.011 C 
ATOM      9  C   LIG    1       23.260 -30.196  13.304  0.00  0.00    -0.020 C 
ATOM     10  C   LIG    1       22.704 -30.278  14.561  0.00  0.00    +0.090 C 
ATOM     11  N   LIG    1       21.380 -30.643  14.410  0.00  0.00    -0.349 NA
ATOM     12  C   LIG    1       20.472 -30.926  15.499  0.00  0.00    +0.149 C 
ATOM     13  C   LIG    1       21.054 -30.741  13.071  0.00  0.00    +0.050 C 
ATOM     14  C   LIG    1       19.863 -31.016  12.387  0.00  0.00    +0.026 C 
ATOM     15  C   LIG    1       19.921 -31.066  10.982  0.00  0.00    +0.003 C 
ATOM     16  C   LIG    1       21.120 -30.876  10.283  0.00  0.00    +0.009 C 
ATOM     17  C   LIG    1       24.629 -29.847  12.791  0.00  0.00    +0.060 C 
ATOM     18  C   LIG    1       24.117 -31.094   9.410  0.00  0.00    -0.007 C 
ENDROOT
BRANCH   1  21
ATOM     19  N   LIG    1       25.373 -29.106   7.385  0.00  0.00    -0.310 N 
ATOM     20  H   LIG    1       25.147 -28.582   8.229  0.00  0.00    +0.149 HD
ATOM     21  C   LIG    1       25.625 -30.445   7.553  0.00  0.00    +0.221 C 
ATOM     22  O   LIG    1       25.888 -31.188   6.593  0.00  0.00    -0.275 OA
BRANCH  19  23
ATOM     23  CA  LIG    1       25.339 -28.393   6.096  0.00  0.00    +0.098 C 
BRANCH  23  25
ATOM     24  C   LIG    1       24.495 -25.973   6.080  0.00  0.00    +0.005 C 
ATOM     25  C   LIG    1       25.701 -26.898   6.225  0.00  0.00    +0.021 C 
ENDBRANCH  23  25
BRANCH  23  26
ATOM     26  C   LIG    1       24.010 -28.614   5.330  0.00  0.00    +0.177 C 
BRANCH  26  27
ATOM     27  O   LIG    1       23.271 -29.763   5.723  0.00  0.00    -0.393 OA
ATOM     28  H   LIG    1       22.513 -29.464   6.271  0.00  0.00    +0.209 HD
ENDBRANCH  26  27
ENDBRANCH  23  26
ENDBRANCH  19  23
ENDBRANCH   1  21
TORSDOF 5
ENDMDL
MODEL 6
REMARK VINA RESULT:      -6.0      2.490      3.257
REMARK  Name = *****
REMARK                            x       y       z     vdW  Elec       q    Type
REMARK                         _______ _______ _______ _____ _____    ______ ____
ROOT
ATOM      1  C   LIG    1       24.009 -30.038   6.828  0.00  0.00    +0.112 C 
ATOM      2  C   LIG    1       24.587 -31.384   6.343  0.00  0.00    +0.101 C 
ATOM      3  N   LIG    1       25.897 -31.692   6.939  0.00  0.00    -0.297 NA
ATOM      4  C   LIG    1       26.500 -32.876   6.336  0.00  0.00    +0.105 C 
ATOM      5  C   LIG    1       25.857 -31.746   8.424  0.00  0.00    +0.091 C 
ATOM      6  C   LIG    1       25.058 -30.561   9.022  0.00  0.00    -0.025 C 
ATOM      7  C   LIG    1       25.152 -30.419  10.486  0.00  0.00    -0.011 C 
ATOM      8  C   LIG    1       25.289 -31.651  11.146  0.00  0.00    +0.011 C 
ATOM      9  C   LIG    1       25.415 -32.951  10.597  0.00  0.00    -0.020 C 
ATOM     10  C   LIG    1       25.491 -33.825  11.659  0.00  0.00    +0.090 C 
ATOM     11  N   LIG    1       25.406 -33.081  12.820  0.00  0.00    -0.349 NA
ATOM     12  C   LIG    1       25.354 -33.635  14.154  0.00  0.00    +0.149 C 
ATOM     13  C   LIG    1       25.335 -31.733  12.527  0.00  0.00    +0.050 C 
ATOM     14  C   LIG    1       25.295 -30.576  13.317  0.00  0.00    +0.026 C 
ATOM     15  C   LIG    1       25.189 -29.341  12.650  0.00  0.00    +0.003 C 
ATOM     16  C   LIG    1       25.102 -29.258  11.255  0.00  0.00    +0.009 C 
ATOM     17  C   LIG    1       25.455 -33.119   9.104  0.00  0.00    +0.060 C 
ATOM     18  C   LIG    1       24.235 -29.787   8.295  0.00  0.00    -0.007 C 
ENDROOT
BRANCH   1  21
ATOM     19  N   LIG    1       24.786 -27.684   6.713  0.00  0.00    -0.310 N 
ATOM     20  H   LIG    1       24.643 -27.717   7.722  0.00  0.00    +0.149 HD
ATOM     21  C   LIG    1       24.496 -28.833   6.022  0.00  0.00    +0.221 C 
ATOM     22  O   LIG    1       24.609 -28.902   4.788  0.00  0.00    -0.275 OA
BRANCH  19  23
ATOM     23  CA  LIG    1       25.214 -26.407   6.116  0.00  0.00    +0.098 C 
BRANCH  23  25
ATOM     24  C   LIG    1       23.637 -24.464   6.667  0.00  0.00    +0.005 C 
ATOM     25  C   LIG    1       24.031 -25.532   5.650  0.00  0.00    +0.021 C 
ENDBRANCH  23  25
BRANCH  23  26
ATOM     26  C   LIG    1       26.281 -26.598   5.007  0.00  0.00    +0.177 C 
BRANCH  26  27
ATOM     27  O   LIG    1       27.571 -26.975   5.469  0.00  0.00    -0.393 OA
ATOM     28  H   LIG    1       27.886 -27.723   4.915  0.00  0.00    +0.209 HD
ENDBRANCH  26  27
ENDBRANCH  23  26
ENDBRANCH  19  23
ENDBRANCH   1  21
TORSDOF 5
ENDMDL
MODEL 7
REMARK VINA RESULT:      -6.0      4.219      6.446
REMARK  Name = *****
REMARK                            x       y       z     vdW  Elec       q    Type
REMARK                         _______ _______ _______ _____ _____    ______ ____
ROOT
ATOM      1  C   LIG    1       24.660 -25.024   6.409  0.00  0.00    +0.112 C 
ATOM      2  C   LIG    1       24.617 -25.539   4.954  0.00  0.00    +0.101 C 
ATOM      3  N   LIG    1       25.759 -26.405   4.621  0.00  0.00    -0.297 NA
ATOM      4  C   LIG    1       25.789 -26.736   3.200  0.00  0.00    +0.105 C 
ATOM      5  C   LIG    1       25.857 -27.597   5.503  0.00  0.00    +0.091 C 
ATOM      6  C   LIG    1       25.647 -27.230   6.994  0.00  0.00    -0.025 C 
ATOM      7  C   LIG    1       25.941 -28.311   7.951  0.00  0.00    -0.011 C 
ATOM      8  C   LIG    1       25.658 -29.587   7.438  0.00  0.00    +0.011 C 
ATOM      9  C   LIG    1       25.212 -29.952   6.143  0.00  0.00    -0.020 C 
ATOM     10  C   LIG    1       25.054 -31.320   6.149  0.00  0.00    +0.090 C 
ATOM     11  N   LIG    1       25.386 -31.775   7.410  0.00  0.00    -0.349 NA
ATOM     12  C   LIG    1       25.263 -33.146   7.853  0.00  0.00    +0.149 C 
ATOM     13  C   LIG    1       25.814 -30.729   8.205  0.00  0.00    +0.050 C 
ATOM     14  C   LIG    1       26.307 -30.653   9.514  0.00  0.00    +0.026 C 
ATOM     15  C   LIG    1       26.619 -29.375  10.014  0.00  0.00    +0.003 C 
ATOM     16  C   LIG    1       26.426 -28.215   9.255  0.00  0.00    +0.009 C 
ATOM     17  C   LIG    1       25.027 -28.886   5.101  0.00  0.00    +0.060 C 
ATOM     18  C   LIG    1       25.118 -26.063   7.396  0.00  0.00    -0.007 C 
ENDROOT
BRANCH   1  21
ATOM     19  N   LIG    1       24.977 -22.586   6.070  0.00  0.00    -0.310 N 
ATOM     20  H   LIG    1       24.079 -22.660   5.594  0.00  0.00    +0.149 HD
ATOM     21  C   LIG    1       25.488 -23.751   6.585  0.00  0.00    +0.221 C 
ATOM     22  O   LIG    1       26.586 -23.785   7.164  0.00  0.00    -0.275 OA
BRANCH  19  23
ATOM     23  CA  LIG    1       25.644 -21.272   6.090  0.00  0.00    +0.098 C 
BRANCH  23  25
ATOM     24  C   LIG    1       26.933 -20.371   8.114  0.00  0.00    +0.005 C 
ATOM     25  C   LIG    1       25.565 -20.578   7.466  0.00  0.00    +0.021 C 
ENDBRANCH  23  25
BRANCH  23  26
ATOM     26  C   LIG    1       25.174 -20.350   4.935  0.00  0.00    +0.177 C 
BRANCH  26  27
ATOM     27  O   LIG    1       26.172 -20.029   3.976  0.00  0.00    -0.393 OA
ATOM     28  H   LIG    1       25.839 -20.294   3.090  0.00  0.00    +0.209 HD
ENDBRANCH  26  27
ENDBRANCH  23  26
ENDBRANCH  19  23
ENDBRANCH   1  21
TORSDOF 5
ENDMDL
MODEL 8
REMARK VINA RESULT:      -5.9      3.450      6.803
REMARK  Name = *****
REMARK                            x       y       z     vdW  Elec       q    Type
REMARK                         _______ _______ _______ _____ _____    ______ ____
ROOT
ATOM      1  C   LIG    1       25.942 -29.529  11.889  0.00  0.00    +0.112 C 
ATOM      2  C   LIG    1       25.705 -31.033  12.142  0.00  0.00    +0.101 C 
ATOM      3  N   LIG    1       24.552 -31.564  11.398  0.00  0.00    -0.297 NA
ATOM      4  C   LIG    1       24.244 -32.936  11.786  0.00  0.00    +0.105 C 
ATOM      5  C   LIG    1       24.684 -31.386   9.927  0.00  0.00    +0.091 C 
ATOM      6  C   LIG    1       25.181 -29.965   9.561  0.00  0.00    -0.025 C 
ATOM      7  C   LIG    1       25.131 -29.636   8.126  0.00  0.00    -0.011 C 
ATOM      8  C   LIG    1       25.351 -30.751   7.302  0.00  0.00    +0.011 C 
ATOM      9  C   LIG    1       25.535 -32.109   7.664  0.00  0.00    -0.020 C 
ATOM     10  C   LIG    1       25.743 -32.807   6.496  0.00  0.00    +0.090 C 
ATOM     11  N   LIG    1       25.695 -31.902   5.453  0.00  0.00    -0.349 NA
ATOM     12  C   LIG    1       25.958 -32.223   4.068  0.00  0.00    +0.149 C 
ATOM     13  C   LIG    1       25.400 -30.637   5.923  0.00  0.00    +0.050 C 
ATOM     14  C   LIG    1       25.183 -29.403   5.297  0.00  0.00    +0.026 C 
ATOM     15  C   LIG    1       24.932 -28.293   6.125  0.00  0.00    +0.003 C 
ATOM     16  C   LIG    1       24.921 -28.398   7.521  0.00  0.00    +0.009 C 
ATOM     17  C   LIG    1       25.461 -32.500   9.113  0.00  0.00    +0.060 C 
ATOM     18  C   LIG    1       25.736 -29.127  10.453  0.00  0.00    -0.007 C 
ENDROOT
BRANCH   1  21
ATOM     19  N   LIG    1       23.757 -28.624  12.639  0.00  0.00    -0.310 N 
ATOM     20  H   LIG    1       23.392 -29.238  11.912  0.00  0.00    +0.149 HD
ATOM     21  C   LIG    1       25.120 -28.616  12.798  0.00  0.00    +0.221 C 
ATOM     22  O   LIG    1       25.677 -27.888  13.636  0.00  0.00    -0.275 OA
BRANCH  19  23
ATOM     23  CA  LIG    1       22.800 -27.781  13.377  0.00  0.00    +0.098 C 
BRANCH  23  25
ATOM     24  C   LIG    1       20.503 -26.723  12.964  0.00  0.00    +0.005 C 
ATOM     25  C   LIG    1       21.338 -28.001  12.936  0.00  0.00    +0.021 C 
ENDBRANCH  23  25
BRANCH  23  26
ATOM     26  C   LIG    1       23.200 -26.283  13.370  0.00  0.00    +0.177 C 
BRANCH  26  27
ATOM     27  O   LIG    1       23.919 -25.845  14.515  0.00  0.00    -0.393 OA
ATOM     28  H   LIG    1       23.727 -24.891  14.648  0.00  0.00    +0.209 HD
ENDBRANCH  26  27
ENDBRANCH  23  26
ENDBRANCH  19  23
ENDBRANCH   1  21
TORSDOF 5
ENDMDL
MODEL 9
REMARK VINA RESULT:      -5.7      3.885      7.441
REMARK  Name = *****
REMARK                            x       y       z     vdW  Elec       q    Type
REMARK                         _______ _______ _______ _____ _____    ______ ____
ROOT
ATOM      1  C   LIG    1       21.260 -30.565  13.595  0.00  0.00    +0.112 C 
ATOM      2  C   LIG    1       20.297 -31.226  12.585  0.00  0.00    +0.101 C 
ATOM      3  N   LIG    1       20.320 -30.575  11.265  0.00  0.00    -0.297 NA
ATOM      4  C   LIG    1       19.281 -31.102  10.386  0.00  0.00    +0.105 C 
ATOM      5  C   LIG    1       21.671 -30.577  10.645  0.00  0.00    +0.091 C 
ATOM      6  C   LIG    1       22.771 -30.178  11.659  0.00  0.00    -0.025 C 
ATOM      7  C   LIG    1       24.104 -29.945  11.075  0.00  0.00    -0.011 C 
ATOM      8  C   LIG    1       24.361 -30.756   9.959  0.00  0.00    +0.011 C 
ATOM      9  C   LIG    1       23.506 -31.680   9.309  0.00  0.00    -0.020 C 
ATOM     10  C   LIG    1       24.234 -32.244   8.285  0.00  0.00    +0.090 C 
ATOM     11  N   LIG    1       25.498 -31.686   8.315  0.00  0.00    -0.349 NA
ATOM     12  C   LIG    1       26.595 -32.080   7.459  0.00  0.00    +0.149 C 
ATOM     13  C   LIG    1       25.581 -30.727   9.305  0.00  0.00    +0.050 C 
ATOM     14  C   LIG    1       26.592 -29.845   9.710  0.00  0.00    +0.026 C 
ATOM     15  C   LIG    1       26.319 -29.011  10.810  0.00  0.00    +0.003 C 
ATOM     16  C   LIG    1       25.101 -29.066  11.498  0.00  0.00    +0.009 C 
ATOM     17  C   LIG    1       22.095 -31.847   9.798  0.00  0.00    +0.060 C 
ATOM     18  C   LIG    1       22.577 -30.162  12.988  0.00  0.00    -0.007 C 
ENDROOT
BRANCH   1  21
ATOM     19  N   LIG    1       19.429 -28.920  13.908  0.00  0.00    -0.310 N 
ATOM     20  H   LIG    1       19.018 -29.411  13.116  0.00  0.00    +0.149 HD
ATOM     21  C   LIG    1       20.652 -29.372  14.334  0.00  0.00    +0.221 C 
ATOM     22  O   LIG    1       21.259 -28.835  15.275  0.00  0.00    -0.275 OA
BRANCH  19  23
ATOM     23  CA  LIG    1       18.706 -27.757  14.452  0.00  0.00    +0.098 C 
BRANCH  23  25
ATOM     24  C   LIG    1       16.453 -26.537  14.373  0.00  0.00    +0.005 C 
ATOM     25  C   LIG    1       17.173 -27.882  14.317  0.00  0.00    +0.021 C 
ENDBRANCH  23  25
BRANCH  23  26
ATOM     26  C   LIG    1       19.239 -26.412  13.895  0.00  0.00    +0.177 C 
BRANCH  26  27
ATOM     27  O   LIG    1       19.730 -26.462  12.562  0.00  0.00    -0.393 OA
ATOM     28  H   LIG    1       20.498 -27.074  12.544  0.00  0.00    +0.209 HD
ENDBRANCH  26  27
ENDBRANCH  23  26
ENDBRANCH  19  23
ENDBRANCH   1  21
TORSDOF 5
ENDMDL
