MODEL 1
REMARK VINA RESULT:      -0.8      0.000      0.000
REMARK  Name = *****
REMARK                            x       y       z     vdW  Elec       q    Type
REMARK                         _______ _______ _______ _____ _____    ______ ____
ROOT
ATOM      1  N   LIG    1       22.775 -17.110   3.776  0.00  0.00    -0.302 NA
ATOM      2  C   LIG    1       22.015 -17.838   4.800  0.00  0.00    +0.086 C 
ATOM      3  C   LIG    1       21.746 -19.297   4.441  0.00  0.00    +0.041 C 
ATOM      4  C   LIG    1       22.999 -20.083   4.005  0.00  0.00    +0.095 C 
ATOM      5  C   LIG    1       23.712 -19.246   2.930  0.00  0.00    +0.041 C 
ATOM      6  C   LIG    1       24.011 -17.827   3.418  0.00  0.00    +0.086 C 
ENDROOT
BRANCH   4   7
ATOM      7  N   LIG    1       23.822 -20.581   5.111  0.00  0.00    -0.291 N 
ATOM      8  C   LIG    1       25.179 -20.325   5.288  0.00  0.00    +0.072 A 
ATOM      9  C   LIG    1       25.501 -20.972   6.485  0.00  0.00    +0.094 A 
ATOM     10  C   LIG    1       26.823 -20.967   6.955  0.00  0.00    +0.050 A 
ATOM     11  C   LIG    1       27.790 -20.299   6.207  0.00  0.00    +0.043 A 
ATOM     12  C   LIG    1       27.457 -19.627   5.032  0.00  0.00    +0.022 A 
ATOM     13 CL   LIG    1       29.424 -20.292   6.754  0.00  0.00    -0.084 Cl
ATOM     14  N   LIG    1       24.400 -21.533   7.061  0.00  0.00    -0.195 NA
ATOM     15  C   LIG    1       26.139 -19.612   4.558  0.00  0.00    +0.029 A 
ATOM     16  C   LIG    1       23.417 -21.243   6.244  0.00  0.00    +0.297 A 
BRANCH  16  17
ATOM     17  O   LIG    1       22.187 -21.571   6.564  0.00  0.00    -0.479 OA
ATOM     18  H   LIG    1       21.914 -22.082   5.779  0.00  0.00    +0.295 HD
ENDBRANCH  16  17
ENDBRANCH   4   7
BRANCH   1  19
ATOM     19  C   LIG    1       23.124 -15.748   4.236  0.00  0.00    +0.086 C 
BRANCH  19  20
ATOM     20  C   LIG    1       23.742 -14.838   3.168  0.00  0.00    +0.037 C 
BRANCH  20  21
ATOM     21  C   LIG    1       23.637 -13.358   3.528  0.00  0.00    +0.128 C 
BRANCH  21  23
ATOM     22  C   LIG    1       24.790 -12.122   5.376  0.00  0.00    +0.297 A 
ATOM     23  N   LIG    1       24.803 -12.899   4.253  0.00  0.00    -0.294 N 
ATOM     24  C   LIG    1       26.120 -13.159   3.953  0.00  0.00    +0.072 A 
ATOM     25  C   LIG    1       26.829 -12.504   4.964  0.00  0.00    +0.093 A 
ATOM     26  C   LIG    1       28.232 -12.572   4.972  0.00  0.00    +0.030 A 
ATOM     27  C   LIG    1       28.880 -13.297   3.965  0.00  0.00    +0.002 A 
ATOM     28  C   LIG    1       28.148 -13.941   2.965  0.00  0.00    +0.002 A 
ATOM     29  C   LIG    1       26.750 -13.885   2.936  0.00  0.00    +0.028 A 
ATOM     30  N   LIG    1       25.983 -11.863   5.835  0.00  0.00    -0.195 NA
BRANCH  22  31
ATOM     31  O   LIG    1       23.701 -11.672   5.965  0.00  0.00    -0.479 OA
ATOM     32  H   LIG    1       24.037 -10.854   6.375  0.00  0.00    +0.295 HD
ENDBRANCH  22  31
ENDBRANCH  21  23
ENDBRANCH  20  21
ENDBRANCH  19  20
ENDBRANCH   1  19
TORSDOF 7
ENDMDL
MODEL 2
REMARK VINA RESULT:       1.2      2.445      3.507
REMARK  Name = *****
REMARK                            x       y       z     vdW  Elec       q    Type
REMARK                         _______ _______ _______ _____ _____    ______ ____
ROOT
ATOM      1  N   LIG    1       22.524 -20.026   4.534  0.00  0.00    -0.302 NA
ATOM      2  C   LIG    1       23.133 -20.065   5.869  0.00  0.00    +0.086 C 
ATOM      3  C   LIG    1       24.118 -21.216   6.060  0.00  0.00    +0.041 C 
ATOM      4  C   LIG    1       25.183 -21.327   4.951  0.00  0.00    +0.095 C 
ATOM      5  C   LIG    1       24.446 -21.289   3.603  0.00  0.00    +0.041 C 
ATOM      6  C   LIG    1       23.550 -20.055   3.478  0.00  0.00    +0.086 C 
ENDROOT
BRANCH   4   7
ATOM      7  N   LIG    1       26.324 -20.419   5.109  0.00  0.00    -0.291 N 
ATOM      8  C   LIG    1       26.419 -19.139   4.569  0.00  0.00    +0.072 A 
ATOM      9  C   LIG    1       27.654 -18.663   5.019  0.00  0.00    +0.094 A 
ATOM     10  C   LIG    1       28.109 -17.398   4.619  0.00  0.00    +0.050 A 
ATOM     11  C   LIG    1       27.300 -16.636   3.778  0.00  0.00    +0.043 A 
ATOM     12  C   LIG    1       26.055 -17.102   3.359  0.00  0.00    +0.022 A 
ATOM     13 CL   LIG    1       27.844 -15.087   3.258  0.00  0.00    -0.084 Cl
ATOM     14  N   LIG    1       28.260 -19.557   5.851  0.00  0.00    -0.195 NA
ATOM     15  C   LIG    1       25.581 -18.358   3.761  0.00  0.00    +0.029 A 
ATOM     16  C   LIG    1       27.424 -20.565   5.917  0.00  0.00    +0.297 A 
BRANCH  16  17
ATOM     17  O   LIG    1       27.680 -21.569   6.721  0.00  0.00    -0.479 OA
ATOM     18  H   LIG    1       28.405 -21.204   7.262  0.00  0.00    +0.295 HD
ENDBRANCH  16  17
ENDBRANCH   4   7
BRANCH   1  19
ATOM     19  C   LIG    1       21.688 -18.819   4.361  0.00  0.00    +0.086 C 
BRANCH  19  20
ATOM     20  C   LIG    1       22.310 -17.516   4.877  0.00  0.00    +0.037 C 
BRANCH  20  21
ATOM     21  C   LIG    1       22.555 -16.503   3.763  0.00  0.00    +0.128 C 
BRANCH  21  23
ATOM     22  C   LIG    1       22.751 -14.728   5.520  0.00  0.00    +0.297 A 
ATOM     23  N   LIG    1       23.028 -15.236   4.283  0.00  0.00    -0.294 N 
ATOM     24  C   LIG    1       23.833 -14.325   3.640  0.00  0.00    +0.072 A 
ATOM     25  C   LIG    1       23.999 -13.303   4.579  0.00  0.00    +0.093 A 
ATOM     26  C   LIG    1       24.791 -12.192   4.250  0.00  0.00    +0.030 A 
ATOM     27  C   LIG    1       25.397 -12.142   2.988  0.00  0.00    +0.002 A 
ATOM     28  C   LIG    1       25.214 -13.176   2.068  0.00  0.00    +0.002 A 
ATOM     29  C   LIG    1       24.426 -14.292   2.372  0.00  0.00    +0.028 A 
ATOM     30  N   LIG    1       23.314 -13.572   5.739  0.00  0.00    -0.195 NA
BRANCH  22  31
ATOM     31  O   LIG    1       22.004 -15.325   6.427  0.00  0.00    -0.479 OA
ATOM     32  H   LIG    1       21.304 -15.708   5.867  0.00  0.00    +0.295 HD
ENDBRANCH  22  31
ENDBRANCH  21  23
ENDBRANCH  20  21
ENDBRANCH  19  20
ENDBRANCH   1  19
TORSDOF 7
ENDMDL
MODEL 3
REMARK VINA RESULT:       1.6      1.767      2.381
REMARK  Name = *****
REMARK                            x       y       z     vdW  Elec       q    Type
REMARK                         _______ _______ _______ _____ _____    ______ ____
ROOT
ATOM      1  N   LIG    1       21.846 -17.269   5.430  0.00  0.00    -0.302 NA
ATOM      2  C   LIG    1       22.727 -17.970   6.373  0.00  0.00    +0.086 C 
ATOM      3  C   LIG    1       22.629 -19.492   6.288  0.00  0.00    +0.041 C 
ATOM      4  C   LIG    1       22.770 -20.055   4.860  0.00  0.00    +0.095 C 
ATOM      5  C   LIG    1       21.805 -19.267   3.959  0.00  0.00    +0.041 C 
ATOM      6  C   LIG    1       22.040 -17.759   4.055  0.00  0.00    +0.086 C 
ENDROOT
BRANCH   4   7
ATOM      7  N   LIG    1       24.153 -20.189   4.392  0.00  0.00    -0.291 N 
ATOM      8  C   LIG    1       25.275 -20.299   5.207  0.00  0.00    +0.072 A 
ATOM      9  C   LIG    1       26.341 -20.440   4.314  0.00  0.00    +0.094 A 
ATOM     10  C   LIG    1       27.657 -20.528   4.795  0.00  0.00    +0.050 A 
ATOM     11  C   LIG    1       27.864 -20.479   6.172  0.00  0.00    +0.043 A 
ATOM     12  C   LIG    1       26.795 -20.370   7.060  0.00  0.00    +0.022 A 
ATOM     13 CL   LIG    1       29.471 -20.566   6.787  0.00  0.00    -0.084 Cl
ATOM     14  N   LIG    1       25.907 -20.494   3.023  0.00  0.00    -0.195 NA
ATOM     15  C   LIG    1       25.476 -20.296   6.595  0.00  0.00    +0.029 A 
ATOM     16  C   LIG    1       24.603 -20.388   3.110  0.00  0.00    +0.297 A 
BRANCH  16  17
ATOM     17  O   LIG    1       23.869 -20.495   2.027  0.00  0.00    -0.479 OA
ATOM     18  H   LIG    1       23.657 -19.560   1.845  0.00  0.00    +0.295 HD
ENDBRANCH  16  17
ENDBRANCH   4   7
BRANCH   1  19
ATOM     19  C   LIG    1       22.082 -15.810   5.461  0.00  0.00    +0.086 C 
BRANCH  19  20
ATOM     20  C   LIG    1       23.077 -15.288   4.418  0.00  0.00    +0.037 C 
BRANCH  20  21
ATOM     21  C   LIG    1       23.475 -13.835   4.664  0.00  0.00    +0.128 C 
BRANCH  21  23
ATOM     22  C   LIG    1       24.548 -13.071   2.533  0.00  0.00    +0.297 A 
ATOM     23  N   LIG    1       24.603 -13.442   3.846  0.00  0.00    -0.294 N 
ATOM     24  C   LIG    1       25.921 -13.366   4.234  0.00  0.00    +0.072 A 
ATOM     25  C   LIG    1       26.584 -12.926   3.086  0.00  0.00    +0.093 A 
ATOM     26  C   LIG    1       27.973 -12.726   3.130  0.00  0.00    +0.030 A 
ATOM     27  C   LIG    1       28.654 -12.973   4.328  0.00  0.00    +0.002 A 
ATOM     28  C   LIG    1       27.969 -13.413   5.462  0.00  0.00    +0.002 A 
ATOM     29  C   LIG    1       26.584 -13.622   5.440  0.00  0.00    +0.028 A 
ATOM     30  N   LIG    1       25.712 -12.753   2.039  0.00  0.00    -0.195 NA
BRANCH  22  31
ATOM     31  O   LIG    1       23.445 -13.020   1.814  0.00  0.00    -0.479 OA
ATOM     32  H   LIG    1       23.810 -12.852   0.926  0.00  0.00    +0.295 HD
ENDBRANCH  22  31
ENDBRANCH  21  23
ENDBRANCH  20  21
ENDBRANCH  19  20
ENDBRANCH   1  19
TORSDOF 7
ENDMDL
MODEL 4
REMARK VINA RESULT:       1.9      2.555      7.405
REMARK  Name = *****
REMARK                            x       y       z     vdW  Elec       q    Type
REMARK                         _______ _______ _______ _____ _____    ______ ____
ROOT
ATOM      1  N   LIG    1       27.981 -14.778   3.754  0.00  0.00    -0.302 NA
ATOM      2  C   LIG    1       27.571 -14.096   4.987  0.00  0.00    +0.086 C 
ATOM      3  C   LIG    1       26.818 -12.791   4.743  0.00  0.00    +0.041 C 
ATOM      4  C   LIG    1       25.644 -12.913   3.751  0.00  0.00    +0.095 C 
ATOM      5  C   LIG    1       26.178 -13.626   2.498  0.00  0.00    +0.041 C 
ATOM      6  C   LIG    1       26.840 -14.962   2.841  0.00  0.00    +0.086 C 
ENDROOT
BRANCH   4   7
ATOM      7  N   LIG    1       24.405 -13.437   4.334  0.00  0.00    -0.291 N 
ATOM      8  C   LIG    1       23.990 -14.764   4.292  0.00  0.00    +0.072 A 
ATOM      9  C   LIG    1       22.788 -14.775   5.005  0.00  0.00    +0.094 A 
ATOM     10  C   LIG    1       22.050 -15.963   5.125  0.00  0.00    +0.050 A 
ATOM     11  C   LIG    1       22.550 -17.118   4.527  0.00  0.00    +0.043 A 
ATOM     12  C   LIG    1       23.765 -17.109   3.844  0.00  0.00    +0.022 A 
ATOM     13 CL   LIG    1       21.655 -18.585   4.644  0.00  0.00    -0.084 Cl
ATOM     14  N   LIG    1       22.506 -13.548   5.527  0.00  0.00    -0.195 NA
ATOM     15  C   LIG    1       24.519 -15.934   3.729  0.00  0.00    +0.029 A 
ATOM     16  C   LIG    1       23.508 -12.791   5.148  0.00  0.00    +0.297 A 
BRANCH  16  17
ATOM     17  O   LIG    1       23.581 -11.551   5.570  0.00  0.00    -0.479 OA
ATOM     18  H   LIG    1       24.177 -11.156   4.906  0.00  0.00    +0.295 HD
ENDBRANCH  16  17
ENDBRANCH   4   7
BRANCH   1  19
ATOM     19  C   LIG    1       28.582 -16.098   4.046  0.00  0.00    +0.086 C 
BRANCH  19  20
ATOM     20  C   LIG    1       27.587 -17.193   4.446  0.00  0.00    +0.037 C 
BRANCH  20  21
ATOM     21  C   LIG    1       28.218 -18.583   4.452  0.00  0.00    +0.128 C 
BRANCH  21  23
ATOM     22  C   LIG    1       27.775 -20.073   6.416  0.00  0.00    +0.297 A 
ATOM     23  N   LIG    1       27.428 -19.528   5.214  0.00  0.00    -0.294 N 
ATOM     24  C   LIG    1       26.197 -20.040   4.874  0.00  0.00    +0.072 A 
ATOM     25  C   LIG    1       25.877 -20.879   5.945  0.00  0.00    +0.093 A 
ATOM     26  C   LIG    1       24.655 -21.572   5.933  0.00  0.00    +0.030 A 
ATOM     27  C   LIG    1       23.791 -21.399   4.844  0.00  0.00    +0.002 A 
ATOM     28  C   LIG    1       24.135 -20.556   3.786  0.00  0.00    +0.002 A 
ATOM     29  C   LIG    1       25.348 -19.858   3.776  0.00  0.00    +0.028 A 
ATOM     30  N   LIG    1       26.873 -20.888   6.891  0.00  0.00    -0.195 NA
BRANCH  22  31
ATOM     31  O   LIG    1       28.894 -19.817   7.062  0.00  0.00    -0.479 OA
ATOM     32  H   LIG    1       28.583 -19.171   7.723  0.00  0.00    +0.295 HD
ENDBRANCH  22  31
ENDBRANCH  21  23
ENDBRANCH  20  21
ENDBRANCH  19  20
ENDBRANCH   1  19
TORSDOF 7
ENDMDL
