MODEL 1
REMARK VINA RESULT:      -8.5      0.000      0.000
REMARK  Name = *****
REMARK                            x       y       z     vdW  Elec       q    Type
REMARK                         _______ _______ _______ _____ _____    ______ ____
ROOT
ATOM      1  N   LIG    1       26.423 -20.758   5.475  0.00  0.00    -0.310 N 
ATOM      2  H   LIG    1       26.892 -19.975   5.043  0.00  0.00    +0.149 HD
ATOM      3  C   LIG    1       27.047 -21.367   6.546  0.00  0.00    +0.248 C 
ATOM      4  O   LIG    1       26.514 -22.245   7.203  0.00  0.00    -0.270 OA
ENDROOT
BRANCH   3   5
ATOM      5  C   LIG    1       28.415 -20.886   6.938  0.00  0.00    +0.080 A 
ATOM      6  C   LIG    1       29.039 -19.724   6.433  0.00  0.00    +0.134 A 
ATOM      7  C   LIG    1       30.236 -19.257   7.010  0.00  0.00    +0.078 A 
ATOM      8  C   LIG    1       30.849 -20.010   8.020  0.00  0.00    +0.116 A 
ATOM      9  C   LIG    1       30.274 -21.200   8.424  0.00  0.00    +0.087 A 
ATOM     10  N   LIG    1       31.149 -21.669   9.362  0.00  0.00    -0.257 N 
ATOM     11  H   LIG    1       31.121 -22.528   9.896  0.00  0.00    +0.191 HD
ATOM     12  N   LIG    1       32.167 -20.815   9.561  0.00  0.00    -0.067 NA
ATOM     13  N   LIG    1       31.994 -19.789   8.736  0.00  0.00    -0.130 NA
ATOM     14  C   LIG    1       29.064 -21.675   7.916  0.00  0.00    +0.046 A 
BRANCH   6  15
ATOM     15  O   LIG    1       28.438 -19.059   5.387  0.00  0.00    -0.494 OA
ATOM     16  C   LIG    1       29.012 -17.799   5.033  0.00  0.00    +0.277 C 
ENDBRANCH   6  15
ENDBRANCH   3   5
BRANCH   1  17
ATOM     17  C   LIG    1       25.090 -21.116   5.027  0.00  0.00    +0.123 C 
BRANCH  17  19
ATOM     18  N   LIG    1       22.862 -21.185   6.439  0.00  0.00    -0.294 NA
ATOM     19  C   LIG    1       23.911 -20.412   5.757  0.00  0.00    +0.074 C 
ATOM     20  C   LIG    1       23.068 -19.563   4.804  0.00  0.00    +0.021 C 
ATOM     21  C   LIG    1       21.897 -20.453   4.409  0.00  0.00    +0.017 C 
ATOM     22  C   LIG    1       21.868 -21.570   5.444  0.00  0.00    +0.085 C 
BRANCH  18  23
ATOM     23  C   LIG    1       23.317 -22.269   7.303  0.00  0.00    +0.111 C 
BRANCH  23  25
ATOM     24  C   LIG    1       23.755 -24.606   6.440  0.00  0.00    +0.005 C 
ATOM     25  C   LIG    1       22.913 -23.615   6.762  0.00  0.00    -0.019 C 
ENDBRANCH  23  25
ENDBRANCH  18  23
ENDBRANCH  17  19
ENDBRANCH   1  17
TORSDOF 6
ENDMDL
MODEL 2
REMARK VINA RESULT:      -8.2      1.624      2.784
REMARK  Name = *****
REMARK                            x       y       z     vdW  Elec       q    Type
REMARK                         _______ _______ _______ _____ _____    ______ ____
ROOT
ATOM      1  N   LIG    1       27.241 -22.220   7.405  0.00  0.00    -0.310 N 
ATOM      2  H   LIG    1       27.942 -22.467   6.721  0.00  0.00    +0.149 HD
ATOM      3  C   LIG    1       27.430 -21.057   8.123  0.00  0.00    +0.248 C 
ATOM      4  O   LIG    1       26.590 -20.615   8.889  0.00  0.00    -0.270 OA
ENDROOT
BRANCH   3   5
ATOM      5  C   LIG    1       28.702 -20.287   7.908  0.00  0.00    +0.080 A 
ATOM      6  C   LIG    1       29.163 -19.821   6.657  0.00  0.00    +0.134 A 
ATOM      7  C   LIG    1       30.263 -18.943   6.591  0.00  0.00    +0.078 A 
ATOM      8  C   LIG    1       30.951 -18.619   7.767  0.00  0.00    +0.116 A 
ATOM      9  C   LIG    1       30.546 -19.173   8.967  0.00  0.00    +0.087 A 
ATOM     10  N   LIG    1       31.454 -18.683   9.861  0.00  0.00    -0.257 N 
ATOM     11  H   LIG    1       31.539 -18.859  10.855  0.00  0.00    +0.191 HD
ATOM     12  N   LIG    1       32.331 -17.852   9.273  0.00  0.00    -0.067 NA
ATOM     13  N   LIG    1       32.032 -17.807   7.980  0.00  0.00    -0.130 NA
ATOM     14  C   LIG    1       29.433 -20.006   9.086  0.00  0.00    +0.046 A 
BRANCH   6  15
ATOM     15  O   LIG    1       28.499 -20.229   5.521  0.00  0.00    -0.494 OA
ATOM     16  C   LIG    1       27.484 -19.346   5.038  0.00  0.00    +0.277 C 
ENDBRANCH   6  15
ENDBRANCH   3   5
BRANCH   1  17
ATOM     17  C   LIG    1       26.039 -23.027   7.506  0.00  0.00    +0.123 C 
BRANCH  17  19
ATOM     18  N   LIG    1       23.686 -22.824   6.331  0.00  0.00    -0.294 NA
ATOM     19  C   LIG    1       25.133 -23.067   6.243  0.00  0.00    +0.074 C 
ATOM     20  C   LIG    1       25.152 -24.438   5.563  0.00  0.00    +0.021 C 
ATOM     21  C   LIG    1       23.925 -25.164   6.097  0.00  0.00    +0.017 C 
ATOM     22  C   LIG    1       23.039 -24.079   6.695  0.00  0.00    +0.085 C 
BRANCH  18  23
ATOM     23  C   LIG    1       23.272 -21.668   7.120  0.00  0.00    +0.111 C 
BRANCH  23  25
ATOM     24  C   LIG    1       22.605 -20.331   5.079  0.00  0.00    +0.005 C 
ATOM     25  C   LIG    1       23.197 -20.422   6.277  0.00  0.00    -0.019 C 
ENDBRANCH  23  25
ENDBRANCH  18  23
ENDBRANCH  17  19
ENDBRANCH   1  17
TORSDOF 6
ENDMDL
MODEL 3
REMARK VINA RESULT:      -8.2      1.414      3.417
REMARK  Name = *****
REMARK                            x       y       z     vdW  Elec       q    Type
REMARK                         _______ _______ _______ _____ _____    ______ ____
ROOT
ATOM      1  N   LIG    1       26.589 -20.322   5.252  0.00  0.00    -0.310 N 
ATOM      2  H   LIG    1       26.494 -21.132   5.848  0.00  0.00    +0.149 HD
ATOM      3  C   LIG    1       27.689 -19.510   5.446  0.00  0.00    +0.248 C 
ATOM      4  O   LIG    1       27.953 -18.576   4.709  0.00  0.00    -0.270 OA
ENDROOT
BRANCH   3   5
ATOM      5  C   LIG    1       28.616 -19.831   6.584  0.00  0.00    +0.080 A 
ATOM      6  C   LIG    1       28.609 -21.037   7.317  0.00  0.00    +0.134 A 
ATOM      7  C   LIG    1       29.644 -21.316   8.231  0.00  0.00    +0.078 A 
ATOM      8  C   LIG    1       30.623 -20.344   8.474  0.00  0.00    +0.116 A 
ATOM      9  C   LIG    1       30.549 -19.128   7.821  0.00  0.00    +0.087 A 
ATOM     10  N   LIG    1       31.611 -18.434   8.329  0.00  0.00    -0.257 N 
ATOM     11  H   LIG    1       31.912 -17.487   8.138  0.00  0.00    +0.191 HD
ATOM     12  N   LIG    1       32.319 -19.177   9.197  0.00  0.00    -0.067 NA
ATOM     13  N   LIG    1       31.717 -20.356   9.296  0.00  0.00    -0.130 NA
ATOM     14  C   LIG    1       29.571 -18.827   6.873  0.00  0.00    +0.046 A 
BRANCH   6  15
ATOM     15  O   LIG    1       27.583 -21.931   7.099  0.00  0.00    -0.494 OA
ATOM     16  C   LIG    1       26.727 -22.186   8.215  0.00  0.00    +0.277 C 
ENDBRANCH   6  15
ENDBRANCH   3   5
BRANCH   1  17
ATOM     17  C   LIG    1       25.645 -20.129   4.167  0.00  0.00    +0.123 C 
BRANCH  17  19
ATOM     18  N   LIG    1       23.040 -20.298   4.551  0.00  0.00    -0.294 NA
ATOM     19  C   LIG    1       24.325 -20.948   4.255  0.00  0.00    +0.074 C 
ATOM     20  C   LIG    1       24.375 -22.004   5.360  0.00  0.00    +0.021 C 
ATOM     21  C   LIG    1       23.699 -21.355   6.560  0.00  0.00    +0.017 C 
ATOM     22  C   LIG    1       22.924 -20.171   6.000  0.00  0.00    +0.085 C 
BRANCH  18  23
ATOM     23  C   LIG    1       22.743 -19.082   3.802  0.00  0.00    +0.111 C 
BRANCH  23  25
ATOM     24  C   LIG    1       22.317 -16.740   4.659  0.00  0.00    +0.005 C 
ATOM     25  C   LIG    1       22.057 -18.055   4.664  0.00  0.00    -0.019 C 
ENDBRANCH  23  25
ENDBRANCH  18  23
ENDBRANCH  17  19
ENDBRANCH   1  17
TORSDOF 6
ENDMDL
MODEL 4
REMARK VINA RESULT:      -8.2      1.102      2.379
REMARK  Name = *****
REMARK                            x       y       z     vdW  Elec       q    Type
REMARK                         _______ _______ _______ _____ _____    ______ ____
ROOT
ATOM      1  N   LIG    1       26.757 -20.634   5.511  0.00  0.00    -0.310 N 
ATOM      2  H   LIG    1       27.545 -20.782   4.898  0.00  0.00    +0.149 HD
ATOM      3  C   LIG    1       27.021 -20.318   6.829  0.00  0.00    +0.248 C 
ATOM      4  O   LIG    1       26.144 -20.012   7.619  0.00  0.00    -0.270 OA
ENDROOT
BRANCH   3   5
ATOM      5  C   LIG    1       28.454 -20.306   7.283  0.00  0.00    +0.080 A 
ATOM      6  C   LIG    1       29.349 -19.228   7.107  0.00  0.00    +0.134 A 
ATOM      7  C   LIG    1       30.606 -19.242   7.741  0.00  0.00    +0.078 A 
ATOM      8  C   LIG    1       30.995 -20.377   8.465  0.00  0.00    +0.116 A 
ATOM      9  C   LIG    1       30.143 -21.464   8.534  0.00  0.00    +0.087 A 
ATOM     10  N   LIG    1       30.857 -22.375   9.259  0.00  0.00    -0.257 N 
ATOM     11  H   LIG    1       30.612 -23.321   9.524  0.00  0.00    +0.191 HD
ATOM     12  N   LIG    1       32.043 -21.879   9.651  0.00  0.00    -0.067 NA
ATOM     13  N   LIG    1       32.140 -20.648   9.164  0.00  0.00    -0.130 NA
ATOM     14  C   LIG    1       28.870 -21.474   7.964  0.00  0.00    +0.046 A 
BRANCH   6  15
ATOM     15  O   LIG    1       28.950 -18.168   6.323  0.00  0.00    -0.494 OA
ATOM     16  C   LIG    1       29.368 -18.207   4.957  0.00  0.00    +0.277 C 
ENDBRANCH   6  15
ENDBRANCH   3   5
BRANCH   1  17
ATOM     17  C   LIG    1       25.417 -20.644   4.953  0.00  0.00    +0.123 C 
BRANCH  17  19
ATOM     18  N   LIG    1       23.228 -22.006   5.512  0.00  0.00    -0.294 NA
ATOM     19  C   LIG    1       24.633 -21.981   5.081  0.00  0.00    +0.074 C 
ATOM     20  C   LIG    1       25.265 -22.924   6.107  0.00  0.00    +0.021 C 
ATOM     21  C   LIG    1       24.483 -22.692   7.393  0.00  0.00    +0.017 C 
ATOM     22  C   LIG    1       23.203 -21.984   6.970  0.00  0.00    +0.085 C 
BRANCH  18  23
ATOM     23  C   LIG    1       22.338 -21.046   4.868  0.00  0.00    +0.111 C 
BRANCH  23  25
ATOM     24  C   LIG    1       22.331 -18.519   4.738  0.00  0.00    +0.005 C 
ATOM     25  C   LIG    1       22.532 -19.656   5.417  0.00  0.00    -0.019 C 
ENDBRANCH  23  25
ENDBRANCH  18  23
ENDBRANCH  17  19
ENDBRANCH   1  17
TORSDOF 6
ENDMDL
MODEL 5
REMARK VINA RESULT:      -7.9      2.738      7.339
REMARK  Name = *****
REMARK                            x       y       z     vdW  Elec       q    Type
REMARK                         _______ _______ _______ _____ _____    ______ ____
ROOT
ATOM      1  N   LIG    1       27.453 -21.579   7.647  0.00  0.00    -0.310 N 
ATOM      2  H   LIG    1       27.749 -22.171   6.884  0.00  0.00    +0.149 HD
ATOM      3  C   LIG    1       26.230 -21.844   8.228  0.00  0.00    +0.248 C 
ATOM      4  O   LIG    1       25.835 -21.261   9.223  0.00  0.00    -0.270 OA
ENDROOT
BRANCH   3   5
ATOM      5  C   LIG    1       25.382 -22.931   7.630  0.00  0.00    +0.080 A 
ATOM      6  C   LIG    1       24.013 -22.804   7.307  0.00  0.00    +0.134 A 
ATOM      7  C   LIG    1       23.363 -23.815   6.572  0.00  0.00    +0.078 A 
ATOM      8  C   LIG    1       24.061 -24.986   6.253  0.00  0.00    +0.116 A 
ATOM      9  C   LIG    1       25.370 -25.132   6.672  0.00  0.00    +0.087 A 
ATOM     10  N   LIG    1       25.702 -26.383   6.234  0.00  0.00    -0.257 N 
ATOM     11  H   LIG    1       26.566 -26.898   6.350  0.00  0.00    +0.191 HD
ATOM     12  N   LIG    1       24.693 -26.954   5.554  0.00  0.00    -0.067 NA
ATOM     13  N   LIG    1       23.675 -26.102   5.562  0.00  0.00    -0.130 NA
ATOM     14  C   LIG    1       26.069 -24.138   7.358  0.00  0.00    +0.046 A 
BRANCH   6  15
ATOM     15  O   LIG    1       23.348 -21.667   7.710  0.00  0.00    -0.494 OA
ATOM     16  C   LIG    1       23.237 -20.628   6.734  0.00  0.00    +0.277 C 
ENDBRANCH   6  15
ENDBRANCH   3   5
BRANCH   1  17
ATOM     17  C   LIG    1       28.370 -20.575   8.157  0.00  0.00    +0.123 C 
BRANCH  17  19
ATOM     18  N   LIG    1       30.640 -19.312   7.699  0.00  0.00    -0.294 NA
ATOM     19  C   LIG    1       29.673 -20.358   7.336  0.00  0.00    +0.074 C 
ATOM     20  C   LIG    1       29.382 -19.988   5.880  0.00  0.00    +0.021 C 
ATOM     21  C   LIG    1       29.458 -18.468   5.835  0.00  0.00    +0.017 C 
ATOM     22  C   LIG    1       30.192 -18.058   7.104  0.00  0.00    +0.085 C 
BRANCH  18  23
ATOM     23  C   LIG    1       31.003 -19.229   9.109  0.00  0.00    +0.111 C 
BRANCH  23  25
ATOM     24  C   LIG    1       30.458 -17.552  10.924  0.00  0.00    +0.005 C 
ATOM     25  C   LIG    1       30.780 -17.842   9.656  0.00  0.00    -0.019 C 
ENDBRANCH  23  25
ENDBRANCH  18  23
ENDBRANCH  17  19
ENDBRANCH   1  17
TORSDOF 6
ENDMDL
MODEL 6
REMARK VINA RESULT:      -7.9      1.659      2.275
REMARK  Name = *****
REMARK                            x       y       z     vdW  Elec       q    Type
REMARK                         _______ _______ _______ _____ _____    ______ ____
ROOT
ATOM      1  N   LIG    1       26.452 -21.205   5.976  0.00  0.00    -0.310 N 
ATOM      2  H   LIG    1       27.080 -21.241   5.186  0.00  0.00    +0.149 HD
ATOM      3  C   LIG    1       26.885 -20.546   7.109  0.00  0.00    +0.248 C 
ATOM      4  O   LIG    1       26.161 -20.351   8.071  0.00  0.00    -0.270 OA
ENDROOT
BRANCH   3   5
ATOM      5  C   LIG    1       28.288 -20.010   7.126  0.00  0.00    +0.080 A 
ATOM      6  C   LIG    1       28.854 -19.194   6.122  0.00  0.00    +0.134 A 
ATOM      7  C   LIG    1       30.107 -18.585   6.328  0.00  0.00    +0.078 A 
ATOM      8  C   LIG    1       30.826 -18.875   7.495  0.00  0.00    +0.116 A 
ATOM      9  C   LIG    1       30.297 -19.761   8.416  0.00  0.00    +0.087 A 
ATOM     10  N   LIG    1       31.269 -19.836   9.372  0.00  0.00    -0.257 N 
ATOM     11  H   LIG    1       31.299 -20.393  10.217  0.00  0.00    +0.191 HD
ATOM     12  N   LIG    1       32.304 -19.025   9.093  0.00  0.00    -0.067 NA
ATOM     13  N   LIG    1       32.042 -18.430   7.936  0.00  0.00    -0.130 NA
ATOM     14  C   LIG    1       29.039 -20.349   8.276  0.00  0.00    +0.046 A 
BRANCH   6  15
ATOM     15  O   LIG    1       28.142 -18.998   4.959  0.00  0.00    -0.494 OA
ATOM     16  C   LIG    1       28.030 -17.645   4.513  0.00  0.00    +0.277 C 
ENDBRANCH   6  15
ENDBRANCH   3   5
BRANCH   1  17
ATOM     17  C   LIG    1       25.108 -21.735   5.833  0.00  0.00    +0.123 C 
BRANCH  17  19
ATOM     18  N   LIG    1       24.594 -23.950   7.171  0.00  0.00    -0.294 NA
ATOM     19  C   LIG    1       24.533 -22.484   7.068  0.00  0.00    +0.074 C 
ATOM     20  C   LIG    1       23.031 -22.247   7.238  0.00  0.00    +0.021 C 
ATOM     21  C   LIG    1       22.363 -23.445   6.578  0.00  0.00    +0.017 C 
ATOM     22  C   LIG    1       23.453 -24.500   6.449  0.00  0.00    +0.085 C 
BRANCH  18  23
ATOM     23  C   LIG    1       25.878 -24.567   6.854  0.00  0.00    +0.111 C 
BRANCH  23  25
ATOM     24  C   LIG    1       25.947 -27.091   7.006  0.00  0.00    +0.005 C 
ATOM     25  C   LIG    1       25.703 -25.965   6.322  0.00  0.00    -0.019 C 
ENDBRANCH  23  25
ENDBRANCH  18  23
ENDBRANCH  17  19
ENDBRANCH   1  17
TORSDOF 6
ENDMDL
MODEL 7
REMARK VINA RESULT:      -7.8      2.192      7.473
REMARK  Name = *****
REMARK                            x       y       z     vdW  Elec       q    Type
REMARK                         _______ _______ _______ _____ _____    ______ ____
ROOT
ATOM      1  N   LIG    1       29.068 -21.314   7.482  0.00  0.00    -0.310 N 
ATOM      2  H   LIG    1       29.239 -21.891   6.670  0.00  0.00    +0.149 HD
ATOM      3  C   LIG    1       27.792 -20.820   7.659  0.00  0.00    +0.248 C 
ATOM      4  O   LIG    1       27.458 -20.209   8.661  0.00  0.00    -0.270 OA
ENDROOT
BRANCH   3   5
ATOM      5  C   LIG    1       26.770 -21.094   6.593  0.00  0.00    +0.080 A 
ATOM      6  C   LIG    1       25.893 -22.201   6.579  0.00  0.00    +0.134 A 
ATOM      7  C   LIG    1       24.843 -22.260   5.642  0.00  0.00    +0.078 A 
ATOM      8  C   LIG    1       24.739 -21.260   4.666  0.00  0.00    +0.116 A 
ATOM      9  C   LIG    1       25.674 -20.241   4.635  0.00  0.00    +0.087 A 
ATOM     10  N   LIG    1       25.295 -19.501   3.551  0.00  0.00    -0.257 N 
ATOM     11  H   LIG    1       25.723 -18.674   3.155  0.00  0.00    +0.191 HD
ATOM     12  N   LIG    1       24.184 -19.994   2.978  0.00  0.00    -0.067 NA
ATOM     13  N   LIG    1       23.834 -21.080   3.656  0.00  0.00    -0.130 NA
ATOM     14  C   LIG    1       26.700 -20.117   5.572  0.00  0.00    +0.046 A 
BRANCH   6  15
ATOM     15  O   LIG    1       26.081 -23.197   7.511  0.00  0.00    -0.494 OA
ATOM     16  C   LIG    1       25.797 -24.527   7.072  0.00  0.00    +0.277 C 
ENDBRANCH   6  15
ENDBRANCH   3   5
BRANCH   1  17
ATOM     17  C   LIG    1       30.128 -21.141   8.458  0.00  0.00    +0.123 C 
BRANCH  17  19
ATOM     18  N   LIG    1       31.008 -18.697   8.919  0.00  0.00    -0.294 NA
ATOM     19  C   LIG    1       31.118 -19.971   8.194  0.00  0.00    +0.074 C 
ATOM     20  C   LIG    1       31.059 -19.482   6.745  0.00  0.00    +0.021 C 
ATOM     21  C   LIG    1       30.120 -18.284   6.768  0.00  0.00    +0.017 C 
ATOM     22  C   LIG    1       30.024 -17.869   8.230  0.00  0.00    +0.085 C 
BRANCH  18  23
ATOM     23  C   LIG    1       30.829 -18.790  10.364  0.00  0.00    +0.111 C 
BRANCH  23  25
ATOM     24  C   LIG    1       31.269 -16.512  11.374  0.00  0.00    +0.005 C 
ATOM     25  C   LIG    1       30.424 -17.465  10.957  0.00  0.00    -0.019 C 
ENDBRANCH  23  25
ENDBRANCH  18  23
ENDBRANCH  17  19
ENDBRANCH   1  17
TORSDOF 6
ENDMDL
MODEL 8
REMARK VINA RESULT:      -7.7      2.216      3.338
REMARK  Name = *****
REMARK                            x       y       z     vdW  Elec       q    Type
REMARK                         _______ _______ _______ _____ _____    ______ ____
ROOT
ATOM      1  N   LIG    1       27.578 -20.689   7.399  0.00  0.00    -0.310 N 
ATOM      2  H   LIG    1       27.645 -21.055   8.338  0.00  0.00    +0.149 HD
ATOM      3  C   LIG    1       28.556 -19.809   6.983  0.00  0.00    +0.248 C 
ATOM      4  O   LIG    1       28.626 -19.400   5.836  0.00  0.00    -0.270 OA
ENDROOT
BRANCH   3   5
ATOM      5  C   LIG    1       29.600 -19.386   7.977  0.00  0.00    +0.080 A 
ATOM      6  C   LIG    1       30.563 -20.242   8.553  0.00  0.00    +0.134 A 
ATOM      7  C   LIG    1       31.616 -19.708   9.321  0.00  0.00    +0.078 A 
ATOM      8  C   LIG    1       31.641 -18.333   9.586  0.00  0.00    +0.116 A 
ATOM      9  C   LIG    1       30.628 -17.529   9.099  0.00  0.00    +0.087 A 
ATOM     10  N   LIG    1       30.949 -16.292   9.583  0.00  0.00    -0.257 N 
ATOM     11  H   LIG    1       30.456 -15.414   9.482  0.00  0.00    +0.191 HD
ATOM     12  N   LIG    1       32.098 -16.315  10.279  0.00  0.00    -0.067 NA
ATOM     13  N   LIG    1       32.532 -17.570  10.290  0.00  0.00    -0.130 NA
ATOM     14  C   LIG    1       29.593 -18.006   8.293  0.00  0.00    +0.046 A 
BRANCH   6  15
ATOM     15  O   LIG    1       30.453 -21.597   8.327  0.00  0.00    -0.494 OA
ATOM     16  C   LIG    1       31.373 -22.427   9.040  0.00  0.00    +0.277 C 
ENDBRANCH   6  15
ENDBRANCH   3   5
BRANCH   1  17
ATOM     17  C   LIG    1       26.539 -21.192   6.519  0.00  0.00    +0.123 C 
BRANCH  17  19
ATOM     18  N   LIG    1       24.395 -22.729   6.503  0.00  0.00    -0.294 NA
ATOM     19  C   LIG    1       25.290 -21.805   7.214  0.00  0.00    +0.074 C 
ATOM     20  C   LIG    1       24.296 -20.731   7.663  0.00  0.00    +0.021 C 
ATOM     21  C   LIG    1       23.264 -20.654   6.547  0.00  0.00    +0.017 C 
ATOM     22  C   LIG    1       23.439 -21.933   5.740  0.00  0.00    +0.085 C 
BRANCH  18  23
ATOM     23  C   LIG    1       25.038 -23.802   5.752  0.00  0.00    +0.111 C 
BRANCH  23  25
ATOM     24  C   LIG    1       25.926 -26.065   6.450  0.00  0.00    +0.005 C 
ATOM     25  C   LIG    1       25.771 -24.752   6.663  0.00  0.00    -0.019 C 
ENDBRANCH  23  25
ENDBRANCH  18  23
ENDBRANCH  17  19
ENDBRANCH   1  17
TORSDOF 6
ENDMDL
MODEL 9
REMARK VINA RESULT:      -7.7      2.224      3.902
REMARK  Name = *****
REMARK                            x       y       z     vdW  Elec       q    Type
REMARK                         _______ _______ _______ _____ _____    ______ ____
ROOT
ATOM      1  N   LIG    1       27.829 -20.013   6.908  0.00  0.00    -0.310 N 
ATOM      2  H   LIG    1       27.706 -20.391   7.837  0.00  0.00    +0.149 HD
ATOM      3  C   LIG    1       28.958 -19.256   6.668  0.00  0.00    +0.248 C 
ATOM      4  O   LIG    1       29.252 -18.852   5.556  0.00  0.00    -0.270 OA
ENDROOT
BRANCH   3   5
ATOM      5  C   LIG    1       29.878 -18.968   7.821  0.00  0.00    +0.080 A 
ATOM      6  C   LIG    1       30.542 -19.948   8.590  0.00  0.00    +0.134 A 
ATOM      7  C   LIG    1       31.532 -19.569   9.517  0.00  0.00    +0.078 A 
ATOM      8  C   LIG    1       31.778 -18.207   9.737  0.00  0.00    +0.116 A 
ATOM      9  C   LIG    1       31.040 -17.263   9.047  0.00  0.00    +0.087 A 
ATOM     10  N   LIG    1       31.507 -16.079   9.541  0.00  0.00    -0.257 N 
ATOM     11  H   LIG    1       31.220 -15.132   9.323  0.00  0.00    +0.191 HD
ATOM     12  N   LIG    1       32.493 -16.268  10.434  0.00  0.00    -0.067 NA
ATOM     13  N   LIG    1       32.666 -17.578  10.565  0.00  0.00    -0.130 NA
ATOM     14  C   LIG    1       30.085 -17.594   8.084  0.00  0.00    +0.046 A 
BRANCH   6  15
ATOM     15  O   LIG    1       30.210 -21.271   8.392  0.00  0.00    -0.494 OA
ATOM     16  C   LIG    1       30.958 -22.223   9.151  0.00  0.00    +0.277 C 
ENDBRANCH   6  15
ENDBRANCH   3   5
BRANCH   1  17
ATOM     17  C   LIG    1       26.887 -20.382   5.867  0.00  0.00    +0.123 C 
BRANCH  17  19
ATOM     18  N   LIG    1       24.521 -21.522   6.113  0.00  0.00    -0.294 NA
ATOM     19  C   LIG    1       25.987 -21.616   6.164  0.00  0.00    +0.074 C 
ATOM     20  C   LIG    1       26.192 -22.150   7.583  0.00  0.00    +0.021 C 
ATOM     21  C   LIG    1       25.080 -21.518   8.409  0.00  0.00    +0.017 C 
ATOM     22  C   LIG    1       24.056 -21.017   7.400  0.00  0.00    +0.085 C 
BRANCH  18  23
ATOM     23  C   LIG    1       23.956 -20.849   4.949  0.00  0.00    +0.111 C 
BRANCH  23  25
ATOM     24  C   LIG    1       22.361 -18.895   4.751  0.00  0.00    +0.005 C 
ATOM     25  C   LIG    1       22.727 -20.055   5.311  0.00  0.00    -0.019 C 
ENDBRANCH  23  25
ENDBRANCH  18  23
ENDBRANCH  17  19
ENDBRANCH   1  17
TORSDOF 6
ENDMDL
