MODEL 1
REMARK VINA RESULT:      -7.1      0.000      0.000
REMARK  Name = *****
REMARK                            x       y       z     vdW  Elec       q    Type
REMARK                         _______ _______ _______ _____ _____    ______ ____
ROOT
ATOM      1  C   LIG    1       24.629 -22.718   6.247  0.00  0.00    +0.024 C 
ATOM      2  C   LIG    1       24.561 -21.135   5.962  0.00  0.00    -0.014 C 
ATOM      3  C   LIG    1       23.242 -20.455   6.379  0.00  0.00    +0.013 C 
ATOM      4  C   LIG    1       24.768 -20.741   4.474  0.00  0.00    +0.013 C 
ATOM      5  C   LIG    1       25.800 -20.606   6.771  0.00  0.00    -0.003 C 
ATOM      6  C   LIG    1       26.810 -21.752   6.632  0.00  0.00    +0.009 C 
ATOM      7  C   LIG    1       25.557 -20.639   8.288  0.00  0.00    +0.004 C 
ATOM      8  C   LIG    1       25.552 -22.137   8.599  0.00  0.00    +0.005 C 
ATOM      9  C   LIG    1       25.852 -22.785   7.231  0.00  0.00    +0.010 C 
ATOM     10  C   LIG    1       23.345 -23.317   6.851  0.00  0.00    +0.028 C 
ENDROOT
BRANCH   1  12
ATOM     11  C   LIG    1       25.094 -24.874   5.053  0.00  0.00    +0.101 C 
ATOM     12  N   LIG    1       24.914 -23.433   4.977  0.00  0.00    -0.313 NA
ATOM     13  H   LIG    1       24.169 -23.232   4.309  0.00  0.00    +0.122 HD
ENDBRANCH   1  12
TORSDOF 1
ENDMDL
MODEL 2
REMARK VINA RESULT:      -6.4      1.273      3.218
REMARK  Name = *****
REMARK                            x       y       z     vdW  Elec       q    Type
REMARK                         _______ _______ _______ _____ _____    ______ ____
ROOT
ATOM      1  C   LIG    1       24.339 -21.219   5.875  0.00  0.00    +0.024 C 
ATOM      2  C   LIG    1       24.405 -22.745   6.386  0.00  0.00    -0.014 C 
ATOM      3  C   LIG    1       24.918 -23.759   5.346  0.00  0.00    +0.013 C 
ATOM      4  C   LIG    1       23.045 -23.316   6.875  0.00  0.00    +0.013 C 
ATOM      5  C   LIG    1       25.348 -22.627   7.638  0.00  0.00    -0.003 C 
ATOM      6  C   LIG    1       24.995 -21.245   8.201  0.00  0.00    +0.009 C 
ATOM      7  C   LIG    1       26.813 -22.393   7.237  0.00  0.00    +0.004 C 
ATOM      8  C   LIG    1       26.789 -20.966   6.684  0.00  0.00    +0.005 C 
ATOM      9  C   LIG    1       25.323 -20.530   6.887  0.00  0.00    +0.010 C 
ATOM     10  C   LIG    1       24.757 -21.017   4.406  0.00  0.00    +0.028 C 
ENDROOT
BRANCH   1  12
ATOM     11  C   LIG    1       22.558 -19.595   5.183  0.00  0.00    +0.101 C 
ATOM     12  N   LIG    1       22.954 -20.709   6.031  0.00  0.00    -0.313 NA
ATOM     13  H   LIG    1       22.299 -21.478   5.886  0.00  0.00    +0.122 HD
ENDBRANCH   1  12
TORSDOF 1
ENDMDL
MODEL 3
REMARK VINA RESULT:      -6.0      1.391      3.331
REMARK  Name = *****
REMARK                            x       y       z     vdW  Elec       q    Type
REMARK                         _______ _______ _______ _____ _____    ______ ____
ROOT
ATOM      1  C   LIG    1       25.077 -21.390   5.770  0.00  0.00    +0.024 C 
ATOM      2  C   LIG    1       23.540 -21.320   6.245  0.00  0.00    -0.014 C 
ATOM      3  C   LIG    1       23.270 -20.387   7.441  0.00  0.00    +0.013 C 
ATOM      4  C   LIG    1       22.931 -22.690   6.652  0.00  0.00    +0.013 C 
ATOM      5  C   LIG    1       22.815 -20.851   4.932  0.00  0.00    -0.003 C 
ATOM      6  C   LIG    1       23.644 -21.521   3.828  0.00  0.00    +0.009 C 
ATOM      7  C   LIG    1       23.090 -19.371   4.618  0.00  0.00    +0.004 C 
ATOM      8  C   LIG    1       24.567 -19.378   4.217  0.00  0.00    +0.005 C 
ATOM      9  C   LIG    1       24.950 -20.871   4.292  0.00  0.00    +0.010 C 
ATOM     10  C   LIG    1       26.048 -20.547   6.617  0.00  0.00    +0.028 C 
ENDROOT
BRANCH   1  12
ATOM     11  C   LIG    1       26.251 -23.230   7.005  0.00  0.00    +0.101 C 
ATOM     12  N   LIG    1       25.539 -22.801   5.812  0.00  0.00    -0.313 NA
ATOM     13  H   LIG    1       24.738 -23.416   5.669  0.00  0.00    +0.122 HD
ENDBRANCH   1  12
TORSDOF 1
ENDMDL
MODEL 4
REMARK VINA RESULT:      -5.9      1.352      2.795
REMARK  Name = *****
REMARK                            x       y       z     vdW  Elec       q    Type
REMARK                         _______ _______ _______ _____ _____    ______ ____
ROOT
ATOM      1  C   LIG    1       24.703 -22.588   6.256  0.00  0.00    +0.024 C 
ATOM      2  C   LIG    1       25.196 -21.066   6.436  0.00  0.00    -0.014 C 
ATOM      3  C   LIG    1       25.760 -20.410   5.161  0.00  0.00    +0.013 C 
ATOM      4  C   LIG    1       26.298 -20.872   7.514  0.00  0.00    +0.013 C 
ATOM      5  C   LIG    1       23.892 -20.362   6.957  0.00  0.00    -0.003 C 
ATOM      6  C   LIG    1       23.228 -21.457   7.800  0.00  0.00    +0.009 C 
ATOM      7  C   LIG    1       22.842 -20.197   5.847  0.00  0.00    +0.004 C 
ATOM      8  C   LIG    1       22.384 -21.635   5.597  0.00  0.00    +0.005 C 
ATOM      9  C   LIG    1       23.184 -22.449   6.635  0.00  0.00    +0.010 C 
ATOM     10  C   LIG    1       24.914 -23.168   4.845  0.00  0.00    +0.028 C 
ENDROOT
BRANCH   1  12
ATOM     11  C   LIG    1       25.790 -24.789   6.769  0.00  0.00    +0.101 C 
ATOM     12  N   LIG    1       25.426 -23.456   7.220  0.00  0.00    -0.313 NA
ATOM     13  H   LIG    1       26.270 -22.974   7.531  0.00  0.00    +0.122 HD
ENDBRANCH   1  12
TORSDOF 1
ENDMDL
MODEL 5
REMARK VINA RESULT:      -5.8      1.980      3.120
REMARK  Name = *****
REMARK                            x       y       z     vdW  Elec       q    Type
REMARK                         _______ _______ _______ _____ _____    ______ ____
ROOT
ATOM      1  C   LIG    1       23.470 -21.305   5.953  0.00  0.00    +0.024 C 
ATOM      2  C   LIG    1       22.724 -20.354   4.889  0.00  0.00    -0.014 C 
ATOM      3  C   LIG    1       22.400 -18.936   5.398  0.00  0.00    +0.013 C 
ATOM      4  C   LIG    1       21.374 -20.916   4.363  0.00  0.00    +0.013 C 
ATOM      5  C   LIG    1       23.738 -20.353   3.688  0.00  0.00    -0.003 C 
ATOM      6  C   LIG    1       24.331 -21.766   3.742  0.00  0.00    +0.009 C 
ATOM      7  C   LIG    1       24.992 -19.518   3.993  0.00  0.00    +0.004 C 
ATOM      8  C   LIG    1       25.709 -20.358   5.052  0.00  0.00    +0.005 C 
ATOM      9  C   LIG    1       24.810 -21.605   5.187  0.00  0.00    +0.010 C 
ATOM     10  C   LIG    1       23.704 -20.663   7.333  0.00  0.00    +0.028 C 
ENDROOT
BRANCH   1  12
ATOM     11  C   LIG    1       23.349 -23.681   6.748  0.00  0.00    +0.101 C 
ATOM     12  N   LIG    1       22.671 -22.541   6.152  0.00  0.00    -0.313 NA
ATOM     13  H   LIG    1       21.851 -22.317   6.716  0.00  0.00    +0.122 HD
ENDBRANCH   1  12
TORSDOF 1
ENDMDL
MODEL 6
REMARK VINA RESULT:      -5.8      1.402      3.508
REMARK  Name = *****
REMARK                            x       y       z     vdW  Elec       q    Type
REMARK                         _______ _______ _______ _____ _____    ______ ____
ROOT
ATOM      1  C   LIG    1       24.967 -21.178   6.341  0.00  0.00    +0.024 C 
ATOM      2  C   LIG    1       24.113 -22.465   5.885  0.00  0.00    -0.014 C 
ATOM      3  C   LIG    1       23.173 -23.037   6.964  0.00  0.00    +0.013 C 
ATOM      4  C   LIG    1       24.972 -23.670   5.414  0.00  0.00    +0.013 C 
ATOM      5  C   LIG    1       23.340 -21.914   4.633  0.00  0.00    -0.003 C 
ATOM      6  C   LIG    1       24.343 -20.930   4.020  0.00  0.00    +0.009 C 
ATOM      7  C   LIG    1       22.214 -20.945   5.030  0.00  0.00    +0.004 C 
ATOM      8  C   LIG    1       22.982 -19.720   5.531  0.00  0.00    +0.005 C 
ATOM      9  C   LIG    1       24.459 -20.109   5.307  0.00  0.00    +0.010 C 
ATOM     10  C   LIG    1       24.745 -20.746   7.803  0.00  0.00    +0.028 C 
ENDROOT
BRANCH   1  12
ATOM     11  C   LIG    1       27.335 -20.351   6.351  0.00  0.00    +0.101 C 
ATOM     12  N   LIG    1       26.414 -21.461   6.163  0.00  0.00    -0.313 NA
ATOM     13  H   LIG    1       26.683 -22.219   6.790  0.00  0.00    +0.122 HD
ENDBRANCH   1  12
TORSDOF 1
ENDMDL
MODEL 7
REMARK VINA RESULT:      -5.7      1.318      3.362
REMARK  Name = *****
REMARK                            x       y       z     vdW  Elec       q    Type
REMARK                         _______ _______ _______ _____ _____    ______ ____
ROOT
ATOM      1  C   LIG    1       25.065 -21.153   5.661  0.00  0.00    +0.024 C 
ATOM      2  C   LIG    1       24.761 -22.680   6.074  0.00  0.00    -0.014 C 
ATOM      3  C   LIG    1       25.694 -23.260   7.154  0.00  0.00    +0.013 C 
ATOM      4  C   LIG    1       24.828 -23.689   4.894  0.00  0.00    +0.013 C 
ATOM      5  C   LIG    1       23.264 -22.597   6.543  0.00  0.00    -0.003 C 
ATOM      6  C   LIG    1       22.678 -21.521   5.619  0.00  0.00    +0.009 C 
ATOM      7  C   LIG    1       23.123 -21.895   7.903  0.00  0.00    +0.004 C 
ATOM      8  C   LIG    1       23.465 -20.441   7.572  0.00  0.00    +0.005 C 
ATOM      9  C   LIG    1       23.705 -20.470   6.048  0.00  0.00    +0.010 C 
ATOM     10  C   LIG    1       26.274 -20.524   6.380  0.00  0.00    +0.028 C 
ENDROOT
BRANCH   1  12
ATOM     11  C   LIG    1       25.113 -19.791   3.556  0.00  0.00    +0.101 C 
ATOM     12  N   LIG    1       25.314 -21.080   4.199  0.00  0.00    -0.313 NA
ATOM     13  H   LIG    1       26.265 -21.396   4.009  0.00  0.00    +0.122 HD
ENDBRANCH   1  12
TORSDOF 1
ENDMDL
MODEL 8
REMARK VINA RESULT:      -5.7      1.437      2.845
REMARK  Name = *****
REMARK                            x       y       z     vdW  Elec       q    Type
REMARK                         _______ _______ _______ _____ _____    ______ ____
ROOT
ATOM      1  C   LIG    1       25.034 -22.290   6.005  0.00  0.00    +0.024 C 
ATOM      2  C   LIG    1       24.654 -21.102   4.987  0.00  0.00    -0.014 C 
ATOM      3  C   LIG    1       24.321 -21.557   3.552  0.00  0.00    +0.013 C 
ATOM      4  C   LIG    1       25.756 -20.019   4.825  0.00  0.00    +0.013 C 
ATOM      5  C   LIG    1       23.432 -20.432   5.712  0.00  0.00    -0.003 C 
ATOM      6  C   LIG    1       23.783 -20.600   7.195  0.00  0.00    +0.009 C 
ATOM      7  C   LIG    1       22.165 -21.300   5.631  0.00  0.00    +0.004 C 
ATOM      8  C   LIG    1       22.505 -22.481   6.542  0.00  0.00    +0.005 C 
ATOM      9  C   LIG    1       23.905 -22.122   7.084  0.00  0.00    +0.010 C 
ATOM     10  C   LIG    1       25.051 -23.695   5.374  0.00  0.00    +0.028 C 
ENDROOT
BRANCH   1  12
ATOM     11  C   LIG    1       26.559 -22.312   7.996  0.00  0.00    +0.101 C 
ATOM     12  N   LIG    1       26.378 -22.032   6.581  0.00  0.00    -0.313 NA
ATOM     13  H   LIG    1       27.072 -22.560   6.052  0.00  0.00    +0.122 HD
ENDBRANCH   1  12
TORSDOF 1
ENDMDL
MODEL 9
REMARK VINA RESULT:      -5.6      1.158      2.080
REMARK  Name = *****
REMARK                            x       y       z     vdW  Elec       q    Type
REMARK                         _______ _______ _______ _____ _____    ______ ____
ROOT
ATOM      1  C   LIG    1       25.087 -21.850   5.668  0.00  0.00    +0.024 C 
ATOM      2  C   LIG    1       24.017 -21.349   6.762  0.00  0.00    -0.014 C 
ATOM      3  C   LIG    1       22.998 -22.414   7.211  0.00  0.00    +0.013 C 
ATOM      4  C   LIG    1       23.163 -20.131   6.313  0.00  0.00    +0.013 C 
ATOM      5  C   LIG    1       24.950 -20.869   7.932  0.00  0.00    -0.003 C 
ATOM      6  C   LIG    1       26.171 -20.315   7.187  0.00  0.00    +0.009 C 
ATOM      7  C   LIG    1       25.596 -22.048   8.676  0.00  0.00    +0.004 C 
ATOM      8  C   LIG    1       26.585 -22.599   7.646  0.00  0.00    +0.005 C 
ATOM      9  C   LIG    1       26.431 -21.633   6.453  0.00  0.00    +0.010 C 
ATOM     10  C   LIG    1       24.895 -23.306   5.204  0.00  0.00    +0.028 C 
ENDROOT
BRANCH   1  12
ATOM     11  C   LIG    1       24.121 -21.394   3.399  0.00  0.00    +0.101 C 
ATOM     12  N   LIG    1       25.010 -20.975   4.470  0.00  0.00    -0.313 NA
ATOM     13  H   LIG    1       24.748 -20.034   4.764  0.00  0.00    +0.122 HD
ENDBRANCH   1  12
TORSDOF 1
ENDMDL
