MODEL 1
REMARK VINA RESULT:       0.7      0.000      0.000
REMARK  Name = *****
REMARK                            x       y       z     vdW  Elec       q    Type
REMARK                         _______ _______ _______ _____ _____    ______ ____
ROOT
ATOM      1  N   LIG    1       24.141 -15.580   3.695  0.00  0.00    -0.295 NA
ATOM      2  C   LIG    1       24.491 -14.492   2.741  0.00  0.00    +0.065 C 
ATOM      3  C   LIG    1       24.050 -13.102   3.239  0.00  0.00    +0.014 C 
ATOM      4  C   LIG    1       24.188 -12.032   2.146  0.00  0.00    +0.010 C 
ATOM      5  C   LIG    1       24.817 -12.797   4.558  0.00  0.00    -0.002 C 
ATOM      6  C   LIG    1       24.325 -11.447   5.128  0.00  0.00    +0.016 C 
ATOM      7  C   LIG    1       26.337 -12.830   4.329  0.00  0.00    -0.034 A 
ATOM      8  C   LIG    1       26.879 -13.655   3.318  0.00  0.00    -0.042 A 
ATOM      9  C   LIG    1       28.270 -13.704   3.119  0.00  0.00    +0.007 A 
ATOM     10  C   LIG    1       29.128 -12.964   3.926  0.00  0.00    +0.045 A 
ATOM     11  C   LIG    1       28.600 -12.176   4.937  0.00  0.00    +0.117 A 
ATOM     12  C   LIG    1       27.224 -12.105   5.147  0.00  0.00    +0.049 A 
ATOM     13  C   LIG    1       24.459 -13.917   5.577  0.00  0.00    +0.027 C 
ATOM     14  C   LIG    1       26.004 -14.491   2.406  0.00  0.00    +0.054 C 
ATOM     15  C   LIG    1       24.707 -15.333   5.034  0.00  0.00    +0.086 C 
ENDROOT
BRANCH  11  16
ATOM     16  O   LIG    1       29.475 -11.479   5.719  0.00  0.00    -0.507 OA
ATOM     17  H   LIG    1       29.196 -10.551   5.744  0.00  0.00    +0.292 HD
ENDBRANCH  11  16
BRANCH   1  18
ATOM     18  C   LIG    1       22.696 -15.852   3.789  0.00  0.00    +0.112 C 
BRANCH  18  21
ATOM     19  C   LIG    1       22.402 -19.469   5.300  0.00  0.00    +0.038 C 
ATOM     20  C   LIG    1       22.853 -18.339   4.409  0.00  0.00    -0.078 C 
ATOM     21  C   LIG    1       22.366 -17.092   4.577  0.00  0.00    -0.013 C 
ATOM     22  C   LIG    1       23.863 -18.746   3.373  0.00  0.00    +0.038 C 
ENDBRANCH  18  21
ENDBRANCH   1  18
TORSDOF 3
ENDMDL
