MODEL 1
REMARK VINA RESULT:      -5.5      0.000      0.000
REMARK  Name = *****
REMARK                            x       y       z     vdW  Elec       q    Type
REMARK                         _______ _______ _______ _____ _____    ______ ____
ROOT
ATOM      1  C   LIG    1       21.901 -20.088   4.801  0.00  0.00    +0.045 C 
ATOM      2  C   LIG    1       23.400 -19.966   4.820  0.00  0.00    -0.028 A 
ATOM      3  C   LIG    1       24.187 -20.608   5.799  0.00  0.00    +0.047 A 
ATOM      4 CL   LIG    1       23.417 -21.572   7.022  0.00  0.00    -0.083 Cl
ATOM      5  C   LIG    1       25.589 -20.477   5.795  0.00  0.00    -0.028 A 
ATOM      6  C   LIG    1       26.457 -21.148   6.825  0.00  0.00    +0.045 C 
ATOM      7  C   LIG    1       26.195 -19.696   4.800  0.00  0.00    +0.050 A 
ATOM      8  C   LIG    1       25.419 -19.064   3.837  0.00  0.00    +0.117 A 
ATOM      9  C   LIG    1       24.034 -19.190   3.837  0.00  0.00    +0.050 A 
ENDROOT
BRANCH   8  10
ATOM     10  O   LIG    1       26.064 -18.319   2.894  0.00  0.00    -0.507 OA
ATOM     11  H   LIG    1       26.609 -17.652   3.341  0.00  0.00    +0.292 HD
ENDBRANCH   8  10
TORSDOF 1
ENDMDL
MODEL 2
REMARK VINA RESULT:      -5.0      2.225      3.155
REMARK  Name = *****
REMARK                            x       y       z     vdW  Elec       q    Type
REMARK                         _______ _______ _______ _____ _____    ______ ____
ROOT
ATOM      1  C   LIG    1       25.385 -18.899   3.372  0.00  0.00    +0.045 C 
ATOM      2  C   LIG    1       25.430 -19.747   4.613  0.00  0.00    -0.028 A 
ATOM      3  C   LIG    1       24.257 -20.238   5.223  0.00  0.00    +0.047 A 
ATOM      4 CL   LIG    1       22.709 -19.862   4.532  0.00  0.00    -0.083 Cl
ATOM      5  C   LIG    1       24.327 -21.030   6.386  0.00  0.00    -0.028 A 
ATOM      6  C   LIG    1       23.095 -21.568   7.061  0.00  0.00    +0.045 C 
ATOM      7  C   LIG    1       25.585 -21.325   6.931  0.00  0.00    +0.050 A 
ATOM      8  C   LIG    1       26.740 -20.841   6.329  0.00  0.00    +0.117 A 
ATOM      9  C   LIG    1       26.675 -20.059   5.182  0.00  0.00    +0.050 A 
ENDROOT
BRANCH   8  10
ATOM     10  O   LIG    1       27.934 -21.162   6.904  0.00  0.00    -0.507 OA
ATOM     11  H   LIG    1       27.963 -22.120   7.054  0.00  0.00    +0.292 HD
ENDBRANCH   8  10
TORSDOF 1
ENDMDL
MODEL 3
REMARK VINA RESULT:      -4.9      5.401      6.523
REMARK  Name = *****
REMARK                            x       y       z     vdW  Elec       q    Type
REMARK                         _______ _______ _______ _____ _____    ______ ____
ROOT
ATOM      1  C   LIG    1       25.652 -17.023   3.334  0.00  0.00    +0.045 C 
ATOM      2  C   LIG    1       25.915 -15.556   3.542  0.00  0.00    -0.028 A 
ATOM      3  C   LIG    1       24.894 -14.665   3.933  0.00  0.00    +0.047 A 
ATOM      4 CL   LIG    1       23.283 -15.263   4.187  0.00  0.00    -0.083 Cl
ATOM      5  C   LIG    1       25.166 -13.296   4.121  0.00  0.00    -0.028 A 
ATOM      6  C   LIG    1       24.099 -12.319   4.537  0.00  0.00    +0.045 C 
ATOM      7  C   LIG    1       26.472 -12.830   3.913  0.00  0.00    +0.050 A 
ATOM      8  C   LIG    1       27.477 -13.708   3.528  0.00  0.00    +0.117 A 
ATOM      9  C   LIG    1       27.213 -15.060   3.341  0.00  0.00    +0.050 A 
ENDROOT
BRANCH   8  10
ATOM     10  O   LIG    1       28.727 -13.196   3.342  0.00  0.00    -0.507 OA
ATOM     11  H   LIG    1       28.648 -12.292   2.996  0.00  0.00    +0.292 HD
ENDBRANCH   8  10
TORSDOF 1
ENDMDL
MODEL 4
REMARK VINA RESULT:      -4.9      2.194      3.048
REMARK  Name = *****
REMARK                            x       y       z     vdW  Elec       q    Type
REMARK                         _______ _______ _______ _____ _____    ______ ____
ROOT
ATOM      1  C   LIG    1       23.515 -21.444   7.062  0.00  0.00    +0.045 C 
ATOM      2  C   LIG    1       23.549 -20.499   5.892  0.00  0.00    -0.028 A 
ATOM      3  C   LIG    1       24.757 -20.141   5.258  0.00  0.00    +0.047 A 
ATOM      4 CL   LIG    1       26.256 -20.804   5.833  0.00  0.00    -0.083 Cl
ATOM      5  C   LIG    1       24.761 -19.254   4.164  0.00  0.00    -0.028 A 
ATOM      6  C   LIG    1       26.032 -18.852   3.467  0.00  0.00    +0.045 C 
ATOM      7  C   LIG    1       23.542 -18.730   3.712  0.00  0.00    +0.050 A 
ATOM      8  C   LIG    1       22.352 -19.082   4.336  0.00  0.00    +0.117 A 
ATOM      9  C   LIG    1       22.344 -19.958   5.417  0.00  0.00    +0.050 A 
ENDROOT
BRANCH   8  10
ATOM     10  O   LIG    1       21.199 -18.541   3.852  0.00  0.00    -0.507 OA
ATOM     11  H   LIG    1       21.404 -18.026   3.055  0.00  0.00    +0.292 HD
ENDBRANCH   8  10
TORSDOF 1
ENDMDL
MODEL 5
REMARK VINA RESULT:      -4.9      5.429      6.333
REMARK  Name = *****
REMARK                            x       y       z     vdW  Elec       q    Type
REMARK                         _______ _______ _______ _____ _____    ______ ____
ROOT
ATOM      1  C   LIG    1       24.070 -12.315   4.478  0.00  0.00    +0.045 C 
ATOM      2  C   LIG    1       25.160 -13.270   4.070  0.00  0.00    -0.028 A 
ATOM      3  C   LIG    1       24.915 -14.648   3.897  0.00  0.00    +0.047 A 
ATOM      4 CL   LIG    1       23.317 -15.276   4.156  0.00  0.00    -0.083 Cl
ATOM      5  C   LIG    1       25.953 -15.521   3.515  0.00  0.00    -0.028 A 
ATOM      6  C   LIG    1       25.726 -16.996   3.322  0.00  0.00    +0.045 C 
ATOM      7  C   LIG    1       27.237 -14.997   3.308  0.00  0.00    +0.050 A 
ATOM      8  C   LIG    1       27.477 -13.640   3.480  0.00  0.00    +0.117 A 
ATOM      9  C   LIG    1       26.456 -12.775   3.857  0.00  0.00    +0.050 A 
ENDROOT
BRANCH   8  10
ATOM     10  O   LIG    1       28.746 -13.190   3.264  0.00  0.00    -0.507 OA
ATOM     11  H   LIG    1       28.987 -12.577   3.977  0.00  0.00    +0.292 HD
ENDBRANCH   8  10
TORSDOF 1
ENDMDL
MODEL 6
REMARK VINA RESULT:      -4.9      2.183      3.117
REMARK  Name = *****
REMARK                            x       y       z     vdW  Elec       q    Type
REMARK                         _______ _______ _______ _____ _____    ______ ____
ROOT
ATOM      1  C   LIG    1       26.081 -18.888   3.496  0.00  0.00    +0.045 C 
ATOM      2  C   LIG    1       24.791 -19.264   4.173  0.00  0.00    -0.028 A 
ATOM      3  C   LIG    1       24.756 -20.146   5.272  0.00  0.00    +0.047 A 
ATOM      4 CL   LIG    1       26.236 -20.825   5.875  0.00  0.00    -0.083 Cl
ATOM      5  C   LIG    1       23.534 -20.482   5.888  0.00  0.00    -0.028 A 
ATOM      6  C   LIG    1       23.462 -21.420   7.062  0.00  0.00    +0.045 C 
ATOM      7  C   LIG    1       22.348 -19.924   5.390  0.00  0.00    +0.050 A 
ATOM      8  C   LIG    1       22.383 -19.055   4.307  0.00  0.00    +0.117 A 
ATOM      9  C   LIG    1       23.587 -18.721   3.696  0.00  0.00    +0.050 A 
ENDROOT
BRANCH   8  10
ATOM     10  O   LIG    1       21.198 -18.543   3.867  0.00  0.00    -0.507 OA
ATOM     11  H   LIG    1       21.002 -17.734   4.366  0.00  0.00    +0.292 HD
ENDBRANCH   8  10
TORSDOF 1
ENDMDL
MODEL 7
REMARK VINA RESULT:      -4.8      2.427      3.153
REMARK  Name = *****
REMARK                            x       y       z     vdW  Elec       q    Type
REMARK                         _______ _______ _______ _____ _____    ______ ____
ROOT
ATOM      1  C   LIG    1       25.728 -18.262   3.199  0.00  0.00    +0.045 C 
ATOM      2  C   LIG    1       25.234 -19.336   4.130  0.00  0.00    -0.028 A 
ATOM      3  C   LIG    1       26.072 -19.922   5.101  0.00  0.00    +0.047 A 
ATOM      4 CL   LIG    1       27.722 -19.398   5.240  0.00  0.00    -0.083 Cl
ATOM      5  C   LIG    1       25.585 -20.926   5.961  0.00  0.00    -0.028 A 
ATOM      6  C   LIG    1       26.452 -21.572   7.007  0.00  0.00    +0.045 C 
ATOM      7  C   LIG    1       24.250 -21.336   5.836  0.00  0.00    +0.050 A 
ATOM      8  C   LIG    1       23.426 -20.759   4.879  0.00  0.00    +0.117 A 
ATOM      9  C   LIG    1       23.902 -19.767   4.028  0.00  0.00    +0.050 A 
ENDROOT
BRANCH   8  10
ATOM     10  O   LIG    1       22.137 -21.198   4.805  0.00  0.00    -0.507 OA
ATOM     11  H   LIG    1       22.105 -21.984   4.237  0.00  0.00    +0.292 HD
ENDBRANCH   8  10
TORSDOF 1
ENDMDL
MODEL 8
REMARK VINA RESULT:      -4.8      2.541      3.890
REMARK  Name = *****
REMARK                            x       y       z     vdW  Elec       q    Type
REMARK                         _______ _______ _______ _____ _____    ______ ____
ROOT
ATOM      1  C   LIG    1       26.736 -21.572   7.055  0.00  0.00    +0.045 C 
ATOM      2  C   LIG    1       25.722 -21.026   6.087  0.00  0.00    -0.028 A 
ATOM      3  C   LIG    1       26.038 -19.992   5.181  0.00  0.00    +0.047 A 
ATOM      4 CL   LIG    1       27.640 -19.321   5.169  0.00  0.00    -0.083 Cl
ATOM      5  C   LIG    1       25.070 -19.499   4.284  0.00  0.00    -0.028 A 
ATOM      6  C   LIG    1       25.374 -18.397   3.306  0.00  0.00    +0.045 C 
ATOM      7  C   LIG    1       23.781 -20.053   4.306  0.00  0.00    +0.050 A 
ATOM      8  C   LIG    1       23.471 -21.071   5.198  0.00  0.00    +0.117 A 
ATOM      9  C   LIG    1       24.424 -21.560   6.085  0.00  0.00    +0.050 A 
ENDROOT
BRANCH   8  10
ATOM     10  O   LIG    1       22.202 -21.570   5.172  0.00  0.00    -0.507 OA
ATOM     11  H   LIG    1       22.112 -22.158   4.405  0.00  0.00    +0.292 HD
ENDBRANCH   8  10
TORSDOF 1
ENDMDL
MODEL 9
REMARK VINA RESULT:      -4.1      2.815      3.301
REMARK  Name = *****
REMARK                            x       y       z     vdW  Elec       q    Type
REMARK                         _______ _______ _______ _____ _____    ______ ____
ROOT
ATOM      1  C   LIG    1       22.487 -18.013   3.688  0.00  0.00    +0.045 C 
ATOM      2  C   LIG    1       23.292 -18.986   4.506  0.00  0.00    -0.028 A 
ATOM      3  C   LIG    1       24.695 -19.073   4.393  0.00  0.00    +0.047 A 
ATOM      4 CL   LIG    1       25.532 -18.033   3.283  0.00  0.00    -0.083 Cl
ATOM      5  C   LIG    1       25.425 -19.992   5.171  0.00  0.00    -0.028 A 
ATOM      6  C   LIG    1       26.922 -20.110   5.074  0.00  0.00    +0.045 C 
ATOM      7  C   LIG    1       24.733 -20.824   6.064  0.00  0.00    +0.050 A 
ATOM      8  C   LIG    1       23.351 -20.738   6.175  0.00  0.00    +0.117 A 
ATOM      9  C   LIG    1       22.627 -19.832   5.408  0.00  0.00    +0.050 A 
ENDROOT
BRANCH   8  10
ATOM     10  O   LIG    1       22.734 -21.572   7.060  0.00  0.00    -0.507 OA
ATOM     11  H   LIG    1       22.352 -21.041   7.777  0.00  0.00    +0.292 HD
ENDBRANCH   8  10
TORSDOF 1
ENDMDL
